REMARK  Name = ZINC39695760
REMARK  9 active torsions:
REMARK  status: ('A' for Active; 'I' for Inactive)
REMARK    1  A    between atoms: C_1  and  C_2
REMARK    2  A    between atoms: C_9  and  C_11
REMARK    3  A    between atoms: C_11  and  C_13
REMARK    4  A    between atoms: C_11  and  N_14
REMARK    5  A    between atoms: C_15  and  C_17
REMARK    6  A    between atoms: C_28  and  C_30
REMARK    7  A    between atoms: C_30  and  C_32
REMARK    8  A    between atoms: C_30  and  O_33
REMARK    9  A    between atoms: O_33  and  C_34
REMARK                            x       y       z     vdW  Elec       q    Type
REMARK                         _______ _______ _______ _____ _____    ______ ____
ROOT
ATOM      1  C   UNL     1       1.843  -8.713   0.967  0.00  0.00    +0.100 C 
ATOM      2  C   UNL     1       0.756  -9.450   0.153  0.00  0.00    +0.121 C 
ATOM      3  N   UNL     1       1.224 -10.854   0.087  0.00  0.00    -0.297 N 
ATOM      4  C   UNL     1       1.791 -11.117   1.432  0.00  0.00    +0.115 C 
ATOM      5  C   UNL     1       2.520  -9.811   1.806  0.00  0.00    -0.004 C 
ATOM      6  C   UNL     1       2.349  -9.520   3.294  0.00  0.00    -0.010 C 
ATOM      7  C   UNL     1       3.080 -10.593   4.106  0.00  0.00    -0.082 C 
ATOM      8  N   UNL     1       4.503 -10.596   3.747  0.00  0.00    +0.379 N 
ATOM      9  C   UNL     1       4.663 -10.968   2.337  0.00  0.00    -0.082 C 
ATOM     10  C   UNL     1       4.000  -9.911   1.449  0.00  0.00    -0.010 C 
ATOM     11  C   UNL     1       1.151 -11.701  -0.959  0.00  0.00    +0.256 C 
ATOM     12  O   UNL     1       0.744 -11.307  -2.031  0.00  0.00    -0.272 OA
ATOM     13  H   UNL     1       4.889  -9.675   3.897  0.00  0.00    -0.086 HD
ATOM     14  H   UNL     1       4.993 -11.261   4.327  0.00  0.00    -0.086 HD
ENDROOT
BRANCH   1  16
ATOM     15  N   UNL     1       1.956  -6.653   2.331  0.00  0.00    -0.305 N 
ATOM     16  C   UNL     1       1.216  -7.679   1.865  0.00  0.00    +0.219 C 
ATOM     17  O   UNL     1       0.045  -7.769   2.169  0.00  0.00    -0.275 OA
ATOM     18  H   UNL     1       2.892  -6.581   2.088  0.00  0.00    +0.149 HD
BRANCH  15  19
ATOM     19  C   UNL     1       1.346  -5.647   3.204  0.00  0.00    +0.136 C 
ATOM     20  C   UNL     1       0.664  -4.576   2.350  0.00  0.00    +0.036 C 
BRANCH  19  29
ATOM     21  C   UNL     1       5.613  -2.235   8.257  0.00  0.00    +0.044 C 
ATOM     22  C   UNL     1       5.161  -2.962   7.017  0.00  0.00    -0.048 A 
ATOM     23  C   UNL     1       6.087  -3.298   6.039  0.00  0.00    +0.005 A 
ATOM     24  C   UNL     1       5.697  -3.957   4.908  0.00  0.00    +0.030 A 
ATOM     25  C   UNL     1       4.354  -4.299   4.729  0.00  0.00    +0.089 A 
ATOM     26  C   UNL     1       3.416  -3.959   5.719  0.00  0.00    +0.067 A 
ATOM     27  C   UNL     1       3.832  -3.294   6.864  0.00  0.00    +0.031 A 
ATOM     28  N   UNL     1       2.197  -4.421   5.264  0.00  0.00    -0.340 N 
ATOM     29  C   UNL     1       2.412  -5.008   4.056  0.00  0.00    +0.128 A 
ATOM     30  N   UNL     1       3.673  -4.936   3.742  0.00  0.00    -0.231 NA
ATOM     31  H   UNL     1       1.346  -4.342   5.721  0.00  0.00    +0.167 HD
ENDBRANCH  19  29
ENDBRANCH  15  19
ENDBRANCH   1  16
BRANCH  11  32
ATOM     32  C   UNL     1       1.576 -13.138  -0.796  0.00  0.00    +0.256 C 
ATOM     33  C   UNL     1       0.586 -13.861   0.119  0.00  0.00    +0.062 C 
BRANCH  32  34
ATOM     34  O   UNL     1       1.597 -13.776  -2.074  0.00  0.00    -0.480 OA
BRANCH  34  35
ATOM     35  C   UNL     1       2.416 -14.851  -2.213  0.00  0.00    +0.122 A 
ATOM     36  C   UNL     1       2.581 -15.442  -3.457  0.00  0.00    +0.045 A 
ATOM     37  C   UNL     1       3.415 -16.535  -3.596  0.00  0.00    +0.004 A 
ATOM     38  C   UNL     1       4.083 -17.041  -2.497  0.00  0.00    +0.000 A 
ATOM     39  C   UNL     1       3.920 -16.453  -1.255  0.00  0.00    +0.004 A 
ATOM     40  C   UNL     1       3.092 -15.357  -1.112  0.00  0.00    +0.045 A 
ENDBRANCH  34  35
ENDBRANCH  32  34
ENDBRANCH  11  32
TORSDOF 6
