REMARK  Name = ZINC38740789
REMARK  7 active torsions:
REMARK  status: ('A' for Active; 'I' for Inactive)
REMARK    1  A    between atoms: C_4  and  C_7
REMARK    2  A    between atoms: C_7  and  C_8
REMARK    3  A    between atoms: C_7  and  C_35
REMARK    4  A    between atoms: C_8  and  C_9
REMARK    5  A    between atoms: C_9  and  N_10
REMARK    6  A    between atoms: C_11  and  C_13
REMARK    7  A    between atoms: C_19  and  C_21
REMARK                            x       y       z     vdW  Elec       q    Type
REMARK                         _______ _______ _______ _____ _____    ______ ____
ROOT
ATOM      1  C   UNL     1       3.542  -2.592   5.719  0.00  0.00    +0.091 C 
ATOM      2  C   UNL     1       2.240  -3.382   5.571  0.00  0.00    +0.040 C 
ATOM      3  C   UNL     1       1.060  -2.468   5.724  0.00  0.00    -0.030 C 
ATOM      4  C   UNL     1       1.121  -1.288   6.254  0.00  0.00    -0.030 C 
ATOM      5  C   UNL     1       2.382  -0.666   6.780  0.00  0.00    +0.040 C 
ATOM      6  C   UNL     1       3.456  -1.741   6.992  0.00  0.00    +0.091 C 
ENDROOT
BRANCH   6   7
ATOM      7  C   UNL     1       4.789  -1.090   7.257  0.00  0.00    +0.220 C 
ATOM      8  O   UNL     1       5.002   0.038   6.865  0.00  0.00    -0.275 OA
ATOM      9  N   UNL     1       5.745  -1.761   7.929  0.00  0.00    -0.298 N 
ATOM     10  C   UNL     1       5.547  -3.168   8.305  0.00  0.00    +0.126 C 
ATOM     11  C   UNL     1       6.716  -3.992   7.751  0.00  0.00    +0.125 C 
ATOM     12  N   UNL     1       7.975  -3.330   8.121  0.00  0.00    -0.314 N 
ATOM     13  C   UNL     1       8.172  -1.924   7.745  0.00  0.00    +0.125 C 
ATOM     14  C   UNL     1       7.006  -1.101   8.295  0.00  0.00    +0.126 C 
ATOM     15  C   UNL     1       8.960  -4.023   8.815  0.00  0.00    +0.099 A 
ATOM     16  C   UNL     1       8.814  -5.388   9.042  0.00  0.00    +0.042 A 
ATOM     17  C   UNL     1       9.803  -6.064   9.734  0.00  0.00    +0.005 A 
ATOM     18  C   UNL     1      10.909  -5.350  10.176  0.00  0.00    +0.018 A 
ATOM     19  C   UNL     1      10.989  -3.997   9.915  0.00  0.00    +0.084 A 
ATOM     20  N   UNL     1      10.033  -3.379   9.248  0.00  0.00    -0.350 N 
ATOM     21  H   UNL     1      10.116  -2.428   9.075  0.00  0.00    +0.166 HD
ENDBRANCH   6   7
BRANCH   1  23
ATOM     22  N   UNL     1       4.971  -1.333   4.140  0.00  0.00    -0.315 N 
ATOM     23  C   UNL     1       3.730  -1.696   4.522  0.00  0.00    +0.217 C 
ATOM     24  O   UNL     1       2.765  -1.302   3.902  0.00  0.00    -0.275 OA
ATOM     25  H   UNL     1       5.742  -1.648   4.635  0.00  0.00    +0.149 HD
BRANCH  22  26
ATOM     26  C   UNL     1       5.153  -0.462   2.976  0.00  0.00    +0.105 C 
BRANCH  26  27
ATOM     27  C   UNL     1       6.646  -0.205   2.761  0.00  0.00    +0.031 C 
BRANCH  27  28
ATOM     28  C   UNL     1       6.837   0.705   1.545  0.00  0.00    +0.050 C 
BRANCH  28  32
ATOM     29  C   UNL     1       5.521  -1.325  -1.976  0.00  0.00    +0.000 A 
ATOM     30  C   UNL     1       5.031  -0.067  -1.679  0.00  0.00    +0.000 A 
ATOM     31  C   UNL     1       5.457   0.590  -0.540  0.00  0.00    +0.004 A 
ATOM     32  C   UNL     1       6.372  -0.011   0.304  0.00  0.00    -0.040 A 
ATOM     33  C   UNL     1       6.861  -1.270   0.008  0.00  0.00    +0.004 A 
ATOM     34  C   UNL     1       6.436  -1.926  -1.132  0.00  0.00    +0.000 A 
ENDBRANCH  28  32
BRANCH  28  35
ATOM     35  C   UNL     1       8.295   1.058   1.406  0.00  0.00    -0.040 A 
ATOM     36  C   UNL     1       9.250   0.058   1.395  0.00  0.00    +0.004 A 
ATOM     37  C   UNL     1      10.588   0.381   1.266  0.00  0.00    +0.000 A 
ATOM     38  C   UNL     1      10.971   1.704   1.149  0.00  0.00    +0.000 A 
ATOM     39  C   UNL     1      10.016   2.704   1.159  0.00  0.00    +0.000 A 
ATOM     40  C   UNL     1       8.678   2.380   1.283  0.00  0.00    +0.004 A 
ENDBRANCH  28  35
ENDBRANCH  27  28
ENDBRANCH  26  27
ENDBRANCH  22  26
ENDBRANCH   1  23
TORSDOF 7
