REMARK  Name = ZINC49948677
REMARK  5 active torsions:
REMARK  status: ('A' for Active; 'I' for Inactive)
REMARK    1  A    between atoms: C_1  and  O_2
REMARK    2  A    between atoms: O_2  and  C_3
REMARK    3  A    between atoms: C_8  and  N_10
REMARK    4  A    between atoms: N_10  and  C_11
REMARK    5  A    between atoms: C_11  and  C_12
REMARK                            x       y       z     vdW  Elec       q    Type
REMARK                         _______ _______ _______ _____ _____    ______ ____
ROOT
ATOM      1  C   UNL     1      -2.006  -3.256   2.586  0.00  0.00    -0.046 C 
ENDROOT
BRANCH   1   2
ATOM      2  C   UNL     1      -2.949  -3.274   3.762  0.00  0.00    -0.060 A 
ATOM      3  C   UNL     1      -2.535  -2.781   4.986  0.00  0.00    +0.051 A 
ATOM      4  C   UNL     1      -3.399  -2.796   6.070  0.00  0.00    +0.163 A 
ATOM      5  C   UNL     1      -4.684  -3.305   5.923  0.00  0.00    +0.176 A 
ATOM      6  C   UNL     1      -5.093  -3.800   4.693  0.00  0.00    +0.063 A 
ATOM      7  C   UNL     1      -4.227  -3.778   3.615  0.00  0.00    +0.021 A 
ATOM      8 BR   UNL     1      -6.839  -4.498   4.488  0.00  0.00    -0.046 Br
ATOM      9  O   UNL     1      -5.551  -3.322   6.972  0.00  0.00    -0.484 OA
ATOM     10  C   UNL     1      -4.985  -3.163   8.277  0.00  0.00    +0.270 C 
ATOM     11  C   UNL     1      -3.989  -1.996   8.230  0.00  0.00    +0.270 C 
ATOM     12  O   UNL     1      -2.976  -2.311   7.269  0.00  0.00    -0.485 OA
ENDBRANCH   1   2
BRANCH   1  13
ATOM     13  N   UNL     1      -2.157  -1.990   1.857  0.00  0.00    +0.385 N 
ATOM     14  H   UNL     1      -1.942  -1.220   2.473  0.00  0.00    -0.085 HD
ATOM     15  H   UNL     1      -3.107  -1.902   1.529  0.00  0.00    -0.085 HD
BRANCH  13  20
ATOM     16  C   UNL     1      -1.295  -0.603   0.011  0.00  0.00    +0.104 C 
ATOM     17  C   UNL     1      -1.767  -0.865  -1.434  0.00  0.00    +0.030 C 
ATOM     18  C   UNL     1      -1.383  -2.342  -1.697  0.00  0.00    +0.001 C 
ATOM     19  C   UNL     1      -1.677  -3.019  -0.335  0.00  0.00    -0.013 C 
ATOM     20  C   UNL     1      -1.239  -1.972   0.711  0.00  0.00    -0.042 C 
BRANCH  16  22
ATOM     21  C   UNL     1      -0.017   1.425   0.010  0.00  0.00    +0.194 C 
ATOM     22  O   UNL     1       0.002  -0.004   0.002  0.00  0.00    -0.381 OA
ENDBRANCH  16  22
ENDBRANCH  13  20
ENDBRANCH   1  13
TORSDOF 4
