REMARK  Name = ZINC53114988
REMARK  6 active torsions:
REMARK  status: ('A' for Active; 'I' for Inactive)
REMARK    1  A    between atoms: C_1  and  C_2
REMARK    2  A    between atoms: C_7  and  C_9
REMARK    3  A    between atoms: C_7  and  N_11
REMARK    4  A    between atoms: C_9  and  O_10
REMARK    5  A    between atoms: N_11  and  C_12
REMARK    6  A    between atoms: C_15  and  N_22
REMARK                            x       y       z     vdW  Elec       q    Type
REMARK                         _______ _______ _______ _____ _____    ______ ____
ROOT
ATOM      1  C   UNL     1       2.807  -2.194  -0.069  0.00  0.00    +0.037 A 
ATOM      2  C   UNL     1       3.506  -1.635   0.980  0.00  0.00    +0.025 A 
ATOM      3  C   UNL     1       4.867  -1.369   0.865  0.00  0.00    +0.027 A 
ATOM      4  C   UNL     1       5.549  -1.655  -0.297  0.00  0.00    +0.051 A 
ATOM      5  C   UNL     1       4.864  -2.227  -1.389  0.00  0.00    +0.093 A 
ATOM      6  C   UNL     1       3.480  -2.504  -1.268  0.00  0.00    +0.023 A 
ATOM      7  C   UNL     1       2.802  -3.079  -2.357  0.00  0.00    +0.013 A 
ATOM      8  C   UNL     1       3.515  -3.353  -3.490  0.00  0.00    +0.020 A 
ATOM      9  C   UNL     1       4.876  -3.061  -3.541  0.00  0.00    +0.111 A 
ATOM     10  N   UNL     1       5.503  -2.514  -2.527  0.00  0.00    -0.253 NA
ENDROOT
BRANCH   4  11
ATOM     11  N   UNL     1       6.917  -1.379  -0.393  0.00  0.00    -0.356 N 
ATOM     12  H   UNL     1       7.386  -0.985   0.359  0.00  0.00    +0.142 HD
ATOM     13  H   UNL     1       7.396  -1.581  -1.212  0.00  0.00    +0.142 HD
ENDBRANCH   4  11
BRANCH   1  14
ATOM     14  N   UNL     1       1.442  -2.457   0.059  0.00  0.00    -0.336 N 
ATOM     15  H   UNL     1       0.956  -2.866  -0.674  0.00  0.00    +0.147 HD
BRANCH  14  21
ATOM     16  C   UNL     1       0.384   1.664   0.660  0.00  0.00    +0.007 C 
ATOM     17  C   UNL     1       0.254   0.162   0.398  0.00  0.00    -0.012 C 
ATOM     18  C   UNL     1      -1.226  -0.207   0.268  0.00  0.00    +0.003 C 
ATOM     19  C   UNL     1      -1.356  -1.708   0.006  0.00  0.00    +0.002 C 
ATOM     20  C   UNL     1      -0.737  -2.485   1.171  0.00  0.00    +0.028 C 
ATOM     21  C   UNL     1       0.743  -2.116   1.300  0.00  0.00    +0.055 C 
ATOM     22  C   UNL     1       0.873  -0.614   1.562  0.00  0.00    +0.031 C 
BRANCH  21  23
ATOM     23  C   UNL     1       1.361  -2.892   2.464  0.00  0.00    +0.181 C 
BRANCH  23  24
ATOM     24  O   UNL     1       1.210  -4.294   2.236  0.00  0.00    -0.393 OA
ATOM     25  H   UNL     1       1.580  -4.849   2.936  0.00  0.00    +0.209 HD
ENDBRANCH  23  24
ENDBRANCH  21  23
ENDBRANCH  14  21
ENDBRANCH   1  14
TORSDOF 5
