REMARK  Name = ZINC08457853
REMARK  6 active torsions:
REMARK  status: ('A' for Active; 'I' for Inactive)
REMARK    1  A    between atoms: C_1  and  O_2
REMARK    2  A    between atoms: O_2  and  C_3
REMARK    3  A    between atoms: C_8  and  N_9
REMARK    4  A    between atoms: C_12  and  C_17
REMARK    5  A    between atoms: C_17  and  S_18
REMARK    6  A    between atoms: S_18  and  C_19
REMARK                            x       y       z     vdW  Elec       q    Type
REMARK                         _______ _______ _______ _____ _____    ______ ____
ROOT
ATOM      1  N   UNL     1       9.356   5.311   2.291  0.00  0.00    -0.281 N 
ATOM      2  C   UNL     1       8.654   5.313   1.102  0.00  0.00    +0.224 A 
ATOM      3  N   UNL     1       7.324   5.263   1.114  0.00  0.00    -0.198 NA
ATOM      4  C   UNL     1       6.651   5.260  -0.024  0.00  0.00    +0.146 A 
ATOM      5  N   UNL     1       7.295   5.315  -1.176  0.00  0.00    -0.199 NA
ATOM      6  C   UNL     1       8.624   5.370  -1.196  0.00  0.00    +0.217 A 
ATOM      7  N   UNL     1       9.305   5.369  -0.055  0.00  0.00    -0.181 NA
ATOM      8  N   UNL     1       9.296   5.428  -2.401  0.00  0.00    -0.327 N 
ATOM      9  H   UNL     1       8.826   5.161   3.243  0.00  0.00    +0.155 HD
ATOM     10  H   UNL     1      10.395   5.473  -2.416  0.00  0.00    +0.145 HD
ATOM     11  H   UNL     1       8.732   5.429  -3.345  0.00  0.00    +0.145 HD
ENDROOT
BRANCH   1  17
ATOM     12  C   UNL     1      11.530   4.941   3.291  0.00  0.00    +0.141 A 
ATOM     13  C   UNL     1      12.902   5.130   3.279  0.00  0.00    +0.047 A 
ATOM     14  C   UNL     1      13.489   5.872   2.271  0.00  0.00    +0.004 A 
ATOM     15  C   UNL     1      12.710   6.426   1.272  0.00  0.00    +0.002 A 
ATOM     16  C   UNL     1      11.341   6.238   1.273  0.00  0.00    +0.027 A 
ATOM     17  C   UNL     1      10.744   5.499   2.285  0.00  0.00    +0.076 A 
BRANCH  12  19
ATOM     18  C   UNL     1      11.818   3.668   5.279  0.00  0.00    +0.277 C 
ATOM     19  O   UNL     1      10.951   4.211   4.281  0.00  0.00    -0.493 OA
ENDBRANCH  12  19
ENDBRANCH   1  17
BRANCH   4  20
ATOM     20  C   UNL     1       5.145   5.198  -0.006  0.00  0.00    +0.153 C 
BRANCH  20  21
ATOM     21  S   UNL     1       4.611   3.469  -0.043  0.00  0.00    -0.080 S 
BRANCH  21  22
ATOM     22  C   UNL     1       2.863   3.688  -0.015  0.00  0.00    +0.168 A 
ATOM     23  N   UNL     1       1.945   2.676  -0.028  0.00  0.00    -0.333 N 
ATOM     24  H   UNL     1       2.281   1.629  -0.059  0.00  0.00    +0.168 HD
ATOM     25  C   UNL     1       0.689   3.261   0.002  0.00  0.00    +0.067 A 
ATOM     26  C   UNL     1      -0.604   2.761   0.007  0.00  0.00    +0.028 A 
ATOM     27  C   UNL     1      -1.676   3.630   0.037  0.00  0.00    +0.002 A 
ATOM     28  C   UNL     1      -1.468   5.000   0.074  0.00  0.00    +0.002 A 
ATOM     29  C   UNL     1      -0.191   5.514   0.071  0.00  0.00    +0.030 A 
ATOM     30  C   UNL     1       0.905   4.649   0.035  0.00  0.00    +0.090 A 
ATOM     31  N   UNL     1       2.249   4.845   0.022  0.00  0.00    -0.222 NA
ENDBRANCH  21  22
ENDBRANCH  20  21
ENDBRANCH   4  20
TORSDOF 5
