REMARK  Name = ZINC34749410
REMARK  7 active torsions:
REMARK  status: ('A' for Active; 'I' for Inactive)
REMARK    1  A    between atoms: C_1  and  C_2
REMARK    2  A    between atoms: C_2  and  C_3
REMARK    3  A    between atoms: C_4  and  C_36
REMARK    4  A    between atoms: N_10  and  C_27
REMARK    5  A    between atoms: N_16  and  C_19
REMARK    6  A    between atoms: C_19  and  C_20
REMARK    7  A    between atoms: C_27  and  C_28
REMARK                            x       y       z     vdW  Elec       q    Type
REMARK                         _______ _______ _______ _____ _____    ______ ____
ROOT
ATOM      1  C   UNL     1      -1.472  -0.472   0.038  0.00  0.00    -0.023 A 
ATOM      2  C   UNL     1      -2.146  -0.636   1.187  0.00  0.00    -0.007 A 
ATOM      3  S   UNL     1      -3.750  -1.197   0.650  0.00  0.00    -0.073 S 
ATOM      4  C   UNL     1      -3.470  -1.195  -1.103  0.00  0.00    +0.117 A 
ATOM      5  C   UNL     1      -2.140  -0.752  -1.221  0.00  0.00    +0.076 A 
ATOM      6  C   UNL     1      -1.636  -0.648  -2.556  0.00  0.00    +0.264 A 
ATOM      7  O   UNL     1      -0.492  -0.277  -2.757  0.00  0.00    -0.267 OA
ATOM      8  N   UNL     1      -2.441  -0.964  -3.587  0.00  0.00    -0.271 N 
ATOM      9  C   UNL     1      -3.723  -1.380  -3.382  0.00  0.00    +0.202 A 
ATOM     10  N   UNL     1      -4.210  -1.495  -2.164  0.00  0.00    -0.208 NA
ATOM     11  N   UNL     1      -4.514  -1.693  -4.459  0.00  0.00    -0.304 N 
ATOM     12  C   UNL     1      -5.334  -0.665  -5.119  0.00  0.00    +0.089 C 
ATOM     13  C   UNL     1      -6.767  -1.195  -5.245  0.00  0.00    -0.059 C 
ATOM     14  N   UNL     1      -6.750  -2.491  -5.933  0.00  0.00    +0.387 N 
ATOM     15  C   UNL     1      -6.033  -3.481  -5.119  0.00  0.00    -0.059 C 
ATOM     16  C   UNL     1      -4.560  -3.064  -4.991  0.00  0.00    +0.089 C 
ATOM     17  C   UNL     1      -1.661  -0.403   2.595  0.00  0.00    +0.052 C 
ATOM     18  H   UNL     1      -6.287  -2.392  -6.824  0.00  0.00    -0.081 HD
ENDROOT
BRANCH   1  20
ATOM     19  C   UNL     1      -0.013   1.532  -0.004  0.00  0.00    +0.009 C 
ATOM     20  C   UNL     1      -0.043   0.004   0.054  0.00  0.00    +0.033 C 
ENDBRANCH   1  20
BRANCH  14  21
ATOM     21  C   UNL     1      -8.130  -2.946  -6.151  0.00  0.00    +0.019 C 
BRANCH  21  22
ATOM     22  C   UNL     1      -8.118  -4.215  -6.965  0.00  0.00    +0.199 C 
ATOM     23  O   UNL     1      -7.064  -4.692  -7.328  0.00  0.00    -0.278 OA
ATOM     24  N   UNL     1      -9.279  -4.818  -7.290  0.00  0.00    -0.303 N 
ATOM     25  C   UNL     1     -10.622  -4.345  -6.923  0.00  0.00    +0.108 C 
ATOM     26  C   UNL     1     -11.635  -5.363  -7.487  0.00  0.00    +0.020 C 
ATOM     27  C   UNL     1     -10.782  -6.648  -7.652  0.00  0.00    +0.020 C 
ATOM     28  C   UNL     1      -9.412  -6.057  -8.077  0.00  0.00    +0.108 C 
ENDBRANCH  21  22
ENDBRANCH  14  21
BRANCH   8  29
ATOM     29  C   UNL     1      -1.930  -0.858  -4.956  0.00  0.00    +0.224 C 
BRANCH  29  30
ATOM     30  C   UNL     1      -1.226  -2.137  -5.329  0.00  0.00    +0.236 C 
ATOM     31  O   UNL     1      -1.157  -3.047  -4.530  0.00  0.00    -0.274 OA
ATOM     32  N   UNL     1      -0.672  -2.270  -6.551  0.00  0.00    -0.300 N 
ATOM     33  C   UNL     1      -0.742  -1.175  -7.527  0.00  0.00    +0.108 C 
ATOM     34  C   UNL     1       0.676  -0.857  -8.013  0.00  0.00    +0.019 C 
ATOM     35  C   UNL     1       1.326  -2.135  -8.548  0.00  0.00    +0.003 C 
ATOM     36  C   UNL     1       1.422  -3.169  -7.424  0.00  0.00    +0.019 C 
ATOM     37  C   UNL     1       0.018  -3.511  -6.929  0.00  0.00    +0.108 C 
ENDBRANCH  29  30
ENDBRANCH   8  29
TORSDOF 5
