REMARK  Name = ZINC61785031
REMARK  5 active torsions:
REMARK  status: ('A' for Active; 'I' for Inactive)
REMARK    1  A    between atoms: C_6  and  N_7
REMARK    2  A    between atoms: C_8  and  C_10
REMARK    3  A    between atoms: N_12  and  C_13
REMARK    4  A    between atoms: C_13  and  C_14
REMARK    5  A    between atoms: C_14  and  C_15
REMARK                            x       y       z     vdW  Elec       q    Type
REMARK                         _______ _______ _______ _____ _____    ______ ____
ROOT
ATOM      1  C   UNL     1      -3.646  -0.839   0.248  0.00  0.00    +0.299 C 
ATOM      2  O   UNL     1      -3.625  -2.052   0.241  0.00  0.00    -0.265 OA
ATOM      3  N   UNL     1      -4.820  -0.186   0.365  0.00  0.00    -0.308 N 
ATOM      4  H   UNL     1      -4.837   0.784   0.370  0.00  0.00    +0.149 HD
ENDROOT
BRANCH   1   6
ATOM      5  N   UNL     1      -1.199  -0.721   0.010  0.00  0.00    -0.275 N 
ATOM      6  C   UNL     1      -2.373  -0.069   0.127  0.00  0.00    +0.303 C 
ATOM      7  O   UNL     1      -2.394   1.145   0.134  0.00  0.00    -0.265 OA
ATOM      8  H   UNL     1      -1.188  -1.687  -0.076  0.00  0.00    +0.155 HD
BRANCH   5  14
ATOM      9  C   UNL     1       0.070   1.238   0.627  0.00  0.00    +0.029 A 
ATOM     10  C   UNL     1       1.257   1.945   0.630  0.00  0.00    +0.043 A 
ATOM     11  C   UNL     1       2.382   1.415   0.022  0.00  0.00    +0.161 A 
ATOM     12  C   UNL     1       2.320   0.173  -0.593  0.00  0.00    +0.195 A 
ATOM     13  C   UNL     1       1.133  -0.538  -0.599  0.00  0.00    +0.182 A 
ATOM     14  C   UNL     1       0.003  -0.005   0.013  0.00  0.00    +0.072 A 
ATOM     15  F   UNL     1       1.071  -1.748  -1.197  0.00  0.00    -0.200 F 
ATOM     16  F   UNL     1       3.419  -0.342  -1.187  0.00  0.00    -0.199 F 
ATOM     17  F   UNL     1       3.541   2.108   0.026  0.00  0.00    -0.202 F 
ENDBRANCH   5  14
ENDBRANCH   1   6
BRANCH   3  18
ATOM     18  C   UNL     1      -6.069  -0.942   0.484  0.00  0.00    +0.105 C 
BRANCH  18  19
ATOM     19  C   UNL     1      -7.244   0.032   0.602  0.00  0.00    +0.025 C 
BRANCH  19  20
ATOM     20  C   UNL     1      -8.549  -0.757   0.726  0.00  0.00    -0.027 C 
ATOM     21  C   UNL     1      -8.736  -1.633  -0.514  0.00  0.00    +0.010 C 
ATOM     22  C   UNL     1     -10.041  -2.422  -0.390  0.00  0.00    -0.010 C 
ATOM     23  C   UNL     1     -11.215  -1.450  -0.272  0.00  0.00    +0.007 C 
ATOM     24  C   UNL     1     -11.029  -0.574   0.968  0.00  0.00    -0.010 C 
ATOM     25  C   UNL     1      -9.724   0.215   0.844  0.00  0.00    +0.010 C 
ATOM     26  C   UNL     1     -10.973  -1.459   2.215  0.00  0.00    +0.007 C 
ATOM     27  C   UNL     1      -9.798  -2.432   2.096  0.00  0.00    -0.010 C 
ATOM     28  C   UNL     1      -9.985  -3.308   0.856  0.00  0.00    +0.007 C 
ATOM     29  C   UNL     1      -8.493  -1.643   1.972  0.00  0.00    +0.010 C 
ENDBRANCH  19  20
ENDBRANCH  18  19
ENDBRANCH   3  18
TORSDOF 5
