REMARK  Name = ZINC64164650
REMARK  9 active torsions:
REMARK  status: ('A' for Active; 'I' for Inactive)
REMARK    1  A    between atoms: C_1  and  C_2
REMARK    2  A    between atoms: C_6  and  C_12
REMARK    3  A    between atoms: C_7  and  C_11
REMARK    4  A    between atoms: C_13  and  O_15
REMARK    5  A    between atoms: O_15  and  C_16
REMARK    6  A    between atoms: C_16  and  C_17
REMARK    7  A    between atoms: N_19  and  C_20
REMARK    8  A    between atoms: C_20  and  C_21
REMARK    9  A    between atoms: C_21  and  C_22
REMARK                            x       y       z     vdW  Elec       q    Type
REMARK                         _______ _______ _______ _____ _____    ______ ____
ROOT
ATOM      1  C   UNL     1       0.035  -1.976   3.584  0.00  0.00    +0.324 C 
ENDROOT
BRANCH   1   2
ATOM      2  C   UNL     1       0.053  -2.892   4.781  0.00  0.00    +0.251 C 
ATOM      3  O   UNL     1       0.071  -4.094   4.623  0.00  0.00    -0.272 OA
ATOM      4  N   UNL     1       0.048  -2.375   6.025  0.00  0.00    -0.312 N 
ATOM      5  H   UNL     1       0.033  -1.413   6.151  0.00  0.00    +0.149 HD
BRANCH   4   6
ATOM      6  C   UNL     1       0.066  -3.265   7.188  0.00  0.00    +0.108 C 
BRANCH   6   7
ATOM      7  C   UNL     1       0.056  -2.430   8.470  0.00  0.00    +0.052 C 
BRANCH   7   8
ATOM      8  C   UNL     1       0.074  -3.347   9.667  0.00  0.00    -0.040 C 
ATOM      9  C   UNL     1       1.159  -3.745  10.370  0.00  0.00    -0.001 A 
ATOM     10  C   UNL     1       2.592  -3.456  10.235  0.00  0.00    +0.010 A 
ATOM     11  C   UNL     1       3.459  -4.016  11.110  0.00  0.00    +0.001 A 
ATOM     12  C   UNL     1       3.024  -4.862  12.139  0.00  0.00    +0.002 A 
ATOM     13  C   UNL     1       1.724  -5.174  12.326  0.00  0.00    +0.026 A 
ATOM     14  C   UNL     1       0.726  -4.642  11.465  0.00  0.00    +0.043 A 
ATOM     15  N   UNL     1      -0.577  -4.792  11.440  0.00  0.00    -0.380 N 
ATOM     16  C   UNL     1      -1.117  -4.002  10.329  0.00  0.00    +0.144 C 
ATOM     17  H   UNL     1      -1.096  -5.332  12.056  0.00  0.00    +0.160 HD
ENDBRANCH   7   8
ENDBRANCH   6   7
ENDBRANCH   4   6
ENDBRANCH   1   2
BRANCH   1  18
ATOM     18  O   UNL     1       0.043  -2.755   2.387  0.00  0.00    -0.482 OA
BRANCH  18  31
ATOM     19  C   UNL     1      -0.031   1.503   0.010  0.00  0.00    +0.044 C 
ATOM     20  C   UNL     1      -0.007  -0.004   0.002  0.00  0.00    -0.043 A 
ATOM     21  C   UNL     1      -0.001  -0.680  -1.202  0.00  0.00    +0.050 A 
ATOM     22  C   UNL     1       0.021  -2.067  -1.222  0.00  0.00    +0.143 A 
ATOM     23  C   UNL     1       0.036  -2.776  -0.007  0.00  0.00    +0.062 A 
ATOM     24  C   UNL     1       0.059  -4.239  -0.039  0.00  0.00    -0.027 A 
ATOM     25  C   UNL     1       0.065  -4.855  -1.250  0.00  0.00    +0.038 A 
ATOM     26  C   UNL     1       0.049  -4.082  -2.429  0.00  0.00    +0.340 A 
ATOM     27  O   UNL     1       0.053  -4.646  -3.509  0.00  0.00    -0.245 OA
ATOM     28  O   UNL     1       0.027  -2.740  -2.392  0.00  0.00    -0.422 OA
ATOM     29  C   UNL     1       0.089  -6.359  -1.333  0.00  0.00    +0.051 C 
ATOM     30  C   UNL     1       0.077  -5.041   1.237  0.00  0.00    +0.045 C 
ATOM     31  C   UNL     1       0.029  -2.079   1.211  0.00  0.00    +0.132 A 
ATOM     32  C   UNL     1       0.013  -0.695   1.202  0.00  0.00    +0.050 A 
ENDBRANCH  18  31
ENDBRANCH   1  18
TORSDOF 6
