REMARK  Name = ZINC64152369
REMARK  9 active torsions:
REMARK  status: ('A' for Active; 'I' for Inactive)
REMARK    1  A    between atoms: C_1  and  C_2
REMARK    2  A    between atoms: C_2  and  C_3
REMARK    3  A    between atoms: C_3  and  C_5
REMARK    4  A    between atoms: C_3  and  C_6
REMARK    5  A    between atoms: N_8  and  C_9
REMARK    6  A    between atoms: C_9  and  C_10
REMARK    7  A    between atoms: C_22  and  C_24
REMARK    8  A    between atoms: C_24  and  C_25
REMARK    9  A    between atoms: C_25  and  C_26
REMARK                            x       y       z     vdW  Elec       q    Type
REMARK                         _______ _______ _______ _____ _____    ______ ____
ROOT
ATOM      1  C   UNL     1       1.898  -4.654   3.605  0.00  0.00    +0.157 C 
ATOM      2  N   UNL     1       3.306  -4.208   3.570  0.00  0.00    -0.237 NA
ATOM      3  N   UNL     1       3.514  -3.365   4.750  0.00  0.00    -0.238 NA
ATOM      4  C   UNL     1       2.466  -3.788   5.707  0.00  0.00    +0.141 C 
ATOM      5  N   UNL     1       1.297  -4.075   4.823  0.00  0.00    -0.267 NA
ATOM      6  C   UNL     1       0.433  -5.046   5.506  0.00  0.00    +0.106 C 
ATOM      7  C   UNL     1      -0.750  -4.334   6.133  0.00  0.00    +0.123 C 
ATOM      8  N   UNL     1      -0.344  -3.059   6.755  0.00  0.00    -0.300 N 
ATOM      9  C   UNL     1       0.897  -2.983   7.517  0.00  0.00    +0.110 C 
ATOM     10  C   UNL     1       2.110  -2.657   6.646  0.00  0.00    +0.055 C 
ATOM     11  C   UNL     1      -1.119  -1.965   6.618  0.00  0.00    +0.216 C 
ATOM     12  O   UNL     1      -0.784  -0.917   7.129  0.00  0.00    -0.276 OA
ATOM     13  H   UNL     1       3.503  -3.699   2.722  0.00  0.00    +0.142 HD
ATOM     14  H   UNL     1       3.419  -2.388   4.518  0.00  0.00    +0.142 HD
ENDROOT
BRANCH   1  15
ATOM     15  C   UNL     1       1.158  -4.147   2.365  0.00  0.00    +0.140 C 
BRANCH  15  18
ATOM     16  C   UNL     1       0.657  -2.014   1.298  0.00  0.00    +0.216 C 
ATOM     17  O   UNL     1       0.062  -2.621   0.432  0.00  0.00    -0.276 OA
ATOM     18  N   UNL     1       1.241  -2.685   2.311  0.00  0.00    -0.312 N 
ATOM     19  H   UNL     1       1.716  -2.200   3.003  0.00  0.00    +0.149 HD
BRANCH  16  20
ATOM     20  C   UNL     1       0.742  -0.511   1.242  0.00  0.00    +0.072 C 
ATOM     21  C   UNL     1       2.210  -0.086   1.169  0.00  0.00    +0.017 C 
BRANCH  20  23
ATOM     22  C   UNL     1      -0.019   1.526   0.010  0.00  0.00    +0.004 C 
ATOM     23  C   UNL     1       0.002  -0.004   0.002  0.00  0.00    +0.009 C 
ENDBRANCH  20  23
ENDBRANCH  16  20
ENDBRANCH  15  18
ENDBRANCH   1  15
BRANCH  11  24
ATOM     24  C   UNL     1      -2.401  -2.043   5.830  0.00  0.00    +0.100 C 
BRANCH  24  25
ATOM     25  C   UNL     1      -3.084  -0.674   5.830  0.00  0.00    +0.042 C 
BRANCH  25  26
ATOM     26  C   UNL     1      -4.366  -0.753   5.042  0.00  0.00    -0.041 C 
ATOM     27  C   UNL     1      -5.609  -0.965   5.531  0.00  0.00    -0.001 A 
ATOM     28  C   UNL     1      -6.120  -1.180   6.891  0.00  0.00    +0.010 A 
ATOM     29  C   UNL     1      -7.447  -1.370   7.070  0.00  0.00    +0.001 A 
ATOM     30  C   UNL     1      -8.344  -1.368   5.994  0.00  0.00    +0.002 A 
ATOM     31  C   UNL     1      -7.951  -1.177   4.716  0.00  0.00    +0.026 A 
ATOM     32  C   UNL     1      -6.578  -0.967   4.411  0.00  0.00    +0.043 A 
ATOM     33  N   UNL     1      -5.957  -0.764   3.275  0.00  0.00    -0.380 N 
ATOM     34  C   UNL     1      -4.524  -0.604   3.546  0.00  0.00    +0.144 C 
ATOM     35  H   UNL     1      -6.376  -0.722   2.401  0.00  0.00    +0.160 HD
ENDBRANCH  25  26
ENDBRANCH  24  25
ENDBRANCH  11  24
TORSDOF 7
