REMARK  Name = ZINC27567288
REMARK  10 active torsions:
REMARK  status: ('A' for Active; 'I' for Inactive)
REMARK    1  A    between atoms: C_1  and  C_2
REMARK    2  A    between atoms: C_3  and  C_27
REMARK    3  A    between atoms: N_9  and  C_26
REMARK    4  A    between atoms: C_10  and  S_12
REMARK    5  A    between atoms: S_12  and  C_13
REMARK    6  A    between atoms: C_13  and  C_14
REMARK    7  A    between atoms: C_14  and  O_15
REMARK    8  A    between atoms: O_15  and  C_16
REMARK    9  A    between atoms: C_19  and  S_22
REMARK   10  A    between atoms: S_22  and  N_25
REMARK                            x       y       z     vdW  Elec       q    Type
REMARK                         _______ _______ _______ _____ _____    ______ ____
ROOT
ATOM      1  C   UNL     1      -3.671   4.574   6.543  0.00  0.00    +0.118 C 
ENDROOT
BRANCH   1   2
ATOM      2  S   UNL     1      -3.338   6.223   7.210  0.00  0.00    -0.084 S 
BRANCH   2  12
ATOM      3  C   UNL     1      -7.406   7.141  12.784  0.00  0.00    +0.045 C 
ATOM      4  C   UNL     1      -7.159   6.051  11.774  0.00  0.00    -0.026 A 
ATOM      5  C   UNL     1      -7.834   4.894  11.845  0.00  0.00    -0.008 A 
ATOM      6  S   UNL     1      -7.202   3.961  10.464  0.00  0.00    -0.073 S 
ATOM      7  C   UNL     1      -6.050   5.152   9.830  0.00  0.00    +0.117 A 
ATOM      8  C   UNL     1      -6.188   6.242  10.710  0.00  0.00    +0.075 A 
ATOM      9  C   UNL     1      -5.359   7.374  10.433  0.00  0.00    +0.263 A 
ATOM     10  O   UNL     1      -5.410   8.365  11.141  0.00  0.00    -0.267 OA
ATOM     11  N   UNL     1      -4.521   7.331   9.381  0.00  0.00    -0.290 N 
ATOM     12  C   UNL     1      -4.450   6.231   8.577  0.00  0.00    +0.173 A 
ATOM     13  N   UNL     1      -5.206   5.176   8.806  0.00  0.00    -0.216 NA
ATOM     14  C   UNL     1      -3.669   8.488   9.093  0.00  0.00    +0.154 C 
ATOM     15  C   UNL     1      -8.876   4.482  12.852  0.00  0.00    +0.052 C 
ENDBRANCH   2  12
ENDBRANCH   1   2
BRANCH   1  16
ATOM     16  C   UNL     1      -2.793   4.334   5.313  0.00  0.00    +0.240 C 
BRANCH  16  17
ATOM     17  O   UNL     1      -3.057   3.032   4.786  0.00  0.00    -0.491 OA
BRANCH  17  18
ATOM     18  C   UNL     1      -2.355   2.659   3.684  0.00  0.00    +0.121 A 
ATOM     19  C   UNL     1      -2.560   1.409   3.120  0.00  0.00    +0.047 A 
ATOM     20  C   UNL     1      -1.846   1.032   1.999  0.00  0.00    +0.032 A 
ATOM     21  C   UNL     1      -0.927   1.900   1.439  0.00  0.00    +0.105 A 
ATOM     22  C   UNL     1      -0.716   3.145   2.003  0.00  0.00    +0.032 A 
ATOM     23  C   UNL     1      -1.432   3.529   3.120  0.00  0.00    +0.047 A 
BRANCH  21  24
ATOM     24  S   UNL     1      -0.017   1.417   0.010  0.00  0.00    +0.056 S 
ATOM     25  O   UNL     1       0.002  -0.004   0.002  0.00  0.00    -0.153 OA
ATOM     26  O   UNL     1       1.172   2.195   0.003  0.00  0.00    -0.153 OA
BRANCH  24  27
ATOM     27  N   UNL     1      -0.897   1.885  -1.312  0.00  0.00    -0.204 NA
ATOM     28  H   UNL     1      -0.361   1.601  -2.229  0.00  0.00    +0.144 HD
ATOM     29  H   UNL     1      -1.036   2.977  -1.292  0.00  0.00    +0.144 HD
ENDBRANCH  24  27
ENDBRANCH  21  24
ENDBRANCH  17  18
ENDBRANCH  16  17
ENDBRANCH   1  16
TORSDOF 7
