REMARK  Name = ZINC39664014
REMARK  10 active torsions:
REMARK  status: ('A' for Active; 'I' for Inactive)
REMARK    1  A    between atoms: C_1  and  O_2
REMARK    2  A    between atoms: O_2  and  C_3
REMARK    3  A    between atoms: C_6  and  C_9
REMARK    4  A    between atoms: C_9  and  C_11
REMARK    5  A    between atoms: C_9  and  N_36
REMARK    6  A    between atoms: C_11  and  N_12
REMARK    7  A    between atoms: C_13  and  C_15
REMARK    8  A    between atoms: C_26  and  C_28
REMARK    9  A    between atoms: C_32  and  O_34
REMARK   10  A    between atoms: O_34  and  C_35
REMARK                            x       y       z     vdW  Elec       q    Type
REMARK                         _______ _______ _______ _____ _____    ______ ____
ROOT
ATOM      1  C   UNL     1     -10.849  -8.667   2.456  0.00  0.00    +0.100 C 
ATOM      2  C   UNL     1      -9.509  -9.419   2.290  0.00  0.00    +0.121 C 
ATOM      3  N   UNL     1      -8.602  -8.789   3.279  0.00  0.00    -0.296 N 
ATOM      4  C   UNL     1      -9.457  -8.555   4.467  0.00  0.00    +0.115 C 
ATOM      5  C   UNL     1     -10.812  -8.105   3.887  0.00  0.00    -0.004 C 
ATOM      6  C   UNL     1     -10.892  -6.582   3.858  0.00  0.00    -0.010 C 
ATOM      7  C   UNL     1     -10.911  -6.049   5.294  0.00  0.00    -0.082 C 
ATOM      8  N   UNL     1     -12.066  -6.607   6.009  0.00  0.00    +0.379 N 
ATOM      9  C   UNL     1     -11.934  -8.065   6.113  0.00  0.00    -0.082 C 
ATOM     10  C   UNL     1     -11.958  -8.683   4.712  0.00  0.00    -0.010 C 
ATOM     11  C   UNL     1      -7.295  -8.495   3.130  0.00  0.00    +0.247 C 
ATOM     12  O   UNL     1      -6.657  -8.070   4.073  0.00  0.00    -0.270 OA
ATOM     13  H   UNL     1     -12.111  -6.208   6.935  0.00  0.00    -0.086 HD
ATOM     14  H   UNL     1     -12.911  -6.382   5.507  0.00  0.00    -0.086 HD
ENDROOT
BRANCH  11  15
ATOM     15  C   UNL     1      -6.637  -8.691   1.821  0.00  0.00    +0.040 A 
ATOM     16  C   UNL     1      -6.873  -7.794   0.777  0.00  0.00    +0.013 A 
ATOM     17  C   UNL     1      -6.258  -7.979  -0.444  0.00  0.00    +0.004 A 
ATOM     18  C   UNL     1      -5.407  -9.052  -0.638  0.00  0.00    +0.045 A 
ATOM     19  C   UNL     1      -5.166  -9.949   0.393  0.00  0.00    +0.121 A 
ATOM     20  C   UNL     1      -5.774  -9.769   1.625  0.00  0.00    +0.058 A 
BRANCH  19  21
ATOM     21  O   UNL     1      -4.330 -11.002   0.196  0.00  0.00    -0.495 OA
ATOM     22  C   UNL     1      -3.733 -11.123  -1.097  0.00  0.00    +0.277 C 
ENDBRANCH  19  21
ENDBRANCH  11  15
BRANCH   1  24
ATOM     23  N   UNL     1     -12.158  -7.090   1.071  0.00  0.00    -0.316 N 
ATOM     24  C   UNL     1     -10.949  -7.546   1.454  0.00  0.00    +0.218 C 
ATOM     25  O   UNL     1      -9.941  -7.053   0.993  0.00  0.00    -0.275 OA
ATOM     26  H   UNL     1     -12.963  -7.535   1.378  0.00  0.00    +0.149 HD
BRANCH  23  27
ATOM     27  C   UNL     1     -12.256  -5.924   0.189  0.00  0.00    +0.093 C 
BRANCH  27  28
ATOM     28  C   UNL     1     -13.726  -5.541   0.012  0.00  0.00    -0.020 C 
BRANCH  28  32
ATOM     29  C   UNL     1     -15.229  -3.926   3.673  0.00  0.00    +0.120 A 
ATOM     30  C   UNL     1     -15.495  -5.245   3.334  0.00  0.00    +0.046 A 
ATOM     31  C   UNL     1     -15.008  -5.764   2.150  0.00  0.00    +0.005 A 
ATOM     32  C   UNL     1     -14.256  -4.971   1.303  0.00  0.00    -0.059 A 
ATOM     33  C   UNL     1     -13.989  -3.657   1.639  0.00  0.00    +0.005 A 
ATOM     34  C   UNL     1     -14.478  -3.131   2.819  0.00  0.00    +0.046 A 
BRANCH  29  36
ATOM     35  C   UNL     1     -16.471  -4.290   5.667  0.00  0.00    +0.277 C 
ATOM     36  O   UNL     1     -15.706  -3.413   4.837  0.00  0.00    -0.495 OA
ENDBRANCH  29  36
ENDBRANCH  28  32
BRANCH  28  37
ATOM     37  N   UNL     1     -13.845  -4.535  -1.052  0.00  0.00    +0.385 N 
ATOM     38  C   UNL     1     -13.421  -5.113  -2.353  0.00  0.00    -0.078 C 
ATOM     39  C   UNL     1     -14.112  -4.194  -3.391  0.00  0.00    -0.020 C 
ATOM     40  C   UNL     1     -15.477  -3.891  -2.731  0.00  0.00    -0.020 C 
ATOM     41  C   UNL     1     -15.261  -4.143  -1.227  0.00  0.00    -0.078 C 
ATOM     42  H   UNL     1     -13.285  -3.726  -0.831  0.00  0.00    -0.081 HD
ENDBRANCH  28  37
ENDBRANCH  27  28
ENDBRANCH  23  27
ENDBRANCH   1  24
TORSDOF 8
