REMARK  Name = ZINC24228462
REMARK  13 active torsions:
REMARK  status: ('A' for Active; 'I' for Inactive)
REMARK    1  A    between atoms: C_1  and  C_2
REMARK    2  A    between atoms: C_5  and  C_33
REMARK    3  A    between atoms: C_6  and  N_8
REMARK    4  A    between atoms: C_9  and  C_11
REMARK    5  A    between atoms: C_11  and  C_13
REMARK    6  A    between atoms: C_11  and  S_14
REMARK    7  A    between atoms: S_14  and  C_15
REMARK    8  A    between atoms: C_18  and  C_27
REMARK    9  A    between atoms: N_19  and  C_20
REMARK   10  A    between atoms: C_27  and  C_29
REMARK   11  A    between atoms: C_27  and  N_30
REMARK   12  A    between atoms: N_30  and  C_31
REMARK   13  A    between atoms: N_30  and  C_32
REMARK                            x       y       z     vdW  Elec       q    Type
REMARK                         _______ _______ _______ _____ _____    ______ ____
ROOT
ATOM      1  C   UNL     1       0.965   0.198  -7.488  0.00  0.00    +0.197 A 
ATOM      2  N   UNL     1       0.618   1.463  -7.455  0.00  0.00    -0.122 NA
ATOM      3  N   UNL     1       0.849   2.010  -8.595  0.00  0.00    -0.135 NA
ATOM      4  C   UNL     1       1.344   1.133  -9.421  0.00  0.00    +0.125 A 
ATOM      5  N   UNL     1       1.436  -0.055  -8.747  0.00  0.00    -0.275 N 
ENDROOT
BRANCH   5   6
ATOM      6  C   UNL     1       1.915  -1.277  -9.243  0.00  0.00    +0.050 A 
ATOM      7  C   UNL     1       3.245  -1.400  -9.621  0.00  0.00    +0.028 A 
ATOM      8  C   UNL     1       3.715  -2.606 -10.105  0.00  0.00    +0.022 A 
ATOM      9  C   UNL     1       2.859  -3.686 -10.223  0.00  0.00    +0.041 A 
ATOM     10  C   UNL     1       1.531  -3.564  -9.852  0.00  0.00    +0.022 A 
ATOM     11  C   UNL     1       1.058  -2.362  -9.363  0.00  0.00    +0.028 A 
ATOM     12 CL   UNL     1       3.451  -5.198 -10.838  0.00  0.00    -0.084 Cl
ENDBRANCH   5   6
BRANCH   4  13
ATOM     13  C   UNL     1       1.742   1.381 -10.854  0.00  0.00    -0.003 C 
ATOM     14  C   UNL     1       0.486   1.486 -11.721  0.00  0.00    -0.005 C 
BRANCH  13  15
ATOM     15  N   UNL     1       2.503   2.634 -10.941  0.00  0.00    +0.382 N 
ATOM     16  C   UNL     1       3.010   2.849 -12.303  0.00  0.00    -0.096 C 
ATOM     17  C   UNL     1       1.692   3.775 -10.495  0.00  0.00    -0.096 C 
ATOM     18  H   UNL     1       3.369   2.551 -10.267  0.00  0.00    -0.082 HD
ENDBRANCH  13  15
ENDBRANCH   4  13
BRANCH   1  19
ATOM     19  S   UNL     1       0.839  -0.958  -6.164  0.00  0.00    -0.073 S 
BRANCH  19  20
ATOM     20  C   UNL     1       0.146   0.110  -4.878  0.00  0.00    +0.137 C 
ATOM     21  C   UNL     1      -1.254   0.566  -5.294  0.00  0.00    +0.029 C 
BRANCH  20  23
ATOM     22  N   UNL     1      -0.033   0.011  -2.413  0.00  0.00    -0.284 N 
ATOM     23  C   UNL     1       0.061  -0.653  -3.582  0.00  0.00    +0.230 C 
ATOM     24  O   UNL     1       0.078  -1.866  -3.590  0.00  0.00    -0.274 OA
ATOM     25  H   UNL     1      -0.139   1.106  -2.410  0.00  0.00    +0.155 HD
BRANCH  22  31
ATOM     26  C   UNL     1       1.335  -3.970   0.128  0.00  0.00    +0.044 C 
ATOM     27  C   UNL     1       0.661  -2.624   0.056  0.00  0.00    -0.049 A 
ATOM     28  C   UNL     1       0.074  -2.084   1.187  0.00  0.00    +0.004 A 
ATOM     29  C   UNL     1      -0.545  -0.849   1.125  0.00  0.00    +0.005 A 
ATOM     30  C   UNL     1      -0.579  -0.151  -0.066  0.00  0.00    -0.029 A 
ATOM     31  C   UNL     1       0.005  -0.692  -1.203  0.00  0.00    +0.037 A 
ATOM     32  C   UNL     1       0.631  -1.930  -1.137  0.00  0.00    +0.027 A 
ATOM     33  C   UNL     1      -1.255   1.195  -0.132  0.00  0.00    +0.045 C 
ENDBRANCH  22  31
ENDBRANCH  20  23
ENDBRANCH  19  20
ENDBRANCH   1  19
TORSDOF 7
