REMARK  Name = ZINC21075693
REMARK  8 active torsions:
REMARK  status: ('A' for Active; 'I' for Inactive)
REMARK    1  A    between atoms: C_1  and  O_2
REMARK    2  A    between atoms: O_2  and  C_3
REMARK    3  A    between atoms: C_6  and  O_29
REMARK    4  A    between atoms: C_7  and  C_9
REMARK    5  A    between atoms: N_10  and  N_11
REMARK    6  A    between atoms: C_14  and  S_17
REMARK    7  A    between atoms: S_17  and  C_18
REMARK    8  A    between atoms: C_18  and  C_19
REMARK                            x       y       z     vdW  Elec       q    Type
REMARK                         _______ _______ _______ _____ _____    ______ ____
ROOT
ATOM      1  N   UNL     1      10.422   2.942  -2.809  0.00  0.00    -0.205 N 
ATOM      2  C   UNL     1       9.236   2.882  -2.093  0.00  0.00    +0.232 A 
ATOM      3  N   UNL     1       7.978   2.825  -2.625  0.00  0.00    -0.186 NA
ATOM      4  C   UNL     1       7.084   2.777  -1.593  0.00  0.00    +0.210 A 
ATOM      5  N   UNL     1       7.760   2.808  -0.470  0.00  0.00    -0.144 NA
ATOM      6  N   UNL     1       9.123   2.869  -0.786  0.00  0.00    -0.245 N 
ATOM      7  H   UNL     1      10.401   2.947  -3.908  0.00  0.00    +0.177 HD
ATOM      8  H   UNL     1      10.024   2.904  -0.157  0.00  0.00    +0.192 HD
ENDROOT
BRANCH   1  10
ATOM      9  C   UNL     1      12.758   3.053  -2.801  0.00  0.00    +0.142 C 
ATOM     10  N   UNL     1      11.647   2.996  -2.131  0.00  0.00    -0.187 NA
BRANCH   9  15
ATOM     11  C   UNL     1      16.450   3.224  -2.130  0.00  0.00    +0.121 A 
ATOM     12  C   UNL     1      16.472   3.218  -0.742  0.00  0.00    +0.049 A 
ATOM     13  C   UNL     1      15.291   3.159  -0.025  0.00  0.00    +0.049 A 
ATOM     14  C   UNL     1      14.077   3.110  -0.688  0.00  0.00    +0.126 A 
ATOM     15  C   UNL     1      14.047   3.110  -2.088  0.00  0.00    +0.039 A 
ATOM     16  C   UNL     1      15.243   3.170  -2.806  0.00  0.00    +0.058 A 
BRANCH  11  18
ATOM     17  C   UNL     1      18.824   3.336  -2.066  0.00  0.00    +0.277 C 
ATOM     18  O   UNL     1      17.616   3.283  -2.827  0.00  0.00    -0.495 OA
ENDBRANCH  11  18
BRANCH  14  19
ATOM     19  O   UNL     1      12.917   3.057   0.019  0.00  0.00    -0.506 OA
ATOM     20  H   UNL     1      11.953   3.018  -0.509  0.00  0.00    +0.292 HD
ENDBRANCH  14  19
ENDBRANCH   9  15
ENDBRANCH   1  10
BRANCH   4  21
ATOM     21  S   UNL     1       5.330   2.694  -1.745  0.00  0.00    -0.077 S 
BRANCH  21  22
ATOM     22  C   UNL     1       4.743   2.656  -0.029  0.00  0.00    +0.151 C 
BRANCH  22  23
ATOM     23  C   UNL     1       3.238   2.585  -0.015  0.00  0.00    +0.118 A 
ATOM     24  N   UNL     1       2.512   1.434  -0.014  0.00  0.00    -0.341 N 
ATOM     25  H   UNL     1       3.025   0.461  -0.023  0.00  0.00    +0.167 HD
ATOM     26  C   UNL     1       1.178   1.790   0.000  0.00  0.00    +0.066 A 
ATOM     27  C   UNL     1      -0.013   1.076   0.008  0.00  0.00    +0.028 A 
ATOM     28  C   UNL     1      -1.214   1.752   0.017  0.00  0.00    +0.002 A 
ATOM     29  C   UNL     1      -1.240   3.139   0.031  0.00  0.00    +0.002 A 
ATOM     30  C   UNL     1      -0.078   3.858   0.023  0.00  0.00    +0.030 A 
ATOM     31  C   UNL     1       1.151   3.194   0.008  0.00  0.00    +0.089 A 
ATOM     32  N   UNL     1       2.442   3.615  -0.002  0.00  0.00    -0.232 NA
ENDBRANCH  22  23
ENDBRANCH  21  22
ENDBRANCH   4  21
TORSDOF 7
