REMARK  Name = ZINC39847194
REMARK  3 active torsions:
REMARK  status: ('A' for Active; 'I' for Inactive)
REMARK    1  A    between atoms: C_8  and  N_10
REMARK    2  A    between atoms: C_15  and  C_18
REMARK    3  A    between atoms: C_18  and  C_19
REMARK                            x       y       z     vdW  Elec       q    Type
REMARK                         _______ _______ _______ _____ _____    ______ ____
ROOT
ATOM      1  N   UNL     1       2.963  -3.894  -0.046  0.00  0.00    -0.200 NA
ATOM      2  C   UNL     1       4.233  -4.243  -0.061  0.00  0.00    +0.164 C 
ATOM      3  N   UNL     1       4.766  -5.512  -0.078  0.00  0.00    -0.264 N 
ATOM      4  C   UNL     1       6.068  -5.737  -0.092  0.00  0.00    +0.232 C 
ATOM      5  O   UNL     1       6.529  -6.858  -0.108  0.00  0.00    -0.274 OA
ATOM      6  C   UNL     1       6.952  -4.500  -0.087  0.00  0.00    +0.144 C 
ATOM      7  S   UNL     1       5.669  -3.180  -0.069  0.00  0.00    -0.077 S 
ATOM      8  H   UNL     1       4.161  -6.271  -0.080  0.00  0.00    +0.157 HD
ENDROOT
BRANCH   1  16
ATOM      9  C   UNL     1      -0.017   1.366   0.010  0.00  0.00    +0.002 A 
ATOM     10  C   UNL     1       1.156   2.107   0.002  0.00  0.00    +0.001 A 
ATOM     11  C   UNL     1       2.373   1.450  -0.013  0.00  0.00    +0.017 A 
ATOM     12  C   UNL     1       2.402   0.078  -0.020  0.00  0.00    +0.041 A 
ATOM     13  C   UNL     1       1.228  -0.710  -0.013  0.00  0.00    +0.081 A 
ATOM     14  C   UNL     1       0.002  -0.004   0.002  0.00  0.00    +0.029 A 
ATOM     15  N   UNL     1       1.418  -2.046  -0.022  0.00  0.00    -0.221 NA
ATOM     16  C   UNL     1       2.622  -2.587  -0.037  0.00  0.00    +0.196 A 
ATOM     17  S   UNL     1       3.685  -1.151  -0.039  0.00  0.00    -0.048 S 
ENDBRANCH   1  16
BRANCH   6  18
ATOM     18  C   UNL     1       7.827  -4.448   1.167  0.00  0.00    +0.059 C 
BRANCH  18  19
ATOM     19  C   UNL     1       8.771  -3.277   1.073  0.00  0.00    -0.044 A 
ATOM     20  C   UNL     1      10.014  -3.437   0.488  0.00  0.00    +0.005 A 
ATOM     21  C   UNL     1      10.881  -2.364   0.402  0.00  0.00    +0.022 A 
ATOM     22  C   UNL     1      10.506  -1.130   0.901  0.00  0.00    +0.059 A 
ATOM     23  C   UNL     1       9.261  -0.970   1.486  0.00  0.00    +0.060 A 
ATOM     24  C   UNL     1       8.393  -2.043   1.567  0.00  0.00    +0.025 A 
ATOM     25 CL   UNL     1       8.789   0.579   2.113  0.00  0.00    -0.082 Cl
ATOM     26 CL   UNL     1      11.595   0.218   0.793  0.00  0.00    -0.082 Cl
ENDBRANCH  18  19
ENDBRANCH   6  18
TORSDOF 3
