REMARK  Name = ZINC40283726
REMARK  5 active torsions:
REMARK  status: ('A' for Active; 'I' for Inactive)
REMARK    1  A    between atoms: C_1  and  C_2
REMARK    2  A    between atoms: C_2  and  C_27
REMARK    3  A    between atoms: C_6  and  C_17
REMARK    4  A    between atoms: C_10  and  C_13
REMARK    5  A    between atoms: C_20  and  O_23
REMARK                            x       y       z     vdW  Elec       q    Type
REMARK                         _______ _______ _______ _____ _____    ______ ____
ROOT
ATOM      1  C   UNL     1      -0.019   1.526   0.010  0.00  0.00    +0.011 C 
ATOM      2  C   UNL     1       0.002  -0.004   0.002  0.00  0.00    -0.023 C 
ATOM      3  C   UNL     1       0.742  -0.503  -1.241  0.00  0.00    +0.058 C 
ATOM      4  C   UNL     1       2.169  -0.011  -1.214  0.00  0.00    +0.019 C 
ATOM      5  C   UNL     1       2.814   0.189  -0.045  0.00  0.00    +0.041 C 
ATOM      6  C   UNL     1       4.242   0.683   0.014  0.00  0.00    +0.174 C 
ATOM      7  N   UNL     1       4.866   0.573  -1.303  0.00  0.00    -0.238 N 
ATOM      8  C   UNL     1       4.155   0.358  -2.437  0.00  0.00    +0.134 A 
ATOM      9  C   UNL     1       5.049   0.317  -3.488  0.00  0.00    +0.096 A 
ATOM     10  C   UNL     1       6.339   0.512  -2.936  0.00  0.00    +0.149 A 
ATOM     11  N   UNL     1       6.213   0.661  -1.644  0.00  0.00    -0.176 NA
ATOM     12  N   UNL     1       2.782   0.215  -2.424  0.00  0.00    -0.302 N 
ATOM     13  C   UNL     1       2.171  -0.055   1.183  0.00  0.00    +0.164 C 
ATOM     14  O   UNL     1       2.785   0.113   2.218  0.00  0.00    -0.292 OA
ATOM     15  C   UNL     1       0.742  -0.517   1.242  0.00  0.00    +0.086 C 
ATOM     16  C   UNL     1      -1.431  -0.539  -0.001  0.00  0.00    +0.011 C 
ATOM     17  H   UNL     1       2.265   0.273  -3.243  0.00  0.00    +0.153 HD
ENDROOT
BRANCH   6  18
ATOM     18  C   UNL     1       4.254   2.125   0.450  0.00  0.00    -0.018 A 
ATOM     19  C   UNL     1       3.594   3.080  -0.301  0.00  0.00    +0.009 A 
ATOM     20  C   UNL     1       3.604   4.402   0.097  0.00  0.00    +0.046 A 
ATOM     21  C   UNL     1       4.277   4.773   1.252  0.00  0.00    +0.117 A 
ATOM     22  C   UNL     1       4.938   3.813   2.005  0.00  0.00    +0.046 A 
ATOM     23  C   UNL     1       4.921   2.491   1.605  0.00  0.00    +0.009 A 
BRANCH  21  24
ATOM     24  O   UNL     1       4.288   6.074   1.645  0.00  0.00    -0.507 OA
ATOM     25  H   UNL     1       3.557   6.314   2.231  0.00  0.00    +0.292 HD
ENDBRANCH  21  24
ENDBRANCH   6  18
BRANCH   9  26
ATOM     26  C   UNL     1       4.725   0.109  -4.906  0.00  0.00    +0.246 C 
ATOM     27  O   UNL     1       3.568  -0.048  -5.249  0.00  0.00    -0.270 OA
ATOM     28  N   UNL     1       5.709   0.092  -5.826  0.00  0.00    -0.325 N 
ATOM     29  H   UNL     1       6.631   0.218  -5.553  0.00  0.00    +0.145 HD
ATOM     30  H   UNL     1       5.495  -0.045  -6.763  0.00  0.00    +0.145 HD
ENDBRANCH   9  26
TORSDOF 3
