REMARK  Name = ZINC63259005
REMARK  8 active torsions:
REMARK  status: ('A' for Active; 'I' for Inactive)
REMARK    1  A    between atoms: C_7  and  C_10
REMARK    2  A    between atoms: C_10  and  C_11
REMARK    3  A    between atoms: C_11  and  C_13
REMARK    4  A    between atoms: C_11  and  N_29
REMARK    5  A    between atoms: C_13  and  O_15
REMARK    6  A    between atoms: O_15  and  C_16
REMARK    7  A    between atoms: C_16  and  C_17
REMARK    8  A    between atoms: C_30  and  C_32
REMARK                            x       y       z     vdW  Elec       q    Type
REMARK                         _______ _______ _______ _____ _____    ______ ____
ROOT
ATOM      1  C   UNL     1       0.457  -3.653  -1.462  0.00  0.00    +0.186 C 
ENDROOT
BRANCH   1   2
ATOM      2  N   UNL     1      -0.238  -2.603  -2.210  0.00  0.00    -0.298 N 
ATOM      3  C   UNL     1      -1.451  -2.176  -1.805  0.00  0.00    +0.251 C 
ATOM      4  O   UNL     1      -1.969  -2.664  -0.818  0.00  0.00    -0.270 OA
ATOM      5  H   UNL     1       0.175  -2.214  -2.997  0.00  0.00    +0.150 HD
BRANCH   3   6
ATOM      6  C   UNL     1      -2.146  -1.125  -2.554  0.00  0.00    +0.074 A 
ATOM      7  C   UNL     1      -3.381  -0.547  -2.306  0.00  0.00    +0.021 A 
ATOM      8  C   UNL     1      -3.774   0.426  -3.193  0.00  0.00    +0.008 A 
ATOM      9  C   UNL     1      -2.953   0.749  -4.223  0.00  0.00    +0.046 A 
ATOM     10  S   UNL     1      -1.619  -0.252  -4.016  0.00  0.00    -0.092 S 
ENDBRANCH   3   6
ENDBRANCH   1   2
BRANCH   1  11
ATOM     11  C   UNL     1      -0.385  -4.904  -1.452  0.00  0.00    +0.328 C 
ATOM     12  O   UNL     1      -1.570  -4.836  -1.678  0.00  0.00    -0.249 OA
BRANCH  11  13
ATOM     13  O   UNL     1       0.182  -6.092  -1.194  0.00  0.00    -0.454 OA
BRANCH  13  14
ATOM     14  C   UNL     1      -0.675  -7.236  -1.201  0.00  0.00    +0.328 C 
BRANCH  14  15
ATOM     15  C   UNL     1       0.132  -8.470  -0.892  0.00  0.00    +0.256 C 
ATOM     16  O   UNL     1       1.324  -8.380  -0.686  0.00  0.00    -0.272 OA
ATOM     17  N   UNL     1      -0.471  -9.675  -0.846  0.00  0.00    -0.262 N 
ATOM     18  C   UNL     1       0.271 -10.810  -0.562  0.00  0.00    +0.166 A 
ATOM     19  N   UNL     1       1.555 -10.913  -0.308  0.00  0.00    -0.225 NA
ATOM     20  C   UNL     1       2.150 -12.096  -0.045  0.00  0.00    +0.080 A 
ATOM     21  C   UNL     1       3.513 -12.343   0.242  0.00  0.00    +0.029 A 
ATOM     22  C   UNL     1       3.958 -13.615   0.487  0.00  0.00    +0.002 A 
ATOM     23  C   UNL     1       3.095 -14.702   0.464  0.00  0.00    +0.001 A 
ATOM     24  C   UNL     1       1.756 -14.497   0.187  0.00  0.00    +0.017 A 
ATOM     25  C   UNL     1       1.301 -13.226  -0.060  0.00  0.00    +0.041 A 
ATOM     26  S   UNL     1      -0.278 -12.507  -0.441  0.00  0.00    -0.052 S 
ATOM     27  H   UNL     1      -1.424  -9.747  -1.011  0.00  0.00    +0.157 HD
ENDBRANCH  14  15
ENDBRANCH  13  14
ENDBRANCH  11  13
ENDBRANCH   1  11
BRANCH   1  28
ATOM     28  C   UNL     1       0.691  -3.186  -0.024  0.00  0.00    +0.067 C 
BRANCH  28  35
ATOM     29  C   UNL     1      -0.016   1.348   0.009  0.00  0.00    +0.001 A 
ATOM     30  C   UNL     1       1.166   2.101   0.002  0.00  0.00    +0.002 A 
ATOM     31  C   UNL     1       2.391   1.535  -0.013  0.00  0.00    +0.026 A 
ATOM     32  C   UNL     1       2.529   0.120  -0.022  0.00  0.00    +0.043 A 
ATOM     33  N   UNL     1       3.587  -0.654  -0.037  0.00  0.00    -0.380 N 
ATOM     34  C   UNL     1       3.143  -2.053  -0.041  0.00  0.00    +0.144 C 
ATOM     35  C   UNL     1       1.631  -2.008  -0.025  0.00  0.00    -0.039 C 
ATOM     36  C   UNL     1       1.295  -0.698  -0.014  0.00  0.00    -0.001 A 
ATOM     37  C   UNL     1       0.002  -0.004   0.002  0.00  0.00    +0.010 A 
ATOM     38  H   UNL     1       4.509  -0.353  -0.045  0.00  0.00    +0.160 HD
ENDBRANCH  28  35
ENDBRANCH   1  28
TORSDOF 8
