REMARK  Name = ZINC43221566
REMARK  11 active torsions:
REMARK  status: ('A' for Active; 'I' for Inactive)
REMARK    1  A    between atoms: C_1  and  C_2
REMARK    2  A    between atoms: C_2  and  C_3
REMARK    3  A    between atoms: C_3  and  C_5
REMARK    4  A    between atoms: C_3  and  C_6
REMARK    5  A    between atoms: C_6  and  C_39
REMARK    6  A    between atoms: C_11  and  C_14
REMARK    7  A    between atoms: C_18  and  O_20
REMARK    8  A    between atoms: O_20  and  C_21
REMARK    9  A    between atoms: N_27  and  C_30
REMARK   10  A    between atoms: C_33  and  C_36
REMARK   11  A    between atoms: C_36  and  C_38
REMARK                            x       y       z     vdW  Elec       q    Type
REMARK                         _______ _______ _______ _____ _____    ______ ____
ROOT
ATOM      1  C   UNL     1       0.631  -2.037  -1.311  0.00  0.00    +0.051 C 
ATOM      2  C   UNL     1       1.342  -2.551  -2.559  0.00  0.00    +0.086 C 
ATOM      3  C   UNL     1       0.665  -3.974  -2.596  0.00  0.00    +0.077 C 
ATOM      4  C   UNL     1      -0.763  -3.678  -2.430  0.00  0.00    -0.027 C 
ATOM      5  N   UNL     1      -0.788  -2.472  -1.525  0.00  0.00    +0.396 N 
ATOM      6  C   UNL     1       1.550  -4.703  -3.473  0.00  0.00    +0.229 C 
ATOM      7  O   UNL     1       1.255  -5.580  -4.256  0.00  0.00    -0.275 OA
ATOM      8  N   UNL     1       2.798  -4.186  -3.228  0.00  0.00    -0.210 N 
ATOM      9  C   UNL     1       2.764  -3.013  -2.502  0.00  0.00    +0.229 C 
ATOM     10  O   UNL     1       3.685  -2.468  -1.932  0.00  0.00    -0.275 OA
ATOM     11  H   UNL     1      -1.211  -2.708  -0.640  0.00  0.00    -0.083 HD
ATOM     12  H   UNL     1      -1.310  -1.731  -1.969  0.00  0.00    -0.083 HD
ENDROOT
BRANCH   4  13
ATOM     13  C   UNL     1      -1.396  -3.378  -3.764  0.00  0.00    -0.057 A 
ATOM     14  C   UNL     1      -1.245  -2.127  -4.335  0.00  0.00    +0.002 A 
ATOM     15  C   UNL     1      -1.825  -1.848  -5.559  0.00  0.00    +0.004 A 
ATOM     16  C   UNL     1      -2.557  -2.819  -6.215  0.00  0.00    +0.046 A 
ATOM     17  C   UNL     1      -2.710  -4.075  -5.645  0.00  0.00    +0.130 A 
ATOM     18  C   UNL     1      -2.122  -4.354  -4.419  0.00  0.00    +0.048 A 
BRANCH  17  19
ATOM     19  O   UNL     1      -3.429  -5.031  -6.288  0.00  0.00    -0.406 OA
BRANCH  19  20
ATOM     20  C   UNL     1      -4.001  -4.675  -7.548  0.00  0.00    +0.575 C 
ATOM     21  F   UNL     1      -2.983  -4.310  -8.436  0.00  0.00    -0.133 F 
ATOM     22  F   UNL     1      -4.702  -5.769  -8.068  0.00  0.00    -0.133 F 
ATOM     23  F   UNL     1      -4.877  -3.599  -7.376  0.00  0.00    -0.133 F 
ENDBRANCH  19  20
ENDBRANCH  17  19
ENDBRANCH   4  13
BRANCH   8  24
ATOM     24  C   UNL     1       3.982  -4.777  -3.675  0.00  0.00    +0.044 A 
ATOM     25  C   UNL     1       5.207  -4.189  -3.377  0.00  0.00    +0.024 A 
ATOM     26  C   UNL     1       6.375  -4.768  -3.816  0.00  0.00    +0.013 A 
ATOM     27  C   UNL     1       6.331  -5.950  -4.564  0.00  0.00    +0.017 A 
ATOM     28  C   UNL     1       5.095  -6.538  -4.862  0.00  0.00    +0.013 A 
ATOM     29  C   UNL     1       3.932  -5.955  -4.414  0.00  0.00    +0.024 A 
BRANCH  27  30
ATOM     30  C   UNL     1       7.575  -6.572  -5.035  0.00  0.00    +0.160 C 
ATOM     31  O   UNL     1       8.637  -6.010  -4.864  0.00  0.00    -0.292 OA
ATOM     32  C   UNL     1       7.534  -7.907  -5.733  0.00  0.00    +0.091 C 
ENDBRANCH  27  30
ENDBRANCH   8  24
BRANCH   1  33
ATOM     33  C   UNL     1       1.201  -2.671  -0.069  0.00  0.00    +0.347 C 
ATOM     34  O   UNL     1       0.494  -3.368   0.639  0.00  0.00    -0.248 OA
ATOM     35  O   UNL     1       2.369  -2.487   0.229  0.00  0.00    -0.248 OA
ENDBRANCH   1  33
BRANCH   1  36
ATOM     36  C   UNL     1       0.722  -0.511  -1.227  0.00  0.00    -0.014 C 
ATOM     37  C   UNL     1       2.192  -0.091  -1.171  0.00  0.00    +0.006 C 
BRANCH  36  39
ATOM     38  C   UNL     1      -0.013   1.504   0.053  0.00  0.00    +0.004 C 
ATOM     39  C   UNL     1       0.004  -0.026   0.033  0.00  0.00    -0.001 C 
ENDBRANCH  36  39
ENDBRANCH   1  36
TORSDOF 8
