REMARK  Name = ZINC20757003
REMARK  8 active torsions:
REMARK  status: ('A' for Active; 'I' for Inactive)
REMARK    1  A    between atoms: C_1  and  C_2
REMARK    2  A    between atoms: C_4  and  C_39
REMARK    3  A    between atoms: C_13  and  C_16
REMARK    4  A    between atoms: C_16  and  C_17
REMARK    5  A    between atoms: N_29  and  C_32
REMARK    6  A    between atoms: C_32  and  C_33
REMARK    7  A    between atoms: C_33  and  O_34
REMARK    8  A    between atoms: O_34  and  C_35
REMARK                            x       y       z     vdW  Elec       q    Type
REMARK                         _______ _______ _______ _____ _____    ______ ____
ROOT
ATOM      1  C   UNL     1      -0.344   0.266  -0.467  0.00  0.00    +0.044 C 
ATOM      2  C   UNL     1      -0.342  -1.191  -0.080  0.00  0.00    -0.050 A 
ATOM      3  C   UNL     1      -0.581  -2.162  -1.035  0.00  0.00    +0.008 A 
ATOM      4  C   UNL     1      -0.581  -3.496  -0.686  0.00  0.00    -0.029 A 
ATOM      5  C   UNL     1      -0.337  -3.877   0.631  0.00  0.00    +0.042 A 
ATOM      6  C   UNL     1      -0.096  -2.891   1.584  0.00  0.00    +0.004 A 
ATOM      7  C   UNL     1      -0.094  -1.560   1.230  0.00  0.00    +0.011 A 
ATOM      8  C   UNL     1       0.129  -3.618   2.879  0.00  0.00    +0.136 C 
ATOM      9  C   UNL     1      -0.881  -3.192   3.950  0.00  0.00    +0.122 C 
ATOM     10  C   UNL     1      -0.118  -2.155   4.821  0.00  0.00    +0.107 C 
ATOM     11  C   UNL     1       1.282  -2.054   4.178  0.00  0.00    +0.072 C 
ATOM     12  N   UNL     1       1.461  -3.325   3.439  0.00  0.00    -0.295 NA
ATOM     13  C   UNL     1      -0.882  -0.872   4.585  0.00  0.00    +0.227 C 
ATOM     14  O   UNL     1      -0.620   0.201   5.084  0.00  0.00    -0.275 OA
ATOM     15  N   UNL     1      -1.893  -1.105   3.739  0.00  0.00    -0.239 N 
ATOM     16  C   UNL     1      -1.992  -2.386   3.317  0.00  0.00    +0.228 C 
ATOM     17  O   UNL     1      -2.828  -2.823   2.554  0.00  0.00    -0.275 OA
ATOM     18  C   UNL     1      -0.014  -5.076   2.539  0.00  0.00    +0.243 C 
ATOM     19  O   UNL     1       0.093  -6.012   3.303  0.00  0.00    -0.273 OA
ATOM     20  N   UNL     1      -0.284  -5.141   1.221  0.00  0.00    -0.283 N 
ATOM     21  C   UNL     1      -0.844  -4.547  -1.734  0.00  0.00    +0.045 C 
ATOM     22  H   UNL     1       1.759  -4.057   4.066  0.00  0.00    +0.124 HD
ATOM     23  H   UNL     1      -0.426  -5.970   0.738  0.00  0.00    +0.155 HD
ENDROOT
BRANCH  11  24
ATOM     24  C   UNL     1       2.353  -1.888   5.257  0.00  0.00    +0.056 C 
BRANCH  24  25
ATOM     25  C   UNL     1       3.694  -1.668   4.605  0.00  0.00    -0.021 A 
ATOM     26  C   UNL     1       4.613  -2.608   4.332  0.00  0.00    +0.087 A 
ATOM     27  N   UNL     1       5.704  -2.035   3.738  0.00  0.00    -0.360 N 
ATOM     28  H   UNL     1       6.497  -2.514   3.449  0.00  0.00    +0.165 HD
ATOM     29  C   UNL     1       5.509  -0.678   3.610  0.00  0.00    +0.047 A 
ATOM     30  C   UNL     1       4.239  -0.390   4.142  0.00  0.00    +0.003 A 
ATOM     31  C   UNL     1       3.765   0.924   4.141  0.00  0.00    +0.010 A 
ATOM     32  C   UNL     1       4.538   1.923   3.621  0.00  0.00    +0.001 A 
ATOM     33  C   UNL     1       5.790   1.643   3.091  0.00  0.00    +0.002 A 
ATOM     34  C   UNL     1       6.281   0.355   3.090  0.00  0.00    +0.026 A 
ENDBRANCH  24  25
ENDBRANCH  11  24
BRANCH  15  35
ATOM     35  C   UNL     1      -2.823  -0.059   3.309  0.00  0.00    +0.144 C 
BRANCH  35  36
ATOM     36  C   UNL     1      -4.070  -0.089   4.196  0.00  0.00    +0.179 C 
BRANCH  36  37
ATOM     37  O   UNL     1      -3.711   0.263   5.534  0.00  0.00    -0.381 OA
ATOM     38  C   UNL     1      -4.809   0.260   6.449  0.00  0.00    +0.194 C 
ENDBRANCH  36  37
ENDBRANCH  35  36
ENDBRANCH  15  35
TORSDOF 5
