REMARK  Name = ZINC38600408
REMARK  8 active torsions:
REMARK  status: ('A' for Active; 'I' for Inactive)
REMARK    1  A    between atoms: C_1  and  C_2
REMARK    2  A    between atoms: C_2  and  O_3
REMARK    3  A    between atoms: O_3  and  C_4
REMARK    4  A    between atoms: C_4  and  C_6
REMARK    5  A    between atoms: C_8  and  N_17
REMARK    6  A    between atoms: C_18  and  C_20
REMARK    7  A    between atoms: C_20  and  C_22
REMARK    8  A    between atoms: C_20  and  N_23
REMARK                            x       y       z     vdW  Elec       q    Type
REMARK                         _______ _______ _______ _____ _____    ______ ____
ROOT
ATOM      1  N   UNL     1       0.144  -1.216  -4.230  0.00  0.00    -0.288 N 
ATOM      2  C   UNL     1      -0.753  -1.302  -5.232  0.00  0.00    +0.203 C 
ATOM      3  O   UNL     1      -1.175  -2.385  -5.576  0.00  0.00    -0.277 OA
ATOM      4  H   UNL     1       0.419  -0.347  -3.898  0.00  0.00    +0.155 HD
ENDROOT
BRANCH   1   6
ATOM      5  C   UNL     1       0.494  -3.768  -4.183  0.00  0.00    +0.234 C 
ATOM      6  C   UNL     1       0.665  -2.351  -3.682  0.00  0.00    +0.053 C 
ATOM      7  C   UNL     1       1.459  -2.444  -2.553  0.00  0.00    +0.020 A 
ATOM      8  C   UNL     1       1.960  -1.471  -1.654  0.00  0.00    +0.050 A 
ATOM      9  C   UNL     1       2.734  -1.857  -0.608  0.00  0.00    +0.124 A 
ATOM     10  C   UNL     1       3.053  -3.202  -0.390  0.00  0.00    +0.040 A 
ATOM     11  C   UNL     1       2.608  -4.185  -1.208  0.00  0.00    +0.029 A 
ATOM     12  C   UNL     1       1.794  -3.861  -2.325  0.00  0.00    +0.045 A 
ATOM     13  N   UNL     1       1.244  -4.619  -3.254  0.00  0.00    -0.367 N 
ATOM     14  F   UNL     1       3.207  -0.921   0.243  0.00  0.00    -0.205 F 
ATOM     15  H   UNL     1       1.321  -5.584  -3.312  0.00  0.00    +0.161 HD
BRANCH   5  16
ATOM     16  C   UNL     1       1.058  -3.897  -5.575  0.00  0.00    +0.336 C 
ATOM     17  O   UNL     1       2.202  -4.251  -5.733  0.00  0.00    -0.248 OA
BRANCH  16  18
ATOM     18  O   UNL     1       0.288  -3.620  -6.639  0.00  0.00    -0.463 OA
BRANCH  18  20
ATOM     19  C   UNL     1      -0.136  -3.407  -9.008  0.00  0.00    +0.048 C 
ATOM     20  C   UNL     1       0.887  -3.764  -7.928  0.00  0.00    +0.229 C 
ENDBRANCH  18  20
ENDBRANCH  16  18
ENDBRANCH   5  16
ENDBRANCH   1   6
BRANCH   2  21
ATOM     21  C   UNL     1      -1.230  -0.052  -5.925  0.00  0.00    +0.017 C 
ATOM     22  C   UNL     1      -0.038   0.668  -6.557  0.00  0.00    -0.004 C 
BRANCH  21  23
ATOM     23  N   UNL     1      -2.196  -0.411  -6.972  0.00  0.00    +0.390 N 
ATOM     24  C   UNL     1      -2.580   0.794  -7.722  0.00  0.00    -0.073 C 
ATOM     25  C   UNL     1      -3.333   0.366  -8.982  0.00  0.00    +0.017 C 
ATOM     26  C   UNL     1      -4.437  -0.593  -8.616  0.00  0.00    -0.048 A 
ATOM     27  C   UNL     1      -5.443  -0.832  -9.539  0.00  0.00    +0.004 A 
ATOM     28  C   UNL     1      -6.469  -1.707  -9.239  0.00  0.00    +0.000 A 
ATOM     29  C   UNL     1      -6.492  -2.347  -8.014  0.00  0.00    +0.000 A 
ATOM     30  C   UNL     1      -5.490  -2.108  -7.094  0.00  0.00    +0.002 A 
ATOM     31  C   UNL     1      -4.460  -1.229  -7.393  0.00  0.00    -0.061 A 
ATOM     32  C   UNL     1      -3.393  -0.992  -6.356  0.00  0.00    -0.042 C 
ATOM     33  H   UNL     1      -1.780  -1.083  -7.599  0.00  0.00    -0.080 HD
ENDBRANCH  21  23
ENDBRANCH   2  21
TORSDOF 6
