REMARK  Name = ZINC39678744
REMARK  11 active torsions:
REMARK  status: ('A' for Active; 'I' for Inactive)
REMARK    1  A    between atoms: C_1  and  C_2
REMARK    2  A    between atoms: C_2  and  C_3
REMARK    3  A    between atoms: C_2  and  O_4
REMARK    4  A    between atoms: O_4  and  C_5
REMARK    5  A    between atoms: C_5  and  C_7
REMARK    6  A    between atoms: C_7  and  N_8
REMARK    7  A    between atoms: C_9  and  C_11
REMARK    8  A    between atoms: C_22  and  C_24
REMARK    9  A    between atoms: C_28  and  N_30
REMARK   10  A    between atoms: N_30  and  C_31
REMARK   11  A    between atoms: N_30  and  C_32
REMARK                            x       y       z     vdW  Elec       q    Type
REMARK                         _______ _______ _______ _____ _____    ______ ____
ROOT
ATOM      1  C   UNL     1      -0.590  -1.443   6.913  0.00  0.00    +0.100 C 
ATOM      2  C   UNL     1      -1.480  -0.256   7.345  0.00  0.00    +0.121 C 
ATOM      3  N   UNL     1      -1.686  -0.452   8.799  0.00  0.00    -0.296 N 
ATOM      4  C   UNL     1      -0.373  -0.927   9.297  0.00  0.00    +0.115 C 
ATOM      5  C   UNL     1       0.136  -1.880   8.197  0.00  0.00    -0.004 C 
ATOM      6  C   UNL     1      -0.222  -3.322   8.542  0.00  0.00    -0.010 C 
ATOM      7  C   UNL     1       0.555  -3.752   9.789  0.00  0.00    -0.082 C 
ATOM      8  N   UNL     1       1.996  -3.631   9.536  0.00  0.00    +0.379 N 
ATOM      9  C   UNL     1       2.346  -2.226   9.296  0.00  0.00    -0.082 C 
ATOM     10  C   UNL     1       1.645  -1.732   8.028  0.00  0.00    -0.010 C 
ATOM     11  C   UNL     1      -2.813  -0.246   9.509  0.00  0.00    +0.247 C 
ATOM     12  O   UNL     1      -3.851   0.022   8.937  0.00  0.00    -0.270 OA
ATOM     13  H   UNL     1       2.506  -3.972  10.337  0.00  0.00    -0.086 HD
ATOM     14  H   UNL     1       2.241  -4.180   8.726  0.00  0.00    -0.086 HD
ENDROOT
BRANCH  11  15
ATOM     15  C   UNL     1      -2.786  -0.345  10.984  0.00  0.00    +0.039 A 
ATOM     16  C   UNL     1      -1.577  -0.230  11.672  0.00  0.00    +0.013 A 
ATOM     17  C   UNL     1      -1.554  -0.324  13.048  0.00  0.00    +0.003 A 
ATOM     18  C   UNL     1      -2.727  -0.531  13.751  0.00  0.00    +0.023 A 
ATOM     19  C   UNL     1      -3.936  -0.647  13.076  0.00  0.00    +0.030 A 
ATOM     20  C   UNL     1      -3.970  -0.549  11.693  0.00  0.00    +0.036 A 
BRANCH  19  21
ATOM     21  N   UNL     1      -5.118  -0.858  13.790  0.00  0.00    -0.336 N 
ATOM     22  C   UNL     1      -5.068  -1.098  15.235  0.00  0.00    +0.129 C 
ATOM     23  C   UNL     1      -6.407  -0.839  13.095  0.00  0.00    +0.129 C 
ENDBRANCH  19  21
ENDBRANCH  11  15
BRANCH   1  25
ATOM     24  N   UNL     1       0.959  -1.905   5.041  0.00  0.00    -0.305 N 
ATOM     25  C   UNL     1       0.406  -1.000   5.872  0.00  0.00    +0.219 C 
ATOM     26  O   UNL     1       0.711   0.170   5.783  0.00  0.00    -0.275 OA
ATOM     27  H   UNL     1       0.716  -2.842   5.112  0.00  0.00    +0.149 HD
BRANCH  24  28
ATOM     28  C   UNL     1       1.927  -1.475   4.029  0.00  0.00    +0.224 C 
BRANCH  28  29
ATOM     29  C   UNL     1       2.390  -2.670   3.236  0.00  0.00    +0.325 C 
ATOM     30  O   UNL     1       1.955  -3.769   3.490  0.00  0.00    -0.249 OA
BRANCH  29  31
ATOM     31  O   UNL     1       3.285  -2.514   2.248  0.00  0.00    -0.461 OA
BRANCH  31  33
ATOM     32  C   UNL     1       2.744  -3.902   0.344  0.00  0.00    +0.052 C 
ATOM     33  C   UNL     1       3.678  -3.690   1.537  0.00  0.00    +0.170 C 
ATOM     34  C   UNL     1       5.115  -3.527   1.038  0.00  0.00    +0.052 C 
ENDBRANCH  31  33
ENDBRANCH  29  31
ENDBRANCH  28  29
ENDBRANCH  24  28
ENDBRANCH   1  25
TORSDOF 7
