REMARK  Name = ZINC17166613
REMARK  8 active torsions:
REMARK  status: ('A' for Active; 'I' for Inactive)
REMARK    1  A    between atoms: C_5  and  C_7
REMARK    2  A    between atoms: C_7  and  N_8
REMARK    3  A    between atoms: N_8  and  C_9
REMARK    4  A    between atoms: N_14  and  C_17
REMARK    5  A    between atoms: C_20  and  N_23
REMARK    6  A    between atoms: C_27  and  N_31
REMARK    7  A    between atoms: N_31  and  C_32
REMARK    8  A    between atoms: C_32  and  C_33
REMARK                            x       y       z     vdW  Elec       q    Type
REMARK                         _______ _______ _______ _____ _____    ______ ____
ROOT
ATOM      1  C   UNL     1      -1.026  -6.036   3.245  0.00  0.00    +0.044 A 
ATOM      2  C   UNL     1      -2.254  -5.830   2.630  0.00  0.00    +0.026 A 
ATOM      3  C   UNL     1      -3.383  -6.458   3.117  0.00  0.00    +0.026 A 
ATOM      4  C   UNL     1      -3.291  -7.295   4.221  0.00  0.00    +0.044 A 
ATOM      5  C   UNL     1      -2.063  -7.502   4.835  0.00  0.00    +0.026 A 
ATOM      6  C   UNL     1      -0.933  -6.877   4.345  0.00  0.00    +0.026 A 
ENDROOT
BRANCH   1  11
ATOM      7  C   UNL     1       1.637  -3.719   2.205  0.00  0.00    +0.150 C 
ATOM      8  C   UNL     1       2.197  -5.081   1.747  0.00  0.00    +0.125 C 
ATOM      9  C   UNL     1       1.122  -6.063   2.160  0.00  0.00    +0.228 C 
ATOM     10  O   UNL     1       1.162  -7.262   1.986  0.00  0.00    -0.275 OA
ATOM     11  N   UNL     1       0.121  -5.398   2.750  0.00  0.00    -0.209 N 
ATOM     12  C   UNL     1       0.304  -4.071   2.828  0.00  0.00    +0.244 C 
ATOM     13  O   UNL     1      -0.472  -3.280   3.319  0.00  0.00    -0.273 OA
BRANCH   7  14
ATOM     14  N   UNL     1       2.526  -3.103   3.199  0.00  0.00    -0.301 NA
ATOM     15  H   UNL     1       3.490  -3.336   3.016  0.00  0.00    +0.123 HD
BRANCH  14  16
ATOM     16  C   UNL     1       2.336  -1.647   3.244  0.00  0.00    +0.120 C 
BRANCH  16  21
ATOM     17  C   UNL     1       3.632  -0.175   6.471  0.00  0.00    +0.000 A 
ATOM     18  C   UNL     1       4.962   0.043   6.162  0.00  0.00    +0.003 A 
ATOM     19  C   UNL     1       5.443  -0.285   4.909  0.00  0.00    +0.038 A 
ATOM     20  C   UNL     1       4.593  -0.833   3.962  0.00  0.00    +0.128 A 
ATOM     21  C   UNL     1       3.262  -1.051   4.273  0.00  0.00    +0.002 A 
ATOM     22  C   UNL     1       2.783  -0.722   5.527  0.00  0.00    +0.008 A 
ATOM     23  F   UNL     1       5.063  -1.154   2.737  0.00  0.00    -0.205 F 
ENDBRANCH  16  21
ENDBRANCH  14  16
ENDBRANCH   7  14
ENDBRANCH   1  11
BRANCH   4  24
ATOM     24  N   UNL     1      -4.438  -7.932   4.716  0.00  0.00    -0.209 N 
ATOM     25  C   UNL     1      -4.981  -7.629   5.902  0.00  0.00    +0.228 C 
ATOM     26  O   UNL     1      -4.561  -6.792   6.672  0.00  0.00    -0.275 OA
ATOM     27  C   UNL     1      -6.200  -8.496   6.128  0.00  0.00    +0.125 C 
ATOM     28  C   UNL     1      -6.269  -9.362   4.853  0.00  0.00    +0.150 C 
ATOM     29  C   UNL     1      -5.085  -8.889   4.039  0.00  0.00    +0.244 C 
ATOM     30  O   UNL     1      -4.770  -9.312   2.947  0.00  0.00    -0.273 OA
BRANCH  28  31
ATOM     31  N   UNL     1      -6.140 -10.787   5.189  0.00  0.00    -0.301 NA
ATOM     32  H   UNL     1      -5.172 -11.041   5.321  0.00  0.00    +0.123 HD
BRANCH  31  33
ATOM     33  C   UNL     1      -6.770 -11.628   4.162  0.00  0.00    +0.120 C 
BRANCH  33  34
ATOM     34  C   UNL     1      -6.618 -13.079   4.540  0.00  0.00    +0.002 A 
ATOM     35  C   UNL     1      -5.626 -13.845   3.956  0.00  0.00    +0.008 A 
ATOM     36  C   UNL     1      -5.486 -15.176   4.303  0.00  0.00    +0.000 A 
ATOM     37  C   UNL     1      -6.338 -15.742   5.233  0.00  0.00    +0.003 A 
ATOM     38  C   UNL     1      -7.330 -14.979   5.817  0.00  0.00    +0.038 A 
ATOM     39  C   UNL     1      -7.468 -13.644   5.475  0.00  0.00    +0.128 A 
ATOM     40  F   UNL     1      -8.434 -12.895   6.050  0.00  0.00    -0.205 F 
ENDBRANCH  33  34
ENDBRANCH  31  33
ENDBRANCH  28  31
ENDBRANCH   4  24
TORSDOF 8
