REMARK  Name = ZINC41511532
REMARK  6 active torsions:
REMARK  status: ('A' for Active; 'I' for Inactive)
REMARK    1  A    between atoms: C_1  and  C_2
REMARK    2  A    between atoms: C_4  and  O_33
REMARK    3  A    between atoms: C_5  and  C_24
REMARK    4  A    between atoms: C_11  and  C_12
REMARK    5  A    between atoms: C_24  and  N_25
REMARK    6  A    between atoms: C_30  and  C_32
REMARK                            x       y       z     vdW  Elec       q    Type
REMARK                         _______ _______ _______ _____ _____    ______ ____
ROOT
ATOM      1  C   UNL     1      -0.507   1.563   0.086  0.00  0.00    +0.045 C 
ATOM      2  C   UNL     1      -0.540   0.057   0.063  0.00  0.00    -0.033 A 
ATOM      3  C   UNL     1      -0.711  -0.606  -1.120  0.00  0.00    +0.050 A 
ATOM      4  C   UNL     1      -0.742  -1.998  -1.144  0.00  0.00    +0.122 A 
ATOM      5  C   UNL     1      -0.600  -2.726   0.026  0.00  0.00    +0.020 A 
ATOM      6  C   UNL     1      -0.426  -2.068   1.238  0.00  0.00    +0.145 A 
ATOM      7  C   UNL     1      -0.391  -0.664   1.248  0.00  0.00    +0.071 A 
ATOM      8  C   UNL     1      -0.190  -0.264   2.653  0.00  0.00    +0.232 C 
ATOM      9  O   UNL     1      -0.106   0.866   3.102  0.00  0.00    -0.283 OA
ATOM     10  C   UNL     1      -0.113  -1.533   3.390  0.00  0.00    +0.176 C 
ATOM     11  C   UNL     1       0.068  -1.674   4.729  0.00  0.00    +0.061 C 
ATOM     12  O   UNL     1      -0.268  -2.537   2.494  0.00  0.00    -0.451 OA
ENDROOT
BRANCH  11  13
ATOM     13  C   UNL     1      -0.019  -3.002   5.345  0.00  0.00    +0.022 A 
ATOM     14  C   UNL     1      -0.621  -4.061   4.655  0.00  0.00    +0.031 A 
ATOM     15  C   UNL     1      -0.700  -5.305   5.243  0.00  0.00    +0.042 A 
ATOM     16  C   UNL     1      -0.188  -5.512   6.514  0.00  0.00    +0.029 A 
ATOM     17  C   UNL     1       0.410  -4.476   7.207  0.00  0.00    +0.022 A 
ATOM     18  C   UNL     1       0.507  -3.221   6.630  0.00  0.00    +0.136 A 
ATOM     19  O   UNL     1       1.105  -2.199   7.293  0.00  0.00    -0.465 OA
ATOM     20  C   UNL     1       1.293  -2.363   8.702  0.00  0.00    +0.395 C 
ATOM     21  O   UNL     1       1.854  -3.660   8.940  0.00  0.00    -0.339 OA
ATOM     22  C   UNL     1       0.957  -4.723   8.591  0.00  0.00    +0.202 C 
ATOM     23 CL   UNL     1      -1.445  -6.619   4.387  0.00  0.00    -0.084 Cl
ENDBRANCH  11  13
BRANCH   4  24
ATOM     24  O   UNL     1      -0.912  -2.647  -2.324  0.00  0.00    -0.506 OA
ATOM     25  H   UNL     1      -0.086  -2.852  -2.783  0.00  0.00    +0.292 HD
ENDBRANCH   4  24
BRANCH   5  26
ATOM     26  C   UNL     1      -0.636  -4.232  -0.014  0.00  0.00    -0.035 C 
BRANCH  26  27
ATOM     27  N   UNL     1       0.725  -4.749  -0.211  0.00  0.00    +0.384 N 
ATOM     28  C   UNL     1       1.222  -4.328  -1.526  0.00  0.00    -0.078 C 
ATOM     29  C   UNL     1       2.668  -4.795  -1.703  0.00  0.00    -0.019 C 
ATOM     30  C   UNL     1       2.722  -6.322  -1.600  0.00  0.00    -0.003 C 
ATOM     31  C   UNL     1       2.133  -6.754  -0.254  0.00  0.00    -0.016 C 
ATOM     32  C   UNL     1       0.706  -6.215  -0.131  0.00  0.00    -0.071 C 
ATOM     33  C   UNL     1       0.113  -6.644   1.213  0.00  0.00    -0.013 C 
ATOM     34  H   UNL     1       1.330  -4.382   0.508  0.00  0.00    -0.081 HD
ENDBRANCH  26  27
ENDBRANCH   5  26
TORSDOF 4
