REMARK  Name = ZINC49563563
REMARK  7 active torsions:
REMARK  status: ('A' for Active; 'I' for Inactive)
REMARK    1  A    between atoms: C_1  and  C_2
REMARK    2  A    between atoms: N_5  and  C_8
REMARK    3  A    between atoms: C_8  and  C_9
REMARK    4  A    between atoms: N_14  and  C_15
REMARK    5  A    between atoms: C_15  and  C_17
REMARK    6  A    between atoms: C_17  and  N_18
REMARK    7  A    between atoms: C_26  and  C_27
REMARK                            x       y       z     vdW  Elec       q    Type
REMARK                         _______ _______ _______ _____ _____    ______ ____
ROOT
ATOM      1  C   UNL     1      -0.034  -4.388   2.671  0.00  0.00    +0.008 A 
ATOM      2  C   UNL     1      -0.664  -5.079   3.628  0.00  0.00    +0.067 A 
ATOM      3  S   UNL     1       0.633  -5.312   4.829  0.00  0.00    -0.061 S 
ATOM      4  C   UNL     1       1.874  -4.514   4.022  0.00  0.00    +0.163 A 
ATOM      5  N   UNL     1       1.280  -4.099   2.872  0.00  0.00    -0.341 N 
ATOM      6  N   UNL     1       3.137  -4.334   4.415  0.00  0.00    -0.155 NA
ATOM      7  H   UNL     1       1.783  -3.604   2.207  0.00  0.00    +0.167 HD
ENDROOT
BRANCH   6   8
ATOM      8  C   UNL     1       3.545  -4.819   5.580  0.00  0.00    +0.258 C 
ATOM      9  O   UNL     1       2.768  -5.427   6.292  0.00  0.00    -0.272 OA
BRANCH   8  10
ATOM     10  C   UNL     1       4.971  -4.616   6.023  0.00  0.00    +0.221 C 
BRANCH  10  11
ATOM     11  N   UNL     1       5.169  -5.240   7.334  0.00  0.00    -0.311 N 
ATOM     12  C   UNL     1       4.985  -4.638   8.563  0.00  0.00    +0.069 A 
ATOM     13  C   UNL     1       4.590  -3.371   8.970  0.00  0.00    +0.028 A 
ATOM     14  C   UNL     1       4.503  -3.082  10.315  0.00  0.00    +0.002 A 
ATOM     15  C   UNL     1       4.808  -4.048  11.263  0.00  0.00    +0.002 A 
ATOM     16  C   UNL     1       5.198  -5.300  10.881  0.00  0.00    +0.030 A 
ATOM     17  C   UNL     1       5.292  -5.617   9.523  0.00  0.00    +0.090 A 
ATOM     18  N   UNL     1       5.641  -6.740   8.845  0.00  0.00    -0.224 NA
ATOM     19  C   UNL     1       5.563  -6.521   7.565  0.00  0.00    +0.216 A 
BRANCH  19  20
ATOM     20  C   UNL     1       5.868  -7.537   6.495  0.00  0.00    +0.451 C 
ATOM     21  F   UNL     1       5.906  -8.815   7.063  0.00  0.00    -0.163 F 
ATOM     22  F   UNL     1       4.874  -7.493   5.513  0.00  0.00    -0.163 F 
ATOM     23  F   UNL     1       7.109  -7.247   5.917  0.00  0.00    -0.163 F 
ENDBRANCH  19  20
ENDBRANCH  10  11
ENDBRANCH   8  10
ENDBRANCH   6   8
BRANCH   1  24
ATOM     24  C   UNL     1      -0.750  -3.952   1.419  0.00  0.00    -0.024 C 
BRANCH  24  29
ATOM     25  C   UNL     1      -2.194   1.558   1.146  0.00  0.00    +0.007 C 
ATOM     26  C   UNL     1      -2.248   0.029   1.167  0.00  0.00    -0.018 C 
ATOM     27  C   UNL     1      -1.696  -0.484   2.499  0.00  0.00    -0.016 C 
ATOM     28  C   UNL     1      -1.678  -2.014   2.482  0.00  0.00    -0.078 C 
ATOM     29  N   UNL     1      -0.826  -2.485   1.383  0.00  0.00    +0.383 N 
ATOM     30  C   UNL     1      -1.389  -2.057   0.097  0.00  0.00    -0.078 C 
ATOM     31  C   UNL     1      -1.396  -0.528   0.023  0.00  0.00    -0.016 C 
ATOM     32  H   UNL     1       0.100  -2.100   1.489  0.00  0.00    -0.081 HD
ENDBRANCH  24  29
ENDBRANCH   1  24
TORSDOF 6
