REMARK  Name = ZINC21317773
REMARK  7 active torsions:
REMARK  status: ('A' for Active; 'I' for Inactive)
REMARK    1  A    between atoms: C_10  and  N_11
REMARK    2  A    between atoms: C_12  and  C_14
REMARK    3  A    between atoms: C_14  and  S_15
REMARK    4  A    between atoms: S_15  and  C_16
REMARK    5  A    between atoms: N_20  and  N_21
REMARK    6  A    between atoms: N_22  and  N_23
REMARK    7  A    between atoms: C_24  and  C_25
REMARK                            x       y       z     vdW  Elec       q    Type
REMARK                         _______ _______ _______ _____ _____    ______ ____
ROOT
ATOM      1  C   UNL     1      -1.840  -4.220  -0.035  0.00  0.00    +0.210 A 
ATOM      2  N   UNL     1      -0.529  -4.202  -0.053  0.00  0.00    -0.119 NA
ATOM      3  N   UNL     1      -0.114  -2.863  -0.065  0.00  0.00    -0.109 NA
ATOM      4  C   UNL     1      -1.185  -2.107  -0.045  0.00  0.00    +0.254 A 
ATOM      5  N   UNL     1      -2.280  -2.926  -0.030  0.00  0.00    -0.211 N 
ATOM      6  N   UNL     1      -1.205  -0.721  -0.046  0.00  0.00    -0.204 N 
ATOM      7  H   UNL     1      -2.165  -0.184  -0.034  0.00  0.00    +0.177 HD
ENDROOT
BRANCH   5   8
ATOM      8  N   UNL     1      -3.585  -2.523  -0.013  0.00  0.00    -0.294 N 
ATOM      9  H   UNL     1      -3.829  -1.450  -0.011  0.00  0.00    +0.163 HD
ATOM     10  H   UNL     1      -4.392  -3.270  -0.002  0.00  0.00    +0.163 HD
ENDBRANCH   5   8
BRANCH   6  11
ATOM     11  N   UNL     1      -0.001  -0.003  -0.063  0.00  0.00    -0.187 NA
ATOM     12  C   UNL     1      -0.019   1.298  -0.064  0.00  0.00    +0.145 C 
BRANCH  12  13
ATOM     13  C   UNL     1       1.240   2.049  -0.081  0.00  0.00    +0.032 A 
ATOM     14  C   UNL     1       1.440   3.418  -0.085  0.00  0.00    +0.017 A 
ATOM     15  C   UNL     1       2.733   3.890  -0.101  0.00  0.00    +0.008 A 
ATOM     16  C   UNL     1       3.763   3.006  -0.114  0.00  0.00    +0.046 A 
ATOM     17  S   UNL     1       2.917   1.435  -0.095  0.00  0.00    -0.096 S 
ENDBRANCH  12  13
ENDBRANCH   6  11
BRANCH   1  18
ATOM     18  S   UNL     1      -2.856  -5.660  -0.021  0.00  0.00    -0.075 S 
BRANCH  18  19
ATOM     19  C   UNL     1      -1.671  -7.033  -0.035  0.00  0.00    +0.173 C 
BRANCH  19  21
ATOM     20  N   UNL     1      -1.739  -9.505  -0.032  0.00  0.00    -0.284 N 
ATOM     21  C   UNL     1      -2.418  -8.341  -0.024  0.00  0.00    +0.228 C 
ATOM     22  O   UNL     1      -3.631  -8.347  -0.008  0.00  0.00    -0.275 OA
ATOM     23  H   UNL     1      -0.642  -9.502  -0.122  0.00  0.00    +0.155 HD
BRANCH  20  33
ATOM     24  C   UNL     1      -0.769 -13.966   2.122  0.00  0.00    +0.001 A 
ATOM     25  C   UNL     1      -0.065 -12.767   2.028  0.00  0.00    +0.001 A 
ATOM     26  C   UNL     1      -0.588 -11.698   1.366  0.00  0.00    +0.010 A 
ATOM     27  C   UNL     1      -1.851 -11.804   0.763  0.00  0.00    +0.003 A 
ATOM     28  C   UNL     1      -2.569 -13.021   0.862  0.00  0.00    -0.016 A 
ATOM     29  C   UNL     1      -1.998 -14.103   1.554  0.00  0.00    +0.008 A 
ATOM     30  C   UNL     1      -3.836 -13.127   0.263  0.00  0.00    +0.008 A 
ATOM     31  C   UNL     1      -4.365 -12.063  -0.402  0.00  0.00    +0.002 A 
ATOM     32  C   UNL     1      -3.671 -10.861  -0.501  0.00  0.00    +0.024 A 
ATOM     33  C   UNL     1      -2.426 -10.716   0.073  0.00  0.00    +0.041 A 
ENDBRANCH  20  33
ENDBRANCH  19  21
ENDBRANCH  18  19
ENDBRANCH   1  18
TORSDOF 7
