REMARK  Name = ZINC60392171
REMARK  11 active torsions:
REMARK  status: ('A' for Active; 'I' for Inactive)
REMARK    1  A    between atoms: C_1  and  C_2
REMARK    2  A    between atoms: C_2  and  N_3
REMARK    3  A    between atoms: N_3  and  C_4
REMARK    4  A    between atoms: N_3  and  C_6
REMARK    5  A    between atoms: C_4  and  C_5
REMARK    6  A    between atoms: C_6  and  C_7
REMARK    7  A    between atoms: C_7  and  N_8
REMARK    8  A    between atoms: N_17  and  C_18
REMARK    9  A    between atoms: C_18  and  C_20
REMARK   10  A    between atoms: C_20  and  N_21
REMARK   11  A    between atoms: C_28  and  N_32
REMARK                            x       y       z     vdW  Elec       q    Type
REMARK                         _______ _______ _______ _____ _____    ______ ____
ROOT
ATOM      1  N   UNL     1      -2.325  -4.005   0.563  0.00  0.00    -0.314 N 
ATOM      2  C   UNL     1      -2.201  -4.931  -0.469  0.00  0.00    +0.068 A 
ATOM      3  C   UNL     1      -2.234  -4.817  -1.852  0.00  0.00    +0.028 A 
ATOM      4  C   UNL     1      -2.079  -5.942  -2.637  0.00  0.00    +0.002 A 
ATOM      5  C   UNL     1      -1.893  -7.183  -2.052  0.00  0.00    +0.002 A 
ATOM      6  C   UNL     1      -1.859  -7.306  -0.677  0.00  0.00    +0.028 A 
ATOM      7  C   UNL     1      -2.013  -6.182   0.122  0.00  0.00    +0.066 A 
ATOM      8  N   UNL     1      -2.025  -5.991   1.500  0.00  0.00    -0.326 N 
ATOM      9  C   UNL     1      -2.209  -4.667   1.744  0.00  0.00    +0.201 A 
ATOM     10  N   UNL     1      -2.270  -4.107   2.950  0.00  0.00    -0.145 NA
ATOM     11  H   UNL     1      -1.917  -6.683   2.170  0.00  0.00    +0.169 HD
ENDROOT
BRANCH  10  12
ATOM     12  C   UNL     1      -2.022  -4.835   4.034  0.00  0.00    +0.257 C 
ATOM     13  O   UNL     1      -1.650  -5.988   3.921  0.00  0.00    -0.272 OA
BRANCH  12  14
ATOM     14  C   UNL     1      -2.200  -4.233   5.404  0.00  0.00    +0.214 C 
BRANCH  14  15
ATOM     15  N   UNL     1      -1.865  -5.230   6.423  0.00  0.00    -0.225 N 
ATOM     16  C   UNL     1      -2.746  -6.093   6.962  0.00  0.00    +0.254 C 
ATOM     17  O   UNL     1      -3.925  -6.168   6.683  0.00  0.00    -0.270 OA
ATOM     18  C   UNL     1      -2.037  -6.935   7.948  0.00  0.00    +0.052 A 
ATOM     19  C   UNL     1      -2.417  -7.968   8.790  0.00  0.00    +0.014 A 
ATOM     20  C   UNL     1      -1.476  -8.562   9.617  0.00  0.00    +0.003 A 
ATOM     21  C   UNL     1      -0.163  -8.132   9.606  0.00  0.00    +0.033 A 
ATOM     22  C   UNL     1       0.232  -7.101   8.769  0.00  0.00    +0.139 A 
ATOM     23  C   UNL     1      -0.697  -6.497   7.937  0.00  0.00    +0.080 A 
ATOM     24  C   UNL     1      -0.636  -5.407   6.941  0.00  0.00    +0.256 C 
ATOM     25  O   UNL     1       0.356  -4.775   6.641  0.00  0.00    -0.269 OA
BRANCH  22  26
ATOM     26  N   UNL     1       1.641  -6.646   8.763  0.00  0.00    +0.057 N 
ATOM     27  O   UNL     1       2.450  -7.175   9.490  0.00  0.00    -0.126 OA
ATOM     28  O   UNL     1       1.983  -5.746   8.032  0.00  0.00    -0.126 OA
ENDBRANCH  22  26
ENDBRANCH  14  15
ENDBRANCH  12  14
ENDBRANCH  10  12
BRANCH   1  29
ATOM     29  C   UNL     1      -2.536  -2.565   0.403  0.00  0.00    +0.106 C 
BRANCH  29  30
ATOM     30  C   UNL     1      -1.182  -1.856   0.324  0.00  0.00    -0.057 C 
BRANCH  30  31
ATOM     31  N   UNL     1      -1.392  -0.430   0.039  0.00  0.00    +0.380 N 
ATOM     32  H   UNL     1      -1.933  -0.332  -0.807  0.00  0.00    -0.082 HD
BRANCH  31  34
ATOM     33  C   UNL     1      -2.441   1.645   0.807  0.00  0.00    -0.017 C 
ATOM     34  C   UNL     1      -2.113   0.192   1.157  0.00  0.00    -0.082 C 
ENDBRANCH  31  34
BRANCH  31  35
ATOM     35  C   UNL     1      -0.091   0.231  -0.133  0.00  0.00    -0.082 C 
ATOM     36  C   UNL     1       0.609  -0.336  -1.370  0.00  0.00    -0.017 C 
ENDBRANCH  31  35
ENDBRANCH  30  31
ENDBRANCH  29  30
ENDBRANCH   1  29
TORSDOF 9
