REMARK  Name = ZINC43221763
REMARK  11 active torsions:
REMARK  status: ('A' for Active; 'I' for Inactive)
REMARK    1  A    between atoms: C_1  and  C_2
REMARK    2  A    between atoms: C_2  and  C_3
REMARK    3  A    between atoms: C_3  and  C_5
REMARK    4  A    between atoms: C_3  and  C_6
REMARK    5  A    between atoms: C_6  and  C_36
REMARK    6  A    between atoms: C_11  and  C_14
REMARK    7  A    between atoms: C_16  and  C_22
REMARK    8  A    between atoms: C_17  and  O_21
REMARK    9  A    between atoms: C_18  and  C_20
REMARK   10  A    between atoms: N_25  and  C_28
REMARK   11  A    between atoms: C_31  and  C_35
REMARK                            x       y       z     vdW  Elec       q    Type
REMARK                         _______ _______ _______ _____ _____    ______ ____
ROOT
ATOM      1  C   UNL     1       0.756  -2.146  -1.409  0.00  0.00    +0.051 C 
ATOM      2  C   UNL     1       1.367  -2.765  -2.662  0.00  0.00    +0.086 C 
ATOM      3  C   UNL     1       0.543  -4.108  -2.639  0.00  0.00    +0.077 C 
ATOM      4  C   UNL     1      -0.840  -3.657  -2.438  0.00  0.00    -0.027 C 
ATOM      5  N   UNL     1      -0.707  -2.433  -1.567  0.00  0.00    +0.396 N 
ATOM      6  C   UNL     1       1.316  -4.948  -3.521  0.00  0.00    +0.229 C 
ATOM      7  O   UNL     1       0.904  -5.809  -4.270  0.00  0.00    -0.275 OA
ATOM      8  N   UNL     1       2.619  -4.562  -3.329  0.00  0.00    -0.210 N 
ATOM      9  C   UNL     1       2.733  -3.374  -2.636  0.00  0.00    +0.229 C 
ATOM     10  O   UNL     1       3.725  -2.917  -2.110  0.00  0.00    -0.275 OA
ATOM     11  H   UNL     1      -1.123  -2.600  -0.663  0.00  0.00    -0.083 HD
ATOM     12  H   UNL     1      -1.162  -1.652  -2.015  0.00  0.00    -0.083 HD
ENDROOT
BRANCH   4  13
ATOM     13  C   UNL     1      -1.482  -3.324  -3.760  0.00  0.00    -0.060 A 
ATOM     14  C   UNL     1      -1.229  -2.106  -4.363  0.00  0.00    +0.009 A 
ATOM     15  C   UNL     1      -1.817  -1.798  -5.575  0.00  0.00    -0.009 A 
ATOM     16  C   UNL     1      -2.660  -2.713  -6.188  0.00  0.00    +0.123 A 
ATOM     17  C   UNL     1      -2.911  -3.935  -5.581  0.00  0.00    -0.009 A 
ATOM     18  C   UNL     1      -2.317  -4.240  -4.372  0.00  0.00    +0.009 A 
ATOM     19  C   UNL     1      -3.827  -4.932  -6.244  0.00  0.00    +0.047 C 
ATOM     20  C   UNL     1      -1.542  -0.469  -6.230  0.00  0.00    +0.047 C 
BRANCH  16  21
ATOM     21  O   UNL     1      -3.240  -2.412  -7.380  0.00  0.00    -0.506 OA
ATOM     22  H   UNL     1      -2.717  -2.678  -8.149  0.00  0.00    +0.292 HD
ENDBRANCH  16  21
ENDBRANCH   4  13
BRANCH   8  23
ATOM     23  C   UNL     1       3.722  -5.290  -3.797  0.00  0.00    +0.045 A 
ATOM     24  C   UNL     1       5.010  -4.832  -3.554  0.00  0.00    +0.024 A 
ATOM     25  C   UNL     1       6.095  -5.551  -4.016  0.00  0.00    +0.006 A 
ATOM     26  C   UNL     1       5.900  -6.726  -4.719  0.00  0.00    -0.032 A 
ATOM     27  C   UNL     1       4.617  -7.184  -4.963  0.00  0.00    +0.046 A 
ATOM     28  C   UNL     1       3.528  -6.471  -4.498  0.00  0.00    +0.044 A 
ATOM     29 CL   UNL     1       4.377  -8.659  -5.847  0.00  0.00    -0.083 Cl
ATOM     30  C   UNL     1       7.086  -7.508  -5.222  0.00  0.00    +0.045 C 
ENDBRANCH   8  23
BRANCH   1  31
ATOM     31  C   UNL     1       1.297  -2.807  -0.167  0.00  0.00    +0.347 C 
ATOM     32  O   UNL     1       0.544  -3.407   0.582  0.00  0.00    -0.248 OA
ATOM     33  O   UNL     1       2.487  -2.741   0.090  0.00  0.00    -0.248 OA
ENDBRANCH   1  31
BRANCH   1  34
ATOM     34  C   UNL     1       1.011  -0.638  -1.371  0.00  0.00    -0.014 C 
ATOM     35  C   UNL     1       0.377  -0.045  -0.111  0.00  0.00    +0.006 C 
BRANCH  34  37
ATOM     36  C   UNL     1       2.775   1.130  -1.444  0.00  0.00    +0.004 C 
ATOM     37  C   UNL     1       2.518  -0.376  -1.355  0.00  0.00    -0.001 C 
ENDBRANCH  34  37
ENDBRANCH   1  34
TORSDOF 6
