REMARK  Name = ZINC21247526
REMARK  12 active torsions:
REMARK  status: ('A' for Active; 'I' for Inactive)
REMARK    1  A    between atoms: C_1  and  C_2
REMARK    2  A    between atoms: C_2  and  C_3
REMARK    3  A    between atoms: C_2  and  C_4
REMARK    4  A    between atoms: C_2  and  C_5
REMARK    5  A    between atoms: C_8  and  C_11
REMARK    6  A    between atoms: C_16  and  C_26
REMARK    7  A    between atoms: C_28  and  O_36
REMARK    8  A    between atoms: C_29  and  O_34
REMARK    9  A    between atoms: C_31  and  O_32
REMARK   10  A    between atoms: O_32  and  C_33
REMARK   11  A    between atoms: O_34  and  C_35
REMARK   12  A    between atoms: O_36  and  C_37
REMARK                            x       y       z     vdW  Elec       q    Type
REMARK                         _______ _______ _______ _____ _____    ______ ____
ROOT
ATOM      1  C   UNL     1       5.006   2.687   5.996  0.00  0.00    +0.032 C 
ATOM      2  C   UNL     1       4.402   2.284   7.340  0.00  0.00    +0.059 C 
ATOM      3  C   UNL     1       3.192   1.392   7.119  0.00  0.00    +0.017 C 
ATOM      4  C   UNL     1       3.135   0.568   6.059  0.00  0.00    +0.037 C 
ATOM      5  C   UNL     1       2.000  -0.370   5.726  0.00  0.00    +0.140 C 
ATOM      6  N   UNL     1       1.029  -0.540   6.786  0.00  0.00    -0.331 N 
ATOM      7  C   UNL     1       0.239   0.528   7.214  0.00  0.00    +0.049 A 
ATOM      8  C   UNL     1      -1.128   0.550   6.993  0.00  0.00    +0.025 A 
ATOM      9  C   UNL     1      -1.853   1.679   7.332  0.00  0.00    +0.002 A 
ATOM     10  C   UNL     1      -1.221   2.776   7.888  0.00  0.00    +0.002 A 
ATOM     11  C   UNL     1       0.142   2.748   8.131  0.00  0.00    +0.025 A 
ATOM     12  C   UNL     1       0.866   1.613   7.808  0.00  0.00    +0.052 A 
ATOM     13  N   UNL     1       2.226   1.499   8.068  0.00  0.00    -0.316 N 
ATOM     14  C   UNL     1       4.201   0.529   5.129  0.00  0.00    +0.163 C 
ATOM     15  O   UNL     1       4.133  -0.239   4.190  0.00  0.00    -0.292 OA
ATOM     16  C   UNL     1       5.412   1.403   5.263  0.00  0.00    +0.088 C 
ATOM     17  H   UNL     1       0.904  -1.521   7.266  0.00  0.00    +0.147 HD
ATOM     18  H   UNL     1       2.499   1.498   9.133  0.00  0.00    +0.152 HD
ENDROOT
BRANCH   1  22
ATOM     19  C   UNL     1       8.447   5.138   6.635  0.00  0.00    -0.042 A 
ATOM     20  C   UNL     1       7.383   5.619   5.893  0.00  0.00    +0.004 A 
ATOM     21  C   UNL     1       6.270   4.825   5.686  0.00  0.00    +0.004 A 
ATOM     22  C   UNL     1       6.220   3.552   6.221  0.00  0.00    -0.043 A 
ATOM     23  C   UNL     1       7.281   3.073   6.968  0.00  0.00    +0.004 A 
ATOM     24  C   UNL     1       8.396   3.865   7.170  0.00  0.00    +0.004 A 
BRANCH  19  26
ATOM     25  C   UNL     1       9.248   7.282   7.590  0.00  0.00    +0.015 C 
ATOM     26  C   UNL     1       9.661   6.002   6.859  0.00  0.00    -0.013 C 
ATOM     27  C   UNL     1      10.681   5.238   7.704  0.00  0.00    +0.015 C 
ATOM     28  C   UNL     1      10.285   6.364   5.510  0.00  0.00    +0.015 C 
ENDBRANCH  19  26
ENDBRANCH   1  22
BRANCH   5  29
ATOM     29  C   UNL     1       1.288   0.155   4.506  0.00  0.00    +0.023 A 
ATOM     30  C   UNL     1       1.472   1.467   4.111  0.00  0.00    +0.058 A 
ATOM     31  C   UNL     1       0.824   1.950   2.986  0.00  0.00    +0.162 A 
ATOM     32  C   UNL     1      -0.022   1.117   2.260  0.00  0.00    +0.165 A 
ATOM     33  C   UNL     1      -0.205  -0.197   2.657  0.00  0.00    +0.095 A 
ATOM     34  C   UNL     1       0.450  -0.678   3.781  0.00  0.00    +0.129 A 
BRANCH  34  35
ATOM     35  O   UNL     1       0.271  -1.968   4.171  0.00  0.00    -0.495 OA
ATOM     36  C   UNL     1      -0.606  -2.770   3.378  0.00  0.00    +0.277 C 
ENDBRANCH  34  35
BRANCH  32  37
ATOM     37  O   UNL     1      -0.664   1.592   1.159  0.00  0.00    -0.491 OA
ATOM     38  C   UNL     1      -1.512   0.679   0.459  0.00  0.00    +0.277 C 
ENDBRANCH  32  37
BRANCH  31  39
ATOM     39  O   UNL     1       1.010   3.240   2.595  0.00  0.00    -0.491 OA
ATOM     40  C   UNL     1       1.972   4.007   3.322  0.00  0.00    +0.277 C 
ENDBRANCH  31  39
ENDBRANCH   5  29
TORSDOF 6
