REMARK  Name = ZINC67209748
REMARK  6 active torsions:
REMARK  status: ('A' for Active; 'I' for Inactive)
REMARK    1  A    between atoms: C_1  and  N_2
REMARK    2  A    between atoms: N_2  and  C_3
REMARK    3  A    between atoms: N_2  and  C_4
REMARK    4  A    between atoms: C_15  and  C_17
REMARK    5  A    between atoms: C_20  and  N_22
REMARK    6  A    between atoms: C_23  and  C_25
REMARK                            x       y       z     vdW  Elec       q    Type
REMARK                         _______ _______ _______ _____ _____    ______ ____
ROOT
ATOM      1  C   UNL     1      -1.795  -0.197   0.739  0.00  0.00    -0.047 C 
ATOM      2  C   UNL     1      -2.394   0.378  -0.544  0.00  0.00    +0.023 C 
ATOM      3  C   UNL     1      -3.558  -0.459  -1.005  0.00  0.00    -0.027 A 
ATOM      4  C   UNL     1      -4.489   0.101  -1.864  0.00  0.00    +0.005 A 
ATOM      5  C   UNL     1      -5.565  -0.643  -2.306  0.00  0.00    +0.000 A 
ATOM      6  C   UNL     1      -5.721  -1.954  -1.894  0.00  0.00    +0.002 A 
ATOM      7  C   UNL     1      -4.798  -2.519  -1.037  0.00  0.00    +0.024 A 
ATOM      8  C   UNL     1      -3.714  -1.772  -0.589  0.00  0.00    +0.040 A 
ATOM      9  N   UNL     1      -2.794  -2.363   0.286  0.00  0.00    -0.268 N 
ATOM     10  C   UNL     1      -1.510  -1.690   0.530  0.00  0.00    +0.099 C 
ATOM     11  C   UNL     1      -3.082  -3.529   0.899  0.00  0.00    +0.257 C 
ATOM     12  O   UNL     1      -4.207  -3.990   0.832  0.00  0.00    -0.269 OA
ENDROOT
BRANCH  11  13
ATOM     13  C   UNL     1      -2.074  -4.218   1.620  0.00  0.00    +0.076 A 
ATOM     14  C   UNL     1      -2.195  -5.332   2.441  0.00  0.00    +0.022 A 
ATOM     15  C   UNL     1      -1.035  -5.784   3.013  0.00  0.00    +0.032 A 
ATOM     16  C   UNL     1       0.138  -5.119   2.740  0.00  0.00    +0.073 A 
ATOM     17  S   UNL     1      -0.325  -3.882   1.701  0.00  0.00    -0.069 S 
BRANCH  16  18
ATOM     18  N   UNL     1       1.412  -5.406   3.209  0.00  0.00    -0.273 N 
ATOM     19  C   UNL     1       2.439  -4.582   2.922  0.00  0.00    +0.284 C 
ATOM     20  O   UNL     1       2.268  -3.634   2.177  0.00  0.00    -0.266 OA
ATOM     21  H   UNL     1       1.564  -6.201   3.744  0.00  0.00    +0.156 HD
BRANCH  19  22
ATOM     22  C   UNL     1       3.761  -4.825   3.506  0.00  0.00    +0.189 A 
ATOM     23  C   UNL     1       4.880  -4.069   3.304  0.00  0.00    +0.054 A 
ATOM     24  C   UNL     1       5.909  -4.662   4.052  0.00  0.00    +0.042 A 
ATOM     25  C   UNL     1       5.380  -5.741   4.670  0.00  0.00    +0.196 A 
ATOM     26  O   UNL     1       4.084  -5.833   4.343  0.00  0.00    -0.458 OA
ENDBRANCH  19  22
ENDBRANCH  16  18
ENDBRANCH  11  13
BRANCH   1  28
ATOM     27  C   UNL     1      -0.817   1.933   1.249  0.00  0.00    -0.096 C 
ATOM     28  N   UNL     1      -0.543   0.503   1.055  0.00  0.00    +0.379 N 
ATOM     29  C   UNL     1       0.034  -0.056   2.284  0.00  0.00    -0.096 C 
ATOM     30  H   UNL     1       0.109   0.386   0.294  0.00  0.00    -0.082 HD
ENDBRANCH   1  28
TORSDOF 4
