REMARK  Name = ZINC63655780
REMARK  7 active torsions:
REMARK  status: ('A' for Active; 'I' for Inactive)
REMARK    1  A    between atoms: C_1  and  O_2
REMARK    2  A    between atoms: O_2  and  C_3
REMARK    3  A    between atoms: C_9  and  C_12
REMARK    4  A    between atoms: C_12  and  C_13
REMARK    5  A    between atoms: C_13  and  N_14
REMARK    6  A    between atoms: C_15  and  C_17
REMARK    7  A    between atoms: N_20  and  C_23
REMARK                            x       y       z     vdW  Elec       q    Type
REMARK                         _______ _______ _______ _____ _____    ______ ____
ROOT
ATOM      1  N   UNL     1      -0.759  -6.798   1.434  0.00  0.00    -0.315 N 
ATOM      2  C   UNL     1      -0.408  -7.389   2.593  0.00  0.00    +0.216 C 
ATOM      3  O   UNL     1      -0.851  -6.975   3.644  0.00  0.00    -0.276 OA
ATOM      4  H   UNL     1      -0.405  -7.128   0.594  0.00  0.00    +0.149 HD
ENDROOT
BRANCH   2   5
ATOM      5  C   UNL     1       0.535  -8.564   2.584  0.00  0.00    +0.077 C 
ATOM      6  C   UNL     1      -0.077  -9.705   1.766  0.00  0.00    +0.028 C 
ATOM      7  C   UNL     1       0.857 -10.916   1.811  0.00  0.00    +0.088 C 
ATOM      8  N   UNL     1       1.047 -11.338   3.204  0.00  0.00    -0.276 NA
ATOM      9  C   UNL     1       1.677 -10.275   3.999  0.00  0.00    +0.088 C 
ATOM     10  C   UNL     1       0.768  -9.045   4.019  0.00  0.00    +0.028 C 
BRANCH   8  11
ATOM     11  C   UNL     1       1.826 -12.581   3.277  0.00  0.00    +0.208 C 
ATOM     12  N   UNL     1       3.216 -12.359   2.857  0.00  0.00    -0.318 N 
ATOM     13  C   UNL     1       4.216 -12.590   3.797  0.00  0.00    +0.061 A 
ATOM     14  C   UNL     1       5.598 -12.434   3.587  0.00  0.00    +0.027 A 
ATOM     15  C   UNL     1       6.478 -12.700   4.619  0.00  0.00    +0.022 A 
ATOM     16  C   UNL     1       6.004 -13.116   5.846  0.00  0.00    +0.112 A 
ATOM     17  N   UNL     1       4.703 -13.260   6.034  0.00  0.00    -0.247 NA
ATOM     18  C   UNL     1       3.837 -13.016   5.077  0.00  0.00    +0.121 A 
ATOM     19  S   UNL     1       2.060 -13.114   5.020  0.00  0.00    -0.066 S 
ATOM     20  H   UNL     1       3.430 -12.063   1.958  0.00  0.00    +0.148 HD
ENDBRANCH   8  11
ENDBRANCH   2   5
BRANCH   1  21
ATOM     21  C   UNL     1      -1.676  -5.655   1.443  0.00  0.00    +0.108 C 
BRANCH  21  22
ATOM     22  C   UNL     1      -1.908  -5.176   0.009  0.00  0.00    +0.052 C 
BRANCH  22  29
ATOM     23  C   UNL     1      -1.200  -0.637   0.010  0.00  0.00    +0.121 A 
ATOM     24  C   UNL     1      -2.375   0.135   0.020  0.00  0.00    +0.047 A 
ATOM     25  C   UNL     1      -3.607  -0.415   0.028  0.00  0.00    +0.029 A 
ATOM     26  C   UNL     1      -3.753  -1.875   0.027  0.00  0.00    +0.043 A 
ATOM     27  N   UNL     1      -4.809  -2.650   0.034  0.00  0.00    -0.380 N 
ATOM     28  C   UNL     1      -4.362  -4.047   0.029  0.00  0.00    +0.144 C 
ATOM     29  C   UNL     1      -2.851  -4.000   0.018  0.00  0.00    -0.040 C 
ATOM     30  C   UNL     1      -2.516  -2.690   0.016  0.00  0.00    +0.002 A 
ATOM     31  C   UNL     1      -1.226  -1.992   0.003  0.00  0.00    +0.055 A 
ATOM     32  H   UNL     1      -5.731  -2.350   0.042  0.00  0.00    +0.160 HD
BRANCH  23  34
ATOM     33  C   UNL     1      -0.017   1.425   0.010  0.00  0.00    +0.277 C 
ATOM     34  O   UNL     1       0.002  -0.004   0.002  0.00  0.00    -0.495 OA
ENDBRANCH  23  34
ENDBRANCH  22  29
ENDBRANCH  21  22
ENDBRANCH   1  21
TORSDOF 6
