REMARK  Name = ZINC58997541
REMARK  10 active torsions:
REMARK  status: ('A' for Active; 'I' for Inactive)
REMARK    1  A    between atoms: C_1  and  C_2
REMARK    2  A    between atoms: C_5  and  C_31
REMARK    3  A    between atoms: C_6  and  N_8
REMARK    4  A    between atoms: C_9  and  C_11
REMARK    5  A    between atoms: C_11  and  S_12
REMARK    6  A    between atoms: S_12  and  C_13
REMARK    7  A    between atoms: N_18  and  N_19
REMARK    8  A    between atoms: C_20  and  C_21
REMARK    9  A    between atoms: C_23  and  N_28
REMARK   10  A    between atoms: C_26  and  O_27
REMARK                            x       y       z     vdW  Elec       q    Type
REMARK                         _______ _______ _______ _____ _____    ______ ____
ROOT
ATOM      1  C   UNL     1       0.537  -2.770   7.657  0.00  0.00    +0.211 A 
ATOM      2  N   UNL     1       0.641  -2.354   8.914  0.00  0.00    -0.186 NA
ATOM      3  C   UNL     1       0.730  -3.434   9.686  0.00  0.00    +0.232 A 
ATOM      4  N   UNL     1       0.676  -4.528   8.861  0.00  0.00    -0.245 N 
ATOM      5  N   UNL     1       0.555  -4.106   7.649  0.00  0.00    -0.144 NA
ATOM      6  N   UNL     1       0.850  -3.450  11.029  0.00  0.00    -0.205 N 
ATOM      7  H   UNL     1       0.908  -4.295  11.501  0.00  0.00    +0.177 HD
ATOM      8  H   UNL     1       0.719  -5.456   9.140  0.00  0.00    +0.192 HD
ENDROOT
BRANCH   6   9
ATOM      9  N   UNL     1       0.888  -2.340  11.686  0.00  0.00    -0.187 NA
ATOM     10  C   UNL     1       1.007  -2.356  13.011  0.00  0.00    +0.142 C 
BRANCH  10  11
ATOM     11  C   UNL     1       1.049  -1.147  13.728  0.00  0.00    +0.038 A 
ATOM     12  C   UNL     1       1.181  -1.148  15.135  0.00  0.00    +0.045 A 
ATOM     13  C   UNL     1       1.220   0.031  15.812  0.00  0.00    +0.127 A 
ATOM     14  C   UNL     1       1.132   1.250  15.146  0.00  0.00    +0.036 A 
ATOM     15  C   UNL     1       1.002   1.309  13.773  0.00  0.00    +0.048 A 
ATOM     16  C   UNL     1       0.962   0.138  13.029  0.00  0.00    +0.126 A 
BRANCH  13  17
ATOM     17  N   UNL     1       1.358   0.018  17.286  0.00  0.00    +0.056 N 
ATOM     18  O   UNL     1       1.441  -1.129  17.929  0.00  0.00    -0.126 OA
ATOM     19  O   UNL     1       1.397   1.152  17.954  0.00  0.00    -0.126 OA
ENDBRANCH  13  17
BRANCH  16  20
ATOM     20  O   UNL     1       0.841   0.182  11.682  0.00  0.00    -0.506 OA
ATOM     21  H   UNL     1      -0.074   0.179  11.370  0.00  0.00    +0.292 HD
ENDBRANCH  16  20
ENDBRANCH  10  11
ENDBRANCH   6   9
BRANCH   1  22
ATOM     22  S   UNL     1       0.391  -1.734   6.239  0.00  0.00    -0.075 S 
BRANCH  22  23
ATOM     23  C   UNL     1       0.280  -2.900   4.854  0.00  0.00    +0.173 C 
BRANCH  23  25
ATOM     24  N   UNL     1       0.052  -2.797   2.393  0.00  0.00    -0.285 N 
ATOM     25  C   UNL     1       0.150  -2.135   3.562  0.00  0.00    +0.227 C 
ATOM     26  O   UNL     1       0.134  -0.922   3.575  0.00  0.00    -0.275 OA
ATOM     27  H   UNL     1      -0.016  -3.765   2.388  0.00  0.00    +0.155 HD
BRANCH  24  33
ATOM     28  C   UNL     1       1.264   1.227  -0.158  0.00  0.00    +0.044 C 
ATOM     29  C   UNL     1       0.628  -0.137  -0.079  0.00  0.00    -0.049 A 
ATOM     30  C   UNL     1       0.039  -0.690  -1.201  0.00  0.00    +0.004 A 
ATOM     31  C   UNL     1      -0.546  -1.941  -1.133  0.00  0.00    +0.005 A 
ATOM     32  C   UNL     1      -0.543  -2.643   0.057  0.00  0.00    -0.029 A 
ATOM     33  C   UNL     1       0.048  -2.090   1.185  0.00  0.00    +0.037 A 
ATOM     34  C   UNL     1       0.639  -0.835   1.112  0.00  0.00    +0.027 A 
ATOM     35  C   UNL     1      -1.181  -4.006   0.131  0.00  0.00    +0.045 C 
ENDBRANCH  24  33
ENDBRANCH  23  25
ENDBRANCH  22  23
ENDBRANCH   1  22
TORSDOF 8
