REMARK  Name = ZINC19520687
REMARK  8 active torsions:
REMARK  status: ('A' for Active; 'I' for Inactive)
REMARK    1  A    between atoms: C_1  and  C_2
REMARK    2  A    between atoms: C_2  and  C_3
REMARK    3  A    between atoms: C_6  and  C_31
REMARK    4  A    between atoms: C_11  and  C_13
REMARK    5  A    between atoms: C_19  and  C_21
REMARK    6  A    between atoms: C_21  and  C_22
REMARK    7  A    between atoms: C_22  and  C_24
REMARK    8  A    between atoms: C_22  and  N_25
REMARK                            x       y       z     vdW  Elec       q    Type
REMARK                         _______ _______ _______ _____ _____    ______ ____
ROOT
ATOM      1  C   UNL     1       0.002  -0.004   0.002  0.00  0.00    +0.074 C 
ATOM      2  C   UNL     1       0.805  -0.501  -1.205  0.00  0.00    +0.058 C 
ATOM      3  C   UNL     1       0.882  -2.032  -1.185  0.00  0.00    +0.214 C 
ATOM      4  N   UNL     1      -0.467  -2.573  -0.997  0.00  0.00    -0.239 N 
ATOM      5  C   UNL     1      -1.506  -1.854  -0.497  0.00  0.00    +0.118 A 
ATOM      6  C   UNL     1      -2.591  -2.658  -0.465  0.00  0.00    +0.070 A 
ATOM      7  C   UNL     1      -2.205  -3.910  -0.960  0.00  0.00    +0.085 A 
ATOM      8  N   UNL     1      -0.934  -3.857  -1.276  0.00  0.00    -0.172 NA
ATOM      9  N   UNL     1      -1.377  -0.518  -0.109  0.00  0.00    -0.326 N 
ATOM     10  H   UNL     1      -2.229   0.142   0.110  0.00  0.00    +0.148 HD
ENDROOT
BRANCH   7  11
ATOM     11  C   UNL     1      -3.099  -5.115  -1.105  0.00  0.00    +0.127 C 
ATOM     12  C   UNL     1      -3.129  -5.908   0.219  0.00  0.00    +0.030 C 
ATOM     13  C   UNL     1      -3.142  -7.384  -0.261  0.00  0.00    +0.021 C 
ATOM     14  C   UNL     1      -2.241  -7.309  -1.519  0.00  0.00    +0.108 C 
ATOM     15  N   UNL     1      -2.566  -6.012  -2.140  0.00  0.00    -0.293 N 
ATOM     16  C   UNL     1      -2.402  -5.701  -3.441  0.00  0.00    +0.218 C 
ATOM     17  O   UNL     1      -2.705  -4.598  -3.843  0.00  0.00    -0.276 OA
BRANCH  16  18
ATOM     18  C   UNL     1      -1.841  -6.723  -4.395  0.00  0.00    +0.122 C 
BRANCH  18  19
ATOM     19  C   UNL     1      -1.758  -6.120  -5.798  0.00  0.00    +0.113 C 
ATOM     20  C   UNL     1      -3.169  -5.820  -6.309  0.00  0.00    +0.033 C 
BRANCH  19  21
ATOM     21  N   UNL     1      -1.104  -7.070  -6.701  0.00  0.00    -0.268 N 
ATOM     22  C   UNL     1      -1.706  -8.081  -7.362  0.00  0.00    +0.108 A 
ATOM     23  C   UNL     1      -0.760  -8.721  -8.087  0.00  0.00    +0.041 A 
ATOM     24  C   UNL     1       0.463  -8.080  -7.862  0.00  0.00    +0.134 A 
ATOM     25  N   UNL     1       0.257  -7.086  -7.035  0.00  0.00    -0.179 NA
ENDBRANCH  19  21
ENDBRANCH  18  19
ENDBRANCH  16  18
ENDBRANCH   7  11
BRANCH   3  26
ATOM     26  C   UNL     1       1.455  -2.534  -2.512  0.00  0.00    +0.412 C 
ATOM     27  F   UNL     1       0.634  -2.113  -3.563  0.00  0.00    -0.168 F 
ATOM     28  F   UNL     1       2.742  -2.017  -2.689  0.00  0.00    -0.168 F 
ATOM     29  F   UNL     1       1.512  -3.932  -2.496  0.00  0.00    -0.168 F 
ENDBRANCH   3  26
BRANCH   1  31
ATOM     30  C   UNL     1      -0.735   2.019   1.269  0.00  0.00    +0.006 C 
ATOM     31  C   UNL     1      -0.019   1.526   0.010  0.00  0.00    +0.019 C 
ENDBRANCH   1  31
TORSDOF 6
