REMARK  Name = ZINC12305200
REMARK  8 active torsions:
REMARK  status: ('A' for Active; 'I' for Inactive)
REMARK    1  A    between atoms: C_1  and  O_2
REMARK    2  A    between atoms: O_2  and  C_3
REMARK    3  A    between atoms: C_6  and  N_9
REMARK    4  A    between atoms: C_11  and  C_21
REMARK    5  A    between atoms: C_12  and  C_14
REMARK    6  A    between atoms: C_21  and  N_54
REMARK    7  A    between atoms: C_22  and  C_23
REMARK    8  A    between atoms: C_22  and  N_54
REMARK                            x       y       z     vdW  Elec       q    Type
REMARK                         _______ _______ _______ _____ _____    ______ ____
ROOT
ATOM      1  N   UNL     1       4.553   4.452  -0.074  0.00  0.00    -0.239 N 
ATOM      2  C   UNL     1       3.862   5.608  -0.249  0.00  0.00    +0.116 A 
ATOM      3  C   UNL     1       2.548   5.332  -0.099  0.00  0.00    -0.019 A 
ATOM      4  C   UNL     1       2.424   3.959   0.189  0.00  0.00    +0.096 A 
ATOM      5  N   UNL     1       3.631   3.433   0.199  0.00  0.00    -0.166 NA
ENDROOT
BRANCH   4   6
ATOM      6  C   UNL     1       1.154   3.231   0.431  0.00  0.00    +0.021 A 
ATOM      7  C   UNL     1       0.077   3.394  -0.438  0.00  0.00    +0.011 A 
ATOM      8  C   UNL     1      -1.102   2.715  -0.207  0.00  0.00    +0.001 A 
ATOM      9  C   UNL     1      -1.218   1.877   0.887  0.00  0.00    +0.001 A 
ATOM     10  C   UNL     1      -0.151   1.705   1.750  0.00  0.00    +0.020 A 
ATOM     11  C   UNL     1       1.034   2.380   1.529  0.00  0.00    +0.050 A 
ATOM     12 CL   UNL     1       2.370   2.169   2.617  0.00  0.00    -0.083 Cl
ENDBRANCH   4   6
BRANCH   1  16
ATOM     13  C   UNL     1       8.694   4.011  -0.309  0.00  0.00    +0.120 A 
ATOM     14  C   UNL     1       7.894   2.912  -0.029  0.00  0.00    +0.048 A 
ATOM     15  C   UNL     1       6.524   3.057   0.048  0.00  0.00    +0.031 A 
ATOM     16  C   UNL     1       5.945   4.303  -0.153  0.00  0.00    +0.066 A 
ATOM     17  C   UNL     1       6.745   5.402  -0.439  0.00  0.00    +0.031 A 
ATOM     18  C   UNL     1       8.116   5.256  -0.511  0.00  0.00    +0.048 A 
BRANCH  13  20
ATOM     19  C   UNL     1      10.805   5.041  -0.678  0.00  0.00    +0.277 C 
ATOM     20  O   UNL     1      10.043   3.867  -0.386  0.00  0.00    -0.495 OA
ENDBRANCH  13  20
ENDBRANCH   1  16
BRANCH   3  21
ATOM     21  C   UNL     1       1.416   6.320  -0.215  0.00  0.00    -0.043 C 
BRANCH  21  22
ATOM     22  N   UNL     1       0.922   6.649   1.136  0.00  0.00    +0.386 N 
ATOM     23  H   UNL     1       1.661   7.136   1.657  0.00  0.00    -0.085 HD
ATOM     24  H   UNL     1       0.671   5.783   1.625  0.00  0.00    -0.085 HD
BRANCH  22  25
ATOM     25  C   UNL     1      -0.266   7.520   1.048  0.00  0.00    -0.024 C 
BRANCH  25  26
ATOM     26  C   UNL     1      -0.821   7.737   2.432  0.00  0.00    +0.049 A 
ATOM     27  C   UNL     1      -1.790   6.944   3.062  0.00  0.00    -0.006 A 
ATOM     28  C   UNL     1      -2.016   7.463   4.290  0.00  0.00    +0.039 A 
ATOM     29  N   UNL     1      -1.226   8.551   4.429  0.00  0.00    -0.281 N 
ATOM     30  H   UNL     1      -1.178   9.145   5.233  0.00  0.00    +0.189 HD
ATOM     31  N   UNL     1      -0.486   8.701   3.250  0.00  0.00    -0.180 NA
ATOM     32  C   UNL     1      -3.054   6.642   5.024  0.00  0.00    +0.055 C 
ATOM     33  C   UNL     1      -3.116   5.301   4.260  0.00  0.00    +0.011 C 
ATOM     34  C   UNL     1      -2.646   5.714   2.848  0.00  0.00    +0.039 C 
ENDBRANCH  25  26
ENDBRANCH  22  25
ENDBRANCH  21  22
ENDBRANCH   3  21
TORSDOF 7
