REMARK  Name = ZINC06753030
REMARK  8 active torsions:
REMARK  status: ('A' for Active; 'I' for Inactive)
REMARK    1  A    between atoms: C_1  and  C_2
REMARK    2  A    between atoms: C_2  and  C_3
REMARK    3  A    between atoms: C_6  and  C_9
REMARK    4  A    between atoms: C_12  and  C_23
REMARK    5  A    between atoms: N_19  and  C_20
REMARK    6  A    between atoms: C_20  and  C_21
REMARK    7  A    between atoms: C_21  and  O_22
REMARK    8  A    between atoms: C_28  and  O_29
REMARK                            x       y       z     vdW  Elec       q    Type
REMARK                         _______ _______ _______ _____ _____    ______ ____
ROOT
ATOM      1  C   UNL     1      -5.106  -1.704  -0.230  0.00  0.00    +0.141 C 
ATOM      2  C   UNL     1      -6.259  -0.738  -0.210  0.00  0.00    +0.035 A 
ATOM      3  C   UNL     1      -6.896   0.326   0.439  0.00  0.00    +0.102 A 
ATOM      4  N   UNL     1      -7.970   0.630  -0.263  0.00  0.00    -0.173 NA
ATOM      5  N   UNL     1      -8.074  -0.136  -1.290  0.00  0.00    -0.272 N 
ATOM      6  H   UNL     1      -8.786  -0.092  -1.947  0.00  0.00    +0.189 HD
ATOM      7  C   UNL     1      -7.032  -1.019  -1.320  0.00  0.00    +0.126 A 
ATOM      8  C   UNL     1      -6.415  -2.133  -2.049  0.00  0.00    +0.266 C 
ATOM      9  O   UNL     1      -6.854  -2.620  -3.073  0.00  0.00    -0.268 OA
ATOM     10  N   UNL     1      -5.294  -2.539  -1.423  0.00  0.00    -0.283 N 
ENDROOT
BRANCH   1  14
ATOM     11  C   UNL     1      -1.411   0.423  -0.489  0.00  0.00    -0.048 A 
ATOM     12  C   UNL     1      -2.279   0.413  -1.565  0.00  0.00    +0.004 A 
ATOM     13  C   UNL     1      -3.475  -0.276  -1.480  0.00  0.00    +0.006 A 
ATOM     14  C   UNL     1      -3.802  -0.954  -0.321  0.00  0.00    -0.022 A 
ATOM     15  C   UNL     1      -2.933  -0.945   0.754  0.00  0.00    +0.006 A 
ATOM     16  C   UNL     1      -1.735  -0.260   0.668  0.00  0.00    +0.004 A 
BRANCH  11  18
ATOM     17  C   UNL     1       0.979   0.245  -1.129  0.00  0.00    +0.009 C 
ATOM     18  C   UNL     1      -0.107   1.173  -0.581  0.00  0.00    +0.032 C 
ENDBRANCH  11  18
ENDBRANCH   1  14
BRANCH   3  19
ATOM     19  C   UNL     1      -6.445   0.989   1.688  0.00  0.00    +0.044 A 
ATOM     20  C   UNL     1      -5.356   0.485   2.394  0.00  0.00    +0.014 A 
ATOM     21  C   UNL     1      -4.941   1.105   3.555  0.00  0.00    +0.001 A 
ATOM     22  C   UNL     1      -5.604   2.227   4.020  0.00  0.00    +0.004 A 
ATOM     23  C   UNL     1      -6.686   2.736   3.327  0.00  0.00    +0.046 A 
ATOM     24  C   UNL     1      -7.109   2.126   2.157  0.00  0.00    +0.126 A 
BRANCH  24  25
ATOM     25  O   UNL     1      -8.168   2.629   1.471  0.00  0.00    -0.506 OA
ATOM     26  H   UNL     1      -9.021   2.262   1.741  0.00  0.00    +0.292 HD
ENDBRANCH  24  25
ENDBRANCH   3  19
BRANCH  10  27
ATOM     27  C   UNL     1      -4.413  -3.627  -1.857  0.00  0.00    +0.137 C 
BRANCH  27  28
ATOM     28  C   UNL     1      -4.880  -4.942  -1.230  0.00  0.00    +0.175 C 
BRANCH  28  29
ATOM     29  O   UNL     1      -6.173  -5.279  -1.736  0.00  0.00    -0.393 OA
ATOM     30  H   UNL     1      -6.532  -6.103  -1.381  0.00  0.00    +0.209 HD
ENDBRANCH  28  29
ENDBRANCH  27  28
ENDBRANCH  10  27
TORSDOF 7
