REMARK  Name = ZINC61089379
REMARK  6 active torsions:
REMARK  status: ('A' for Active; 'I' for Inactive)
REMARK    1  A    between atoms: C_1  and  C_2
REMARK    2  A    between atoms: C_7  and  C_9
REMARK    3  A    between atoms: C_7  and  N_11
REMARK    4  A    between atoms: C_9  and  O_10
REMARK    5  A    between atoms: C_12  and  C_14
REMARK    6  A    between atoms: C_16  and  N_22
REMARK                            x       y       z     vdW  Elec       q    Type
REMARK                         _______ _______ _______ _____ _____    ______ ____
ROOT
ATOM      1  N   UNL     1      -0.027   1.382   2.574  0.00  0.00    -0.304 N 
ATOM      2  C   UNL     1       1.009   2.243   2.545  0.00  0.00    +0.246 C 
ATOM      3  O   UNL     1       2.150   1.822   2.542  0.00  0.00    -0.270 OA
ATOM      4  H   UNL     1      -0.934   1.717   2.646  0.00  0.00    +0.150 HD
ENDROOT
BRANCH   2   5
ATOM      5  C   UNL     1       0.760   3.698   2.517  0.00  0.00    +0.053 A 
ATOM      6  C   UNL     1      -0.550   4.184   2.527  0.00  0.00    +0.039 A 
ATOM      7  C   UNL     1      -0.777   5.550   2.501  0.00  0.00    +0.061 A 
ATOM      8  C   UNL     1       0.298   6.434   2.466  0.00  0.00    +0.145 A 
ATOM      9  C   UNL     1       1.596   5.953   2.456  0.00  0.00    +0.056 A 
ATOM     10  C   UNL     1       1.832   4.593   2.487  0.00  0.00    +0.033 A 
ATOM     11 BR   UNL     1       3.607   3.941   2.482  0.00  0.00    -0.049 Br
ATOM     12  F   UNL     1       0.074   7.766   2.441  0.00  0.00    -0.204 F 
BRANCH   7  13
ATOM     13  N   UNL     1      -2.087   6.041   2.510  0.00  0.00    -0.356 N 
ATOM     14  H   UNL     1      -2.836   5.425   2.535  0.00  0.00    +0.142 HD
ATOM     15  H   UNL     1      -2.246   6.997   2.492  0.00  0.00    +0.142 HD
ENDBRANCH   7  13
ENDBRANCH   2   5
BRANCH   1  21
ATOM     16  C   UNL     1      -0.243   1.545   0.089  0.00  0.00    +0.007 C 
ATOM     17  C   UNL     1       0.012   0.038   0.008  0.00  0.00    -0.012 C 
ATOM     18  C   UNL     1      -1.321  -0.709   0.089  0.00  0.00    +0.003 C 
ATOM     19  C   UNL     1      -2.012  -0.379   1.413  0.00  0.00    +0.002 C 
ATOM     20  C   UNL     1      -1.115  -0.808   2.577  0.00  0.00    +0.028 C 
ATOM     21  C   UNL     1       0.217  -0.061   2.497  0.00  0.00    +0.058 C 
ATOM     22  C   UNL     1       0.908  -0.391   1.172  0.00  0.00    +0.031 C 
BRANCH  21  23
ATOM     23  C   UNL     1       1.113  -0.490   3.660  0.00  0.00    +0.181 C 
BRANCH  23  24
ATOM     24  O   UNL     1       0.526  -0.070   4.893  0.00  0.00    -0.393 OA
ATOM     25  H   UNL     1       1.042  -0.309   5.676  0.00  0.00    +0.209 HD
ENDBRANCH  23  24
ENDBRANCH  21  23
ENDBRANCH   1  21
TORSDOF 5
