REMARK  Name = ZINC62960724
REMARK  3 active torsions:
REMARK  status: ('A' for Active; 'I' for Inactive)
REMARK    1  A    between atoms: C_3  and  N_20
REMARK    2  A    between atoms: C_4  and  C_17
REMARK    3  A    between atoms: C_6  and  N_7
REMARK                            x       y       z     vdW  Elec       q    Type
REMARK                         _______ _______ _______ _____ _____    ______ ____
ROOT
ATOM      1  C   UNL     1      -0.073   1.269   0.020  0.00  0.00    +0.023 A 
ATOM      2  C   UNL     1       1.037   2.088  -0.009  0.00  0.00    +0.025 A 
ATOM      3  C   UNL     1       2.311   1.534  -0.036  0.00  0.00    +0.037 A 
ATOM      4  C   UNL     1       2.461   0.139  -0.032  0.00  0.00    +0.059 A 
ATOM      5  C   UNL     1       1.327  -0.677  -0.001  0.00  0.00    +0.036 A 
ATOM      6  C   UNL     1       0.072  -0.109   0.024  0.00  0.00    +0.014 A 
ENDROOT
BRANCH   6   7
ATOM      7  N   UNL     1      -1.061  -0.927   0.054  0.00  0.00    -0.393 NA
ATOM      8  C   UNL     1      -1.828  -0.653   1.275  0.00  0.00    +0.085 C 
ATOM      9  C   UNL     1      -3.022  -1.608   1.357  0.00  0.00    +0.024 C 
ATOM     10  C   UNL     1      -3.906  -1.416   0.127  0.00  0.00    -0.026 C 
ATOM     11  C   UNL     1      -5.071  -2.422   0.158  0.00  0.00    +0.007 C 
ATOM     12  C   UNL     1      -6.244  -1.623   0.781  0.00  0.00    +0.001 C 
ATOM     13  C   UNL     1      -6.057  -0.210   0.174  0.00  0.00    +0.001 C 
ATOM     14  C   UNL     1      -4.527  -0.011   0.139  0.00  0.00    +0.007 C 
ATOM     15  C   UNL     1      -3.084  -1.614  -1.146  0.00  0.00    +0.024 C 
ATOM     16  C   UNL     1      -1.888  -0.658  -1.128  0.00  0.00    +0.085 C 
ATOM     17  H   UNL     1      -0.775  -1.895   0.050  0.00  0.00    +0.126 HD
ENDBRANCH   6   7
BRANCH   4  18
ATOM     18  C   UNL     1       3.807  -0.462  -0.060  0.00  0.00    +0.243 C 
ATOM     19  O   UNL     1       4.791   0.247   0.022  0.00  0.00    -0.270 OA
ATOM     20  N   UNL     1       3.946  -1.798  -0.177  0.00  0.00    -0.325 N 
ATOM     21  H   UNL     1       3.161  -2.364  -0.243  0.00  0.00    +0.145 HD
ATOM     22  H   UNL     1       4.832  -2.193  -0.196  0.00  0.00    +0.145 HD
ENDBRANCH   4  18
BRANCH   3  23
ATOM     23  N   UNL     1       3.429   2.357  -0.067  0.00  0.00    -0.357 N 
ATOM     24  H   UNL     1       3.323   3.317  -0.150  0.00  0.00    +0.142 HD
ATOM     25  H   UNL     1       4.317   1.971  -0.004  0.00  0.00    +0.142 HD
ENDBRANCH   3  23
TORSDOF 3
