REMARK  Name = ZINC61671729
REMARK  4 active torsions:
REMARK  status: ('A' for Active; 'I' for Inactive)
REMARK    1  A    between atoms: C_1  and  N_2
REMARK    2  A    between atoms: N_2  and  C_3
REMARK    3  A    between atoms: C_3  and  C_5
REMARK    4  A    between atoms: C_3  and  C_16
REMARK                            x       y       z     vdW  Elec       q    Type
REMARK                         _______ _______ _______ _____ _____    ______ ____
ROOT
ATOM      1  C   UNL     1      -1.376  -0.512   0.012  0.00  0.00    -0.037 C 
ENDROOT
BRANCH   1   2
ATOM      2  C   UNL     1      -2.067  -0.116  -1.267  0.00  0.00    -0.043 A 
ATOM      3  C   UNL     1      -1.324   0.130  -2.405  0.00  0.00    +0.052 A 
ATOM      4  C   UNL     1      -1.957   0.494  -3.584  0.00  0.00    +0.162 A 
ATOM      5  C   UNL     1      -3.342   0.609  -3.618  0.00  0.00    +0.163 A 
ATOM      6  C   UNL     1      -4.083   0.362  -2.472  0.00  0.00    +0.065 A 
ATOM      7  C   UNL     1      -3.445  -0.005  -1.301  0.00  0.00    +0.023 A 
ATOM      8 BR   UNL     1      -4.459  -0.348   0.258  0.00  0.00    -0.050 Br
ATOM      9  O   UNL     1      -3.984   0.957  -4.766  0.00  0.00    -0.485 OA
ATOM     10  C   UNL     1      -3.187   1.557  -5.793  0.00  0.00    +0.270 C 
ATOM     11  C   UNL     1      -1.903   0.731  -5.949  0.00  0.00    +0.270 C 
ATOM     12  O   UNL     1      -1.211   0.736  -4.696  0.00  0.00    -0.485 OA
ENDBRANCH   1   2
BRANCH   1  13
ATOM     13  C   UNL     1      -1.356  -2.038   0.130  0.00  0.00    -0.017 C 
ATOM     14  C   UNL     1      -0.612  -2.634  -1.069  0.00  0.00    +0.030 C 
ATOM     15  C   UNL     1      -0.665  -4.162  -0.984  0.00  0.00    +0.160 C 
ATOM     16  O   UNL     1      -2.028  -4.588  -0.946  0.00  0.00    -0.380 OA
ATOM     17  C   UNL     1      -2.761  -4.100   0.179  0.00  0.00    +0.160 C 
ATOM     18  C   UNL     1      -2.792  -2.570   0.141  0.00  0.00    +0.030 C 
ENDBRANCH   1  13
BRANCH   1  20
ATOM     19  C   UNL     1      -0.018   1.465   0.010  0.00  0.00    -0.100 C 
ATOM     20  N   UNL     1       0.002  -0.004   0.002  0.00  0.00    +0.382 N 
ATOM     21  H   UNL     1       0.474  -0.330  -0.828  0.00  0.00    -0.085 HD
ATOM     22  H   UNL     1       0.490  -0.338   0.820  0.00  0.00    -0.085 HD
ENDBRANCH   1  20
TORSDOF 3
