REMARK  Name = ZINC14198706
REMARK  6 active torsions:
REMARK  status: ('A' for Active; 'I' for Inactive)
REMARK    1  A    between atoms: C_4  and  C_7
REMARK    2  A    between atoms: C_7  and  C_9
REMARK    3  A    between atoms: C_7  and  N_63
REMARK    4  A    between atoms: C_9  and  N_10
REMARK    5  A    between atoms: C_11  and  C_13
REMARK    6  A    between atoms: C_25  and  C_28
REMARK                            x       y       z     vdW  Elec       q    Type
REMARK                         _______ _______ _______ _____ _____    ______ ____
ROOT
ATOM      1  C   UNL     1       1.694   6.111   1.117  0.00  0.00    +0.078 C 
ATOM      2  C   UNL     1       2.417   5.500  -0.087  0.00  0.00    +0.031 C 
ATOM      3  C   UNL     1       2.576   3.993   0.131  0.00  0.00    +0.107 C 
ATOM      4  N   UNL     1       1.252   3.379   0.293  0.00  0.00    -0.314 N 
ATOM      5  C   UNL     1       0.558   3.916   1.471  0.00  0.00    +0.107 C 
ATOM      6  C   UNL     1       0.339   5.420   1.293  0.00  0.00    +0.031 C 
ATOM      7  C   UNL     1       1.351   1.993   0.362  0.00  0.00    +0.142 A 
ATOM      8  C   UNL     1       0.184   1.220   0.519  0.00  0.00    +0.049 A 
ATOM      9  C   UNL     1       0.269  -0.135   0.587  0.00  0.00    +0.053 A 
ATOM     10  C   UNL     1       1.533  -0.748   0.499  0.00  0.00    +0.178 A 
ATOM     11  N   UNL     1       1.946  -2.006   0.530  0.00  0.00    -0.128 NA
ATOM     12  N   UNL     1       3.227  -2.035   0.408  0.00  0.00    -0.123 NA
ATOM     13  C   UNL     1       3.698  -0.818   0.294  0.00  0.00    +0.258 A 
ATOM     14  N   UNL     1       2.652   0.033   0.347  0.00  0.00    -0.187 N 
ATOM     15  N   UNL     1       2.530   1.423   0.280  0.00  0.00    -0.148 NA
ENDROOT
BRANCH   1  17
ATOM     16  N   UNL     1       0.860   8.333   1.814  0.00  0.00    -0.316 N 
ATOM     17  C   UNL     1       1.482   7.584   0.881  0.00  0.00    +0.216 C 
ATOM     18  O   UNL     1       1.869   8.096  -0.147  0.00  0.00    -0.276 OA
ATOM     19  H   UNL     1       0.550   7.923   2.637  0.00  0.00    +0.149 HD
BRANCH  16  20
ATOM     20  C   UNL     1       0.653   9.765   1.585  0.00  0.00    +0.093 C 
BRANCH  20  21
ATOM     21  C   UNL     1      -0.171  10.351   2.733  0.00  0.00    -0.020 C 
BRANCH  21  25
ATOM     22  C   UNL     1       2.076  10.123   6.359  0.00  0.00    +0.000 A 
ATOM     23  C   UNL     1       1.098   9.183   6.092  0.00  0.00    +0.000 A 
ATOM     24  C   UNL     1       0.371   9.257   4.918  0.00  0.00    +0.002 A 
ATOM     25  C   UNL     1       0.622  10.271   4.013  0.00  0.00    -0.059 A 
ATOM     26  C   UNL     1       1.603  11.207   4.278  0.00  0.00    +0.002 A 
ATOM     27  C   UNL     1       2.327  11.136   5.453  0.00  0.00    +0.000 A 
ENDBRANCH  21  25
BRANCH  21  32
ATOM     28  C   UNL     1      -1.246  11.877   1.170  0.00  0.00    -0.078 C 
ATOM     29  C   UNL     1      -1.926  13.264   1.293  0.00  0.00    -0.020 C 
ATOM     30  C   UNL     1      -2.300  13.333   2.792  0.00  0.00    -0.020 C 
ATOM     31  C   UNL     1      -1.361  12.330   3.488  0.00  0.00    -0.078 C 
ATOM     32  N   UNL     1      -0.505  11.777   2.437  0.00  0.00    +0.385 N 
ATOM     33  H   UNL     1       0.363  12.320   2.375  0.00  0.00    -0.081 HD
ENDBRANCH  21  32
ENDBRANCH  20  21
ENDBRANCH  16  20
ENDBRANCH   1  17
BRANCH  13  34
ATOM     34  C   UNL     1       5.147  -0.437   0.133  0.00  0.00    +0.454 C 
ATOM     35  F   UNL     1       5.891  -1.568  -0.218  0.00  0.00    -0.163 F 
ATOM     36  F   UNL     1       5.266   0.530  -0.871  0.00  0.00    -0.163 F 
ATOM     37  F   UNL     1       5.629   0.082   1.339  0.00  0.00    -0.163 F 
ENDBRANCH  13  34
TORSDOF 6
