REMARK  Name = ZINC46903039
REMARK  5 active torsions:
REMARK  status: ('A' for Active; 'I' for Inactive)
REMARK    1  A    between atoms: C_7  and  C_11
REMARK    2  A    between atoms: C_11  and  C_12
REMARK    3  A    between atoms: N_14  and  N_15
REMARK    4  A    between atoms: C_16  and  C_18
REMARK    5  A    between atoms: N_21  and  C_23
REMARK                            x       y       z     vdW  Elec       q    Type
REMARK                         _______ _______ _______ _____ _____    ______ ____
ROOT
ATOM      1  N   UNL     1      -1.289  -4.687  -2.961  0.00  0.00    -0.229 N 
ATOM      2  C   UNL     1      -2.000  -5.803  -3.216  0.00  0.00    +0.281 C 
ATOM      3  O   UNL     1      -2.375  -6.508  -2.299  0.00  0.00    -0.267 OA
ATOM      4  H   UNL     1      -0.990  -4.125  -3.693  0.00  0.00    +0.173 HD
ENDROOT
BRANCH   2   5
ATOM      5  C   UNL     1      -2.324  -6.170  -4.609  0.00  0.00    +0.152 A 
ATOM      6  C   UNL     1      -3.058  -7.293  -5.031  0.00  0.00    +0.006 A 
ATOM      7  C   UNL     1      -3.103  -7.222  -6.384  0.00  0.00    +0.049 A 
ATOM      8  N   UNL     1      -2.430  -6.108  -6.747  0.00  0.00    -0.236 N 
ATOM      9  N   UNL     1      -1.986  -5.503  -5.699  0.00  0.00    -0.161 NA
ATOM     10  C   UNL     1      -3.794  -8.238  -7.256  0.00  0.00    +0.056 C 
ATOM     11  C   UNL     1      -4.038  -9.503  -6.423  0.00  0.00    +0.006 C 
ATOM     12  C   UNL     1      -4.701  -9.126  -5.096  0.00  0.00    +0.005 C 
ATOM     13  C   UNL     1      -3.691  -8.383  -4.211  0.00  0.00    +0.039 C 
BRANCH   8  14
ATOM     14  C   UNL     1      -2.248  -5.673  -8.066  0.00  0.00    +0.067 A 
ATOM     15  C   UNL     1      -3.300  -5.730  -8.970  0.00  0.00    +0.028 A 
ATOM     16  C   UNL     1      -3.118  -5.300 -10.270  0.00  0.00    +0.003 A 
ATOM     17  C   UNL     1      -1.887  -4.813 -10.672  0.00  0.00    +0.015 A 
ATOM     18  C   UNL     1      -0.836  -4.755  -9.774  0.00  0.00    +0.020 A 
ATOM     19  C   UNL     1      -1.015  -5.177  -8.470  0.00  0.00    +0.043 A 
ATOM     20 BR   UNL     1       0.844  -4.088 -10.329  0.00  0.00    -0.050 Br
ENDBRANCH   8  14
ENDBRANCH   2   5
BRANCH   1  23
ATOM     21  C   UNL     1      -0.270  -3.222  -1.385  0.00  0.00    +0.233 C 
ATOM     22  O   UNL     1       0.103  -2.519  -2.300  0.00  0.00    -0.274 OA
ATOM     23  N   UNL     1      -0.981  -4.338  -1.640  0.00  0.00    -0.234 N 
ATOM     24  H   UNL     1      -1.280  -4.900  -0.908  0.00  0.00    +0.173 HD
BRANCH  21  25
ATOM     25  C   UNL     1       0.061  -2.847   0.036  0.00  0.00    +0.134 C 
BRANCH  25  32
ATOM     26  C   UNL     1      -1.147   1.681  -0.042  0.00  0.00    +0.001 A 
ATOM     27  C   UNL     1      -0.052   2.534  -0.018  0.00  0.00    +0.002 A 
ATOM     28  C   UNL     1       1.229   2.030   0.022  0.00  0.00    +0.026 A 
ATOM     29  C   UNL     1       1.431   0.654   0.041  0.00  0.00    +0.047 A 
ATOM     30  C   UNL     1       0.317  -0.206   0.018  0.00  0.00    +0.003 A 
ATOM     31  C   UNL     1      -0.973   0.326  -0.024  0.00  0.00    +0.010 A 
ATOM     32  C   UNL     1       0.857  -1.567   0.046  0.00  0.00    -0.014 A 
ATOM     33  C   UNL     1       2.194  -1.459   0.083  0.00  0.00    +0.087 A 
ATOM     34  N   UNL     1       2.555  -0.140   0.081  0.00  0.00    -0.360 N 
ATOM     35  H   UNL     1       3.468   0.188   0.103  0.00  0.00    +0.165 HD
ENDBRANCH  25  32
ENDBRANCH  21  25
ENDBRANCH   1  23
TORSDOF 5
