REMARK  Name = ZINC20723464
REMARK  9 active torsions:
REMARK  status: ('A' for Active; 'I' for Inactive)
REMARK    1  A    between atoms: C_1  and  C_2
REMARK    2  A    between atoms: C_2  and  C_3
REMARK    3  A    between atoms: C_2  and  C_4
REMARK    4  A    between atoms: C_4  and  C_5
REMARK    5  A    between atoms: C_5  and  C_7
REMARK    6  A    between atoms: C_5  and  N_11
REMARK    7  A    between atoms: C_7  and  O_9
REMARK    8  A    between atoms: O_9  and  C_10
REMARK    9  A    between atoms: C_23  and  C_25
REMARK                            x       y       z     vdW  Elec       q    Type
REMARK                         _______ _______ _______ _____ _____    ______ ____
ROOT
ATOM      1  N   UNL     1       4.115   1.081  -0.377  0.00  0.00    -0.286 N 
ATOM      2  C   UNL     1       3.090   1.724  -0.971  0.00  0.00    +0.304 C 
ATOM      3  O   UNL     1       2.203   1.088  -1.507  0.00  0.00    -0.253 OA
ATOM      4  N   UNL     1       3.047   3.071  -0.970  0.00  0.00    -0.273 N 
ATOM      5  C   UNL     1       1.883   3.789  -1.510  0.00  0.00    +0.116 C 
ATOM      6  C   UNL     1       1.200   4.565  -0.377  0.00  0.00    +0.076 C 
ATOM      7  C   UNL     1       2.256   5.275   0.433  0.00  0.00    +0.066 A 
ATOM      8  C   UNL     1       3.569   4.962   0.416  0.00  0.00    +0.064 A 
ATOM      9  N   UNL     1       4.198   5.812   1.271  0.00  0.00    -0.346 N 
ATOM     10  H   UNL     1       5.147   5.830   1.473  0.00  0.00    +0.167 HD
ATOM     11  C   UNL     1       3.249   6.626   1.788  0.00  0.00    +0.197 A 
ATOM     12  N   UNL     1       2.090   6.297   1.279  0.00  0.00    -0.240 NA
ATOM     13  C   UNL     1       4.164   3.862  -0.421  0.00  0.00    +0.156 C 
ATOM     14  H   UNL     1       4.859   1.587  -0.013  0.00  0.00    +0.151 HD
ENDROOT
BRANCH  13  15
ATOM     15  C   UNL     1       4.971   4.458  -1.546  0.00  0.00    -0.021 A 
ATOM     16  C   UNL     1       4.393   5.379  -2.399  0.00  0.00    +0.007 A 
ATOM     17  C   UNL     1       5.133   5.926  -3.430  0.00  0.00    +0.020 A 
ATOM     18  C   UNL     1       6.452   5.551  -3.609  0.00  0.00    +0.041 A 
ATOM     19  C   UNL     1       7.031   4.630  -2.755  0.00  0.00    +0.020 A 
ATOM     20  C   UNL     1       6.292   4.088  -1.720  0.00  0.00    +0.007 A 
ATOM     21 CL   UNL     1       7.382   6.237  -4.904  0.00  0.00    -0.084 Cl
ENDBRANCH  13  15
BRANCH   1  22
ATOM     22  C   UNL     1       4.107  -0.381  -0.283  0.00  0.00    +0.183 C 
BRANCH  22  23
ATOM     23  C   UNL     1       3.328  -0.801   0.936  0.00  0.00    +0.327 C 
ATOM     24  O   UNL     1       2.830   0.034   1.653  0.00  0.00    -0.249 OA
BRANCH  23  25
ATOM     25  O   UNL     1       3.187  -2.104   1.226  0.00  0.00    -0.467 OA
ATOM     26  C   UNL     1       2.435  -2.431   2.397  0.00  0.00    +0.280 C 
ENDBRANCH  23  25
ENDBRANCH  22  23
BRANCH  22  27
ATOM     27  C   UNL     1       5.545  -0.892  -0.171  0.00  0.00    +0.036 C 
BRANCH  27  29
ATOM     28  C   UNL     1       7.790  -0.904  -1.268  0.00  0.00    +0.007 C 
ATOM     29  C   UNL     1       6.317  -0.527  -1.440  0.00  0.00    -0.015 C 
ATOM     30  C   UNL     1       5.731  -1.289  -2.630  0.00  0.00    +0.007 C 
ENDBRANCH  27  29
ENDBRANCH  22  27
ENDBRANCH   1  22
TORSDOF 6
