REMARK  Name = ZINC10067566
REMARK  14 active torsions:
REMARK  status: ('A' for Active; 'I' for Inactive)
REMARK    1  A    between atoms: C_1  and  C_2
REMARK    2  A    between atoms: C_2  and  O_3
REMARK    3  A    between atoms: O_3  and  C_4
REMARK    4  A    between atoms: N_13  and  C_14
REMARK    5  A    between atoms: C_14  and  C_15
REMARK    6  A    between atoms: C_15  and  C_16
REMARK    7  A    between atoms: C_16  and  N_63
REMARK    8  A    between atoms: C_17  and  N_63
REMARK    9  A    between atoms: C_18  and  N_63
REMARK   10  A    between atoms: C_19  and  C_21
REMARK   11  A    between atoms: C_24  and  S_27
REMARK   12  A    between atoms: S_27  and  N_30
REMARK   13  A    between atoms: N_30  and  C_31
REMARK   14  A    between atoms: N_30  and  C_32
REMARK                            x       y       z     vdW  Elec       q    Type
REMARK                         _______ _______ _______ _____ _____    ______ ____
ROOT
ATOM      1  C   UNL     1       0.305  -0.293   1.517  0.00  0.00    +0.122 A 
ATOM      2  C   UNL     1       0.146   1.060   1.232  0.00  0.00    +0.048 A 
ATOM      3  C   UNL     1       1.199   1.833   0.821  0.00  0.00    +0.032 A 
ATOM      4  C   UNL     1       2.491   1.276   0.671  0.00  0.00    +0.081 A 
ATOM      5  C   UNL     1       2.618  -0.100   0.968  0.00  0.00    +0.044 A 
ATOM      6  C   UNL     1       1.559  -0.870   1.380  0.00  0.00    +0.063 A 
ATOM      7  S   UNL     1       4.343  -0.395   0.662  0.00  0.00    -0.052 S 
ATOM      8  C   UNL     1       4.773   1.270   0.176  0.00  0.00    +0.168 A 
ATOM      9  N   UNL     1       3.625   1.897   0.278  0.00  0.00    -0.224 NA
ATOM     10  N   UNL     1       6.005   1.771  -0.210  0.00  0.00    -0.246 N 
ATOM     11  C   UNL     1       7.080   0.958  -0.253  0.00  0.00    +0.252 C 
ATOM     12  O   UNL     1       6.995  -0.184   0.154  0.00  0.00    -0.270 OA
ENDROOT
BRANCH  11  13
ATOM     13  C   UNL     1       8.362   1.456  -0.794  0.00  0.00    +0.037 A 
ATOM     14  C   UNL     1       8.864   2.692  -0.382  0.00  0.00    +0.015 A 
ATOM     15  C   UNL     1      10.064   3.148  -0.887  0.00  0.00    +0.029 A 
ATOM     16  C   UNL     1      10.764   2.389  -1.809  0.00  0.00    +0.105 A 
ATOM     17  C   UNL     1      10.268   1.166  -2.226  0.00  0.00    +0.029 A 
ATOM     18  C   UNL     1       9.073   0.696  -1.724  0.00  0.00    +0.015 A 
BRANCH  16  19
ATOM     19  S   UNL     1      12.292   2.983  -2.454  0.00  0.00    +0.060 S 
ATOM     20  O   UNL     1      12.808   3.899  -1.498  0.00  0.00    -0.153 OA
ATOM     21  O   UNL     1      13.021   1.842  -2.887  0.00  0.00    -0.153 OA
BRANCH  19  22
ATOM     22  N   UNL     1      11.941   3.864  -3.812  0.00  0.00    -0.183 NA
ATOM     23  C   UNL     1      11.678   5.301  -3.705  0.00  0.00    +0.131 C 
ATOM     24  C   UNL     1      11.894   3.205  -5.120  0.00  0.00    +0.131 C 
ENDBRANCH  19  22
ENDBRANCH  16  19
ENDBRANCH  11  13
BRANCH   1  25
ATOM     25  O   UNL     1      -0.755  -1.041   1.924  0.00  0.00    -0.492 OA
BRANCH  25  27
ATOM     26  C   UNL     1      -3.078  -1.367   2.507  0.00  0.00    +0.048 C 
ATOM     27  C   UNL     1      -2.013  -0.373   2.041  0.00  0.00    +0.225 C 
ENDBRANCH  25  27
ENDBRANCH   1  25
BRANCH  10  28
ATOM     28  C   UNL     1       6.141   3.184  -0.573  0.00  0.00    +0.114 C 
BRANCH  28  29
ATOM     29  C   UNL     1       6.273   4.026   0.698  0.00  0.00    +0.001 C 
BRANCH  29  30
ATOM     30  C   UNL     1       6.556   5.481   0.318  0.00  0.00    -0.078 C 
BRANCH  30  33
ATOM     31  C   UNL     1       7.868   5.893   2.311  0.00  0.00    -0.097 C 
ATOM     32  C   UNL     1       6.718   7.723   1.218  0.00  0.00    -0.097 C 
ATOM     33  N   UNL     1       6.660   6.285   1.554  0.00  0.00    +0.376 N 
ATOM     34  H   UNL     1       5.831   6.111   2.135  0.00  0.00    -0.083 HD
ENDBRANCH  30  33
ENDBRANCH  29  30
ENDBRANCH  28  29
ENDBRANCH  10  28
TORSDOF 9
