REMARK  Name = ZINC54982172
REMARK  5 active torsions:
REMARK  status: ('A' for Active; 'I' for Inactive)
REMARK    1  A    between atoms: C_3  and  N_13
REMARK    2  A    between atoms: C_4  and  N_10
REMARK    3  A    between atoms: C_6  and  C_7
REMARK    4  A    between atoms: N_13  and  C_14
REMARK    5  A    between atoms: N_23  and  C_25
REMARK                            x       y       z     vdW  Elec       q    Type
REMARK                         _______ _______ _______ _____ _____    ______ ____
ROOT
ATOM      1  N   UNL     1       3.607   1.989   0.472  0.00  0.00    -0.339 N 
ATOM      2  H   UNL     1       4.428   1.474   0.523  0.00  0.00    +0.146 HD
ENDROOT
BRANCH   1   3
ATOM      3  C   UNL     1       3.642   3.440   0.646  0.00  0.00    +0.073 C 
ATOM      4  C   UNL     1       3.379   3.807   2.109  0.00  0.00    -0.007 C 
ATOM      5  C   UNL     1       3.307   5.324   2.243  0.00  0.00    +0.003 C 
ATOM      6  C   UNL     1       4.553   6.020   1.720  0.00  0.00    +0.001 C 
ATOM      7  C   UNL     1       5.002   5.509   0.360  0.00  0.00    +0.003 C 
ATOM      8  C   UNL     1       5.024   3.986   0.281  0.00  0.00    -0.007 C 
ATOM      9  C   UNL     1       6.085   3.392   1.194  0.00  0.00    -0.073 C 
ATOM     10  N   UNL     1       5.809   3.597   2.611  0.00  0.00    +0.382 N 
ATOM     11  C   UNL     1       4.456   3.214   3.003  0.00  0.00    -0.073 C 
ATOM     12  H   UNL     1       5.990   4.554   2.869  0.00  0.00    -0.081 HD
BRANCH  10  13
ATOM     13  C   UNL     1       6.754   2.778   3.382  0.00  0.00    -0.069 C 
ATOM     14  C   UNL     1       7.549   3.471   4.491  0.00  0.00    -0.017 C 
ATOM     15  C   UNL     1       8.246   3.056   3.194  0.00  0.00    -0.017 C 
ENDBRANCH  10  13
ENDBRANCH   1   3
BRANCH   1  18
ATOM     16  C   UNL     1       0.008   1.433   0.048  0.00  0.00    +0.015 A 
ATOM     17  C   UNL     1       1.207   2.066   0.284  0.00  0.00    +0.026 A 
ATOM     18  C   UNL     1       2.397   1.346   0.234  0.00  0.00    +0.058 A 
ATOM     19  C   UNL     1       2.379  -0.016  -0.056  0.00  0.00    +0.148 A 
ATOM     20  C   UNL     1       1.184  -0.654  -0.293  0.00  0.00    +0.047 A 
ATOM     21  C   UNL     1      -0.014   0.066  -0.242  0.00  0.00    +0.039 A 
BRANCH  21  22
ATOM     22  C   UNL     1      -1.297  -0.616  -0.495  0.00  0.00    +0.242 C 
ATOM     23  O   UNL     1      -1.315  -1.805  -0.748  0.00  0.00    -0.270 OA
ATOM     24  N   UNL     1      -2.451   0.079  -0.446  0.00  0.00    -0.325 N 
ATOM     25  H   UNL     1      -2.437   1.028  -0.245  0.00  0.00    +0.145 HD
ATOM     26  H   UNL     1      -3.295  -0.369  -0.613  0.00  0.00    +0.145 HD
ENDBRANCH  21  22
BRANCH  19  27
ATOM     27  N   UNL     1       3.647  -0.777  -0.109  0.00  0.00    +0.058 N 
ATOM     28  O   UNL     1       4.641  -0.265  -0.570  0.00  0.00    -0.126 OA
ATOM     29  O   UNL     1       3.690  -1.911   0.308  0.00  0.00    -0.126 OA
ENDBRANCH  19  27
ENDBRANCH   1  18
TORSDOF 5
