REMARK  Name = ZINC13515869
REMARK  11 active torsions:
REMARK  status: ('A' for Active; 'I' for Inactive)
REMARK    1  A    between atoms: C_1  and  C_2
REMARK    2  A    between atoms: C_4  and  C_37
REMARK    3  A    between atoms: C_6  and  N_8
REMARK    4  A    between atoms: C_9  and  C_36
REMARK    5  A    between atoms: N_18  and  C_23
REMARK    6  A    between atoms: N_21  and  C_22
REMARK    7  A    between atoms: C_23  and  C_24
REMARK    8  A    between atoms: C_24  and  C_25
REMARK    9  A    between atoms: C_25  and  N_26
REMARK   10  A    between atoms: C_28  and  C_35
REMARK   11  A    between atoms: C_31  and  C_34
REMARK                            x       y       z     vdW  Elec       q    Type
REMARK                         _______ _______ _______ _____ _____    ______ ____
ROOT
ATOM      1  N   UNL     1       0.055  -2.798   2.393  0.00  0.00    -0.283 N 
ATOM      2  C   UNL     1      -0.021  -4.172   2.533  0.00  0.00    +0.040 A 
ATOM      3  C   UNL     1       0.018  -4.460   3.831  0.00  0.00    +0.116 A 
ATOM      4  N   UNL     1       0.120  -3.275   4.538  0.00  0.00    -0.277 N 
ATOM      5  C   UNL     1       0.148  -2.254   3.650  0.00  0.00    +0.223 A 
ATOM      6  N   UNL     1       0.253  -1.107   4.304  0.00  0.00    -0.193 NA
ATOM      7  C   UNL     1       0.299  -1.335   5.614  0.00  0.00    +0.170 A 
ATOM      8  C   UNL     1       0.209  -2.713   5.803  0.00  0.00    +0.157 A 
ATOM      9  C   UNL     1       0.235  -3.229   7.109  0.00  0.00    +0.283 A 
ATOM     10  O   UNL     1       0.172  -4.431   7.298  0.00  0.00    -0.265 OA
ATOM     11  N   UNL     1       0.332  -2.379   8.153  0.00  0.00    -0.259 N 
ATOM     12  C   UNL     1       0.403  -1.051   7.962  0.00  0.00    +0.333 A 
ATOM     13  O   UNL     1       0.490  -0.317   8.928  0.00  0.00    -0.246 OA
ATOM     14  N   UNL     1       0.404  -0.514   6.727  0.00  0.00    -0.279 N 
ATOM     15  C   UNL     1       0.490   0.939   6.560  0.00  0.00    +0.155 C 
ATOM     16  C   UNL     1      -0.131  -5.170   1.409  0.00  0.00    +0.065 C 
ENDROOT
BRANCH   1  22
ATOM     17  C   UNL     1      -2.193   0.338  -0.655  0.00  0.00    +0.044 C 
ATOM     18  C   UNL     1      -1.033  -0.563  -0.317  0.00  0.00    -0.048 A 
ATOM     19  C   UNL     1       0.023  -0.690  -1.201  0.00  0.00    +0.006 A 
ATOM     20  C   UNL     1       1.090  -1.515  -0.894  0.00  0.00    -0.048 A 
ATOM     21  C   UNL     1       1.103  -2.215   0.296  0.00  0.00    +0.029 A 
ATOM     22  C   UNL     1       0.044  -2.089   1.186  0.00  0.00    +0.050 A 
ATOM     23  C   UNL     1      -1.022  -1.256   0.877  0.00  0.00    +0.029 A 
ATOM     24  C   UNL     1       2.239  -1.651  -1.860  0.00  0.00    +0.044 C 
ENDBRANCH   1  22
BRANCH  11  25
ATOM     25  C   UNL     1       0.359  -2.914   9.517  0.00  0.00    +0.128 C 
BRANCH  25  26
ATOM     26  C   UNL     1       1.807  -3.187   9.929  0.00  0.00    +0.003 C 
BRANCH  26  27
ATOM     27  C   UNL     1       1.836  -3.745  11.353  0.00  0.00    -0.077 C 
BRANCH  27  28
ATOM     28  N   UNL     1       3.226  -4.006  11.749  0.00  0.00    +0.380 N 
ATOM     29  C   UNL     1       3.785  -5.064  10.897  0.00  0.00    -0.076 C 
ATOM     30  C   UNL     1       5.257  -5.284  11.251  0.00  0.00    -0.031 C 
ATOM     31  C   UNL     1       5.366  -5.699  12.721  0.00  0.00    +0.003 C 
ATOM     32  C   UNL     1       4.714  -4.624  13.595  0.00  0.00    -0.031 C 
ATOM     33  C   UNL     1       3.262  -4.428  13.154  0.00  0.00    -0.076 C 
ATOM     34  C   UNL     1       4.749  -5.065  15.060  0.00  0.00    +0.005 C 
ATOM     35  C   UNL     1       5.836  -6.387  10.363  0.00  0.00    +0.005 C 
ATOM     36  H   UNL     1       3.771  -3.164  11.637  0.00  0.00    -0.082 HD
ENDBRANCH  27  28
ENDBRANCH  26  27
ENDBRANCH  25  26
ENDBRANCH  11  25
TORSDOF 5
