REMARK  Name = ZINC39711365
REMARK  13 active torsions:
REMARK  status: ('A' for Active; 'I' for Inactive)
REMARK    1  A    between atoms: C_1  and  O_2
REMARK    2  A    between atoms: O_2  and  C_3
REMARK    3  A    between atoms: C_3  and  C_4
REMARK    4  A    between atoms: C_4  and  N_5
REMARK    5  A    between atoms: C_6  and  C_10
REMARK    6  A    between atoms: C_10  and  C_12
REMARK    7  A    between atoms: C_10  and  N_26
REMARK    8  A    between atoms: C_17  and  O_24
REMARK    9  A    between atoms: O_24  and  C_25
REMARK   10  A    between atoms: N_26  and  C_27
REMARK   11  A    between atoms: N_26  and  C_33
REMARK   12  A    between atoms: C_27  and  C_28
REMARK   13  A    between atoms: C_33  and  C_34
REMARK                            x       y       z     vdW  Elec       q    Type
REMARK                         _______ _______ _______ _____ _____    ______ ____
ROOT
ATOM      1  C   UNL     1       4.004  -3.167   1.119  0.00  0.00    +0.143 C 
ENDROOT
BRANCH   1   2
ATOM      2  C   UNL     1       4.715  -2.266   2.131  0.00  0.00    +0.123 C 
ATOM      3  C   UNL     1       4.131  -0.872   2.004  0.00  0.00    -0.003 C 
ATOM      4  C   UNL     1       3.574  -0.324   3.120  0.00  0.00    -0.003 A 
ATOM      5  C   UNL     1       2.989   1.017   3.084  0.00  0.00    +0.055 A 
ATOM      6  C   UNL     1       2.443   1.526   4.224  0.00  0.00    +0.121 A 
ATOM      7  C   UNL     1       2.435   0.791   5.416  0.00  0.00    +0.047 A 
ATOM      8  C   UNL     1       2.962  -0.456   5.510  0.00  0.00    +0.027 A 
ATOM      9  C   UNL     1       3.549  -1.072   4.389  0.00  0.00    +0.041 A 
ATOM     10  N   UNL     1       4.063  -2.297   4.496  0.00  0.00    -0.284 N 
ATOM     11  C   UNL     1       4.630  -2.933   3.486  0.00  0.00    +0.226 C 
ATOM     12  O   UNL     1       5.081  -4.052   3.645  0.00  0.00    -0.275 OA
ATOM     13  H   UNL     1       4.019  -2.743   5.356  0.00  0.00    +0.155 HD
BRANCH   6  14
ATOM     14  O   UNL     1       1.897   2.770   4.204  0.00  0.00    -0.495 OA
ATOM     15  C   UNL     1       1.338   3.253   5.427  0.00  0.00    +0.277 C 
ENDBRANCH   6  14
ENDBRANCH   1   2
BRANCH   1  17
ATOM     16  N   UNL     1       1.514  -2.802   0.708  0.00  0.00    -0.225 N 
ATOM     17  C   UNL     1       2.538  -3.246   1.459  0.00  0.00    +0.170 A 
ATOM     18  N   UNL     1       2.014  -3.762   2.544  0.00  0.00    -0.112 NA
ATOM     19  N   UNL     1       0.734  -3.641   2.463  0.00  0.00    -0.023 NA
ATOM     20  N   UNL     1       0.428  -3.056   1.358  0.00  0.00    -0.044 NA
BRANCH  16  21
ATOM     21  C   UNL     1       1.612  -2.147  -0.599  0.00  0.00    +0.175 C 
BRANCH  21  22
ATOM     22  C   UNL     1       1.559  -0.629  -0.413  0.00  0.00    +0.183 C 
BRANCH  22  24
ATOM     23  C   UNL     1       1.708   1.439  -1.616  0.00  0.00    +0.194 C 
ATOM     24  O   UNL     1       1.741   0.011  -1.678  0.00  0.00    -0.381 OA
ENDBRANCH  22  24
ENDBRANCH  21  22
ENDBRANCH  16  21
ENDBRANCH   1  17
BRANCH   1  25
ATOM     25  N   UNL     1       4.591  -4.513   1.164  0.00  0.00    -0.280 NA
BRANCH  25  26
ATOM     26  C   UNL     1       3.799  -5.459   0.368  0.00  0.00    +0.159 C 
BRANCH  26  27
ATOM     27  C   UNL     1       2.722  -6.063   1.232  0.00  0.00    +0.119 A 
ATOM     28  C   UNL     1       1.396  -5.945   1.034  0.00  0.00    +0.046 A 
ATOM     29  C   UNL     1       0.761  -6.663   2.073  0.00  0.00    +0.041 A 
ATOM     30  C   UNL     1       1.737  -7.178   2.843  0.00  0.00    +0.195 A 
ATOM     31  O   UNL     1       2.922  -6.816   2.326  0.00  0.00    -0.467 OA
ENDBRANCH  26  27
ENDBRANCH  25  26
BRANCH  25  32
ATOM     32  C   UNL     1       5.991  -4.492   0.718  0.00  0.00    +0.128 C 
BRANCH  32  33
ATOM     33  C   UNL     1       6.880  -4.104   1.872  0.00  0.00    +0.004 A 
ATOM     34  C   UNL     1       7.337  -4.871   2.892  0.00  0.00    +0.012 A 
ATOM     35  C   UNL     1       8.152  -4.296   3.849  0.00  0.00    +0.008 A 
ATOM     36  C   UNL     1       8.468  -2.983   3.740  0.00  0.00    +0.045 A 
ATOM     37  S   UNL     1       7.610  -2.519   2.245  0.00  0.00    -0.100 S 
ENDBRANCH  32  33
ENDBRANCH  25  32
ENDBRANCH   1  25
TORSDOF 11
