REMARK  Name = ZINC67000760
REMARK  7 active torsions:
REMARK  status: ('A' for Active; 'I' for Inactive)
REMARK    1  A    between atoms: C_1  and  O_2
REMARK    2  A    between atoms: O_2  and  C_3
REMARK    3  A    between atoms: C_4  and  N_10
REMARK    4  A    between atoms: C_11  and  C_13
REMARK    5  A    between atoms: N_15  and  C_16
REMARK    6  A    between atoms: C_16  and  C_17
REMARK    7  A    between atoms: C_17  and  O_27
REMARK                            x       y       z     vdW  Elec       q    Type
REMARK                         _______ _______ _______ _____ _____    ______ ____
ROOT
ATOM      1  C   UNL     1      -1.205  -0.418   4.881  0.00  0.00    +0.299 C 
ATOM      2  O   UNL     1      -0.130   0.145   4.873  0.00  0.00    -0.265 OA
ATOM      3  N   UNL     1      -1.839  -0.645   6.048  0.00  0.00    -0.305 N 
ATOM      4  H   UNL     1      -2.698  -1.095   6.054  0.00  0.00    +0.149 HD
ENDROOT
BRANCH   1   6
ATOM      5  N   UNL     1      -1.191  -0.634   2.429  0.00  0.00    -0.275 N 
ATOM      6  C   UNL     1      -1.825  -0.861   3.596  0.00  0.00    +0.303 C 
ATOM      7  O   UNL     1      -2.900  -1.424   3.604  0.00  0.00    -0.265 OA
ATOM      8  H   UNL     1      -0.304  -0.242   2.427  0.00  0.00    +0.155 HD
BRANCH   5  10
ATOM      9  C   UNL     1      -1.607  -0.175   0.090  0.00  0.00    +0.159 A 
ATOM     10  C   UNL     1      -1.813  -0.964   1.220  0.00  0.00    +0.077 A 
ATOM     11  C   UNL     1      -2.637  -2.078   1.142  0.00  0.00    +0.027 A 
ATOM     12  C   UNL     1      -3.250  -2.403  -0.053  0.00  0.00    +0.003 A 
ATOM     13  C   UNL     1      -3.045  -1.620  -1.174  0.00  0.00    +0.024 A 
ATOM     14  C   UNL     1      -2.229  -0.504  -1.104  0.00  0.00    +0.084 A 
ATOM     15 CL   UNL     1      -1.981   0.480  -2.513  0.00  0.00    -0.080 Cl
BRANCH   9  17
ATOM     16  C   UNL     1      -1.418   2.157   0.517  0.00  0.00    +0.277 C 
ATOM     17  O   UNL     1      -0.801   0.918   0.160  0.00  0.00    -0.492 OA
ENDBRANCH   9  17
ENDBRANCH   5  10
ENDBRANCH   1   6
BRANCH   3  18
ATOM     18  C   UNL     1      -1.231  -0.211   7.308  0.00  0.00    +0.144 C 
BRANCH  18  19
ATOM     19  C   UNL     1      -2.086  -0.695   8.481  0.00  0.00    +0.107 C 
ATOM     20  C   UNL     1      -3.498  -0.127   8.342  0.00  0.00    +0.041 C 
ATOM     21  C   UNL     1      -4.273  -0.439   9.628  0.00  0.00    +0.008 C 
ATOM     22  C   UNL     1      -3.695   0.412  10.757  0.00  0.00    +0.035 C 
ATOM     23  C   UNL     1      -2.197   0.262  10.820  0.00  0.00    -0.041 A 
ATOM     24  C   UNL     1      -1.458  -0.243   9.774  0.00  0.00    -0.011 A 
ATOM     25  C   UNL     1      -0.079  -0.349   9.894  0.00  0.00    +0.007 A 
ATOM     26  C   UNL     1       0.556   0.043  11.055  0.00  0.00    +0.000 A 
ATOM     27  C   UNL     1      -0.187   0.546  12.107  0.00  0.00    +0.000 A 
ATOM     28  C   UNL     1      -1.557   0.654  11.988  0.00  0.00    +0.004 A 
BRANCH  19  29
ATOM     29  O   UNL     1      -2.149  -2.122   8.461  0.00  0.00    -0.382 OA
ATOM     30  H   UNL     1      -1.288  -2.555   8.537  0.00  0.00    +0.211 HD
ENDBRANCH  19  29
ENDBRANCH  18  19
ENDBRANCH   3  18
TORSDOF 6
