REMARK  Name = ZINC20707589
REMARK  5 active torsions:
REMARK  status: ('A' for Active; 'I' for Inactive)
REMARK    1  A    between atoms: C_4  and  O_31
REMARK    2  A    between atoms: C_5  and  C_7
REMARK    3  A    between atoms: C_20  and  O_23
REMARK    4  A    between atoms: O_23  and  C_24
REMARK    5  A    between atoms: C_24  and  C_25
REMARK                            x       y       z     vdW  Elec       q    Type
REMARK                         _______ _______ _______ _____ _____    ______ ____
ROOT
ATOM      1  C   UNL     1      -5.649   7.455  -0.635  0.00  0.00    +0.109 C 
ATOM      2  C   UNL     1      -7.108   7.145  -0.374  0.00  0.00    +0.029 C 
ATOM      3  C   UNL     1      -8.138   8.247  -0.647  0.00  0.00    +0.033 C 
ATOM      4  C   UNL     1      -9.230   7.902   0.368  0.00  0.00    -0.030 C 
ATOM      5  C   UNL     1      -8.702   7.247   1.396  0.00  0.00    -0.023 C 
ATOM      6  C   UNL     1      -7.238   7.133   1.181  0.00  0.00    +0.049 C 
ATOM      7  C   UNL     1      -6.449   5.979   1.664  0.00  0.00    -0.016 A 
ATOM      8  C   UNL     1      -6.821   5.264   2.785  0.00  0.00    +0.006 A 
ATOM      9  C   UNL     1      -6.047   4.213   3.237  0.00  0.00    +0.004 A 
ATOM     10  C   UNL     1      -4.892   3.872   2.558  0.00  0.00    +0.047 A 
ATOM     11  C   UNL     1      -4.513   4.578   1.433  0.00  0.00    +0.142 A 
ATOM     12  C   UNL     1      -5.293   5.640   0.959  0.00  0.00    +0.074 A 
ATOM     13  N   UNL     1      -4.873   6.279  -0.209  0.00  0.00    -0.334 N 
ATOM     14  H   UNL     1      -4.010   5.945  -0.803  0.00  0.00    +0.147 HD
ENDROOT
BRANCH   1  19
ATOM     15  C   UNL     1      -4.283   9.611   2.148  0.00  0.00    +0.001 A 
ATOM     16  C   UNL     1      -4.460  10.881   1.630  0.00  0.00    +0.004 A 
ATOM     17  C   UNL     1      -5.022  11.046   0.380  0.00  0.00    +0.046 A 
ATOM     18  C   UNL     1      -5.404   9.935  -0.360  0.00  0.00    +0.122 A 
ATOM     19  C   UNL     1      -5.230   8.663   0.164  0.00  0.00    +0.014 A 
ATOM     20  C   UNL     1      -4.667   8.503   1.415  0.00  0.00    +0.009 A 
BRANCH  18  21
ATOM     21  O   UNL     1      -5.952  10.095  -1.593  0.00  0.00    -0.506 OA
ATOM     22  H   UNL     1      -6.255   9.214  -2.179  0.00  0.00    +0.292 HD
ENDBRANCH  18  21
ENDBRANCH   1  19
BRANCH  11  23
ATOM     23  O   UNL     1      -3.373   4.235   0.776  0.00  0.00    -0.488 OA
BRANCH  23  24
ATOM     24  C   UNL     1      -2.620   3.143   1.309  0.00  0.00    +0.260 C 
BRANCH  24  25
ATOM     25  C   UNL     1      -1.381   2.907   0.443  0.00  0.00    +0.156 C 
ATOM     26  C   UNL     1      -0.530   1.737   1.006  0.00  0.00    +0.037 C 
ATOM     27  C   UNL     1       0.228   1.256  -0.255  0.00  0.00    +0.031 C 
ATOM     28  C   UNL     1      -0.615   1.784  -1.432  0.00  0.00    +0.160 C 
ATOM     29  O   UNL     1      -1.760   2.448  -0.873  0.00  0.00    -0.373 OA
ENDBRANCH  24  25
ENDBRANCH  23  24
ENDBRANCH  11  23
TORSDOF 5
