REMARK  Name = ZINC04085132
REMARK  5 active torsions:
REMARK  status: ('A' for Active; 'I' for Inactive)
REMARK    1  A    between atoms: C_4  and  C_7
REMARK    2  A    between atoms: C_7  and  C_8
REMARK    3  A    between atoms: C_8  and  N_9
REMARK    4  A    between atoms: C_14  and  C_30
REMARK    5  A    between atoms: C_30  and  C_31
REMARK                            x       y       z     vdW  Elec       q    Type
REMARK                         _______ _______ _______ _____ _____    ______ ____
ROOT
ATOM      1  N   UNL     1      -3.836  -2.968  -1.611  0.00  0.00    -0.241 N 
ATOM      2  C   UNL     1      -3.431  -2.319  -0.514  0.00  0.00    +0.224 C 
ATOM      3  O   UNL     1      -3.898  -1.279  -0.102  0.00  0.00    -0.275 OA
ATOM      4  C   UNL     1      -2.300  -3.085   0.134  0.00  0.00    +0.073 C 
ATOM      5  C   UNL     1      -0.993  -2.276  -0.001  0.00  0.00    -0.049 C 
ATOM      6  C   UNL     1      -0.707  -4.125  -1.399  0.00  0.00    +0.050 C 
ATOM      7  C   UNL     1      -2.103  -4.317  -0.793  0.00  0.00    +0.088 C 
ATOM      8  C   UNL     1      -3.166  -4.098  -1.868  0.00  0.00    +0.225 C 
ATOM      9  O   UNL     1      -3.373  -4.837  -2.806  0.00  0.00    -0.275 OA
ATOM     10  C   UNL     1       0.327  -4.932  -0.668  0.00  0.00    -0.028 A 
ATOM     11  C   UNL     1       0.760  -4.958   0.639  0.00  0.00    +0.004 A 
ATOM     12  C   UNL     1       1.757  -5.838   1.022  0.00  0.00    +0.000 A 
ATOM     13  C   UNL     1       2.318  -6.690   0.088  0.00  0.00    +0.002 A 
ATOM     14  C   UNL     1       1.889  -6.666  -1.223  0.00  0.00    +0.023 A 
ATOM     15  C   UNL     1       0.886  -5.784  -1.616  0.00  0.00    +0.036 A 
ATOM     16  N   UNL     1       0.292  -5.574  -2.863  0.00  0.00    -0.286 N 
ATOM     17  C   UNL     1      -0.653  -4.614  -2.820  0.00  0.00    +0.211 C 
ATOM     18  O   UNL     1      -1.328  -4.221  -3.748  0.00  0.00    -0.277 OA
ATOM     19  H   UNL     1       0.531  -6.063  -3.666  0.00  0.00    +0.155 HD
ATOM     20  N   UNL     1      -0.443  -2.701  -1.290  0.00  0.00    +0.394 N 
ATOM     21  H   UNL     1       0.568  -2.525  -1.320  0.00  0.00    -0.083 HD
ATOM     22  H   UNL     1      -0.901  -2.195  -2.056  0.00  0.00    -0.083 HD
ENDROOT
BRANCH   1  23
ATOM     23  C   UNL     1      -4.924  -2.482  -2.463  0.00  0.00    +0.121 C 
BRANCH  23  24
ATOM     24  C   UNL     1      -4.353  -1.568  -3.549  0.00  0.00    +0.054 C 
BRANCH  24  28
ATOM     25  C   UNL     1      -7.526  -0.149  -6.032  0.00  0.00    +0.000 A 
ATOM     26  C   UNL     1      -7.154   0.567  -4.909  0.00  0.00    +0.000 A 
ATOM     27  C   UNL     1      -6.127   0.107  -4.106  0.00  0.00    +0.004 A 
ATOM     28  C   UNL     1      -5.472  -1.068  -4.425  0.00  0.00    -0.046 A 
ATOM     29  C   UNL     1      -5.841  -1.780  -5.551  0.00  0.00    +0.004 A 
ATOM     30  C   UNL     1      -6.871  -1.324  -6.351  0.00  0.00    +0.000 A 
ENDBRANCH  24  28
ENDBRANCH  23  24
ENDBRANCH   1  23
BRANCH   5  31
ATOM     31  C   UNL     1      -1.293  -0.775   0.010  0.00  0.00    +0.080 C 
BRANCH  31  32
ATOM     32  C   UNL     1       0.002  -0.004   0.002  0.00  0.00    +0.209 C 
ATOM     33  O   UNL     1       1.060  -0.596  -0.011  0.00  0.00    -0.276 OA
ATOM     34  N   UNL     1      -0.016   1.344   0.009  0.00  0.00    -0.329 N 
ATOM     35  H   UNL     1       0.817   1.840   0.004  0.00  0.00    +0.145 HD
ATOM     36  H   UNL     1      -0.863   1.817   0.016  0.00  0.00    +0.145 HD
ENDBRANCH  31  32
ENDBRANCH   5  31
TORSDOF 5
