REMARK  Name = ZINC22501145
REMARK  8 active torsions:
REMARK  status: ('A' for Active; 'I' for Inactive)
REMARK    1  A    between atoms: C_1  and  C_2
REMARK    2  A    between atoms: C_8  and  C_10
REMARK    3  A    between atoms: C_10  and  C_12
REMARK    4  A    between atoms: C_10  and  O_13
REMARK    5  A    between atoms: O_13  and  C_14
REMARK    6  A    between atoms: C_14  and  C_16
REMARK    7  A    between atoms: C_18  and  S_24
REMARK    8  A    between atoms: S_24  and  N_27
REMARK                            x       y       z     vdW  Elec       q    Type
REMARK                         _______ _______ _______ _____ _____    ______ ____
ROOT
ATOM      1  C   UNL     1      -5.504  -0.635   2.260  0.00  0.00    +0.341 C 
ATOM      2  O   UNL     1      -6.388  -1.470   2.257  0.00  0.00    -0.245 OA
ENDROOT
BRANCH   1   3
ATOM      3  C   UNL     1      -4.606  -0.508   1.097  0.00  0.00    +0.079 A 
ATOM      4  C   UNL     1      -3.585   0.447   1.099  0.00  0.00    +0.046 A 
ATOM      5  C   UNL     1      -2.752   0.564   0.008  0.00  0.00    +0.124 A 
ATOM      6  C   UNL     1      -2.917  -0.269  -1.087  0.00  0.00    +0.069 A 
ATOM      7  C   UNL     1      -3.923  -1.220  -1.096  0.00  0.00    +0.042 A 
ATOM      8  C   UNL     1      -4.768  -1.345  -0.011  0.00  0.00    +0.056 A 
ATOM      9 CL   UNL     1      -6.028  -2.538  -0.023  0.00  0.00    -0.083 Cl
ATOM     10 CL   UNL     1      -1.859  -0.118  -2.455  0.00  0.00    -0.081 Cl
BRANCH   5  11
ATOM     11  S   UNL     1      -1.468   1.771   0.008  0.00  0.00    +0.057 S 
ATOM     12  O   UNL     1      -1.539   2.439   1.261  0.00  0.00    -0.153 OA
ATOM     13  O   UNL     1      -1.561   2.463  -1.230  0.00  0.00    -0.153 OA
BRANCH  11  14
ATOM     14  N   UNL     1      -0.028   0.955  -0.012  0.00  0.00    -0.203 NA
ATOM     15  H   UNL     1       0.802   1.676  -0.013  0.00  0.00    +0.144 HD
ATOM     16  H   UNL     1       0.027   0.331  -0.917  0.00  0.00    +0.144 HD
ENDBRANCH  11  14
ENDBRANCH   5  11
ENDBRANCH   1   3
BRANCH   1  17
ATOM     17  O   UNL     1      -5.345   0.173   3.326  0.00  0.00    -0.449 OA
BRANCH  17  18
ATOM     18  C   UNL     1      -6.265  -0.009   4.435  0.00  0.00    +0.259 C 
ATOM     19  C   UNL     1      -7.490   0.885   4.232  0.00  0.00    +0.062 C 
BRANCH  18  27
ATOM     20  C   UNL     1      -8.910   1.212   9.954  0.00  0.00    +0.007 C 
ATOM     21  C   UNL     1      -7.867   0.450   9.134  0.00  0.00    -0.011 C 
ATOM     22  C   UNL     1      -6.622   1.322   8.957  0.00  0.00    +0.022 C 
ATOM     23  C   UNL     1      -5.566   0.543   8.165  0.00  0.00    +0.108 C 
ATOM     24  N   UNL     1      -6.165   0.084   6.904  0.00  0.00    -0.298 N 
ATOM     25  C   UNL     1      -7.418  -0.682   6.955  0.00  0.00    +0.108 C 
ATOM     26  C   UNL     1      -8.450   0.106   7.761  0.00  0.00    +0.022 C 
ATOM     27  C   UNL     1      -5.579   0.363   5.723  0.00  0.00    +0.256 C 
ATOM     28  O   UNL     1      -4.499   0.915   5.698  0.00  0.00    -0.272 OA
ENDBRANCH  18  27
ENDBRANCH  17  18
ENDBRANCH   1  17
TORSDOF 6
