REMARK  Name = ZINC13581985
REMARK  2 active torsions:
REMARK  status: ('A' for Active; 'I' for Inactive)
REMARK    1  A    between atoms: C_7  and  C_11
REMARK    2  A    between atoms: C_12  and  C_17
REMARK                            x       y       z     vdW  Elec       q    Type
REMARK                         _______ _______ _______ _____ _____    ______ ____
ROOT
ATOM      1  C   UNL     1       3.676  -0.812  -0.168  0.00  0.00    +0.051 A 
ATOM      2  C   UNL     1       3.919  -2.168   0.053  0.00  0.00    +0.106 A 
ATOM      3  N   UNL     1       5.170  -2.582   0.137  0.00  0.00    -0.223 NA
ATOM      4  C   UNL     1       6.186  -1.742   0.026  0.00  0.00    +0.157 A 
ATOM      5  S   UNL     1       5.349  -0.184  -0.233  0.00  0.00    -0.052 S 
ATOM      6  N   UNL     1       7.541  -2.001   0.094  0.00  0.00    -0.337 N 
ATOM      7  H   UNL     1       8.179  -1.277  -0.006  0.00  0.00    +0.144 HD
ATOM      8  H   UNL     1       7.855  -2.907   0.241  0.00  0.00    +0.144 HD
ENDROOT
BRANCH   1  15
ATOM      9  C   UNL     1       2.747   2.788   2.050  0.00  0.00    +0.001 A 
ATOM     10  C   UNL     1       1.518   3.419   1.877  0.00  0.00    +0.002 A 
ATOM     11  C   UNL     1       0.588   2.923   1.014  0.00  0.00    +0.028 A 
ATOM     12  C   UNL     1       0.868   1.755   0.284  0.00  0.00    +0.072 A 
ATOM     13  C   UNL     1       2.119   1.118   0.464  0.00  0.00    +0.009 A 
ATOM     14  C   UNL     1       3.052   1.653   1.357  0.00  0.00    +0.010 A 
ATOM     15  C   UNL     1       2.399  -0.098  -0.304  0.00  0.00    +0.002 A 
ATOM     16  C   UNL     1       1.400  -0.549  -1.170  0.00  0.00    +0.029 A 
ATOM     17  C   UNL     1       0.211   0.156  -1.265  0.00  0.00    +0.112 A 
ATOM     18  N   UNL     1      -0.024   1.243  -0.571  0.00  0.00    -0.255 NA
ENDBRANCH   1  15
BRANCH   2  19
ATOM     19  C   UNL     1       2.798  -3.125   0.187  0.00  0.00    +0.092 A 
ATOM     20  C   UNL     1       2.991  -4.467  -0.138  0.00  0.00    +0.050 A 
ATOM     21  C   UNL     1       1.932  -5.349  -0.007  0.00  0.00    +0.044 A 
ATOM     22  C   UNL     1       0.713  -4.859   0.446  0.00  0.00    +0.040 A 
ATOM     23  C   UNL     1       0.592  -3.517   0.750  0.00  0.00    +0.113 A 
ATOM     24  N   UNL     1       1.617  -2.699   0.621  0.00  0.00    -0.253 NA
ATOM     25 CL   UNL     1       2.123  -7.030  -0.400  0.00  0.00    -0.083 Cl
ENDBRANCH   2  19
TORSDOF 2
