REMARK  Name = ZINC28848064
REMARK  8 active torsions:
REMARK  status: ('A' for Active; 'I' for Inactive)
REMARK    1  A    between atoms: C_1  and  C_2
REMARK    2  A    between atoms: C_2  and  C_3
REMARK    3  A    between atoms: C_2  and  C_4
REMARK    4  A    between atoms: C_2  and  C_5
REMARK    5  A    between atoms: C_12  and  C_14
REMARK    6  A    between atoms: N_16  and  N_17
REMARK    7  A    between atoms: C_20  and  C_25
REMARK    8  A    between atoms: C_25  and  C_26
REMARK                            x       y       z     vdW  Elec       q    Type
REMARK                         _______ _______ _______ _____ _____    ______ ____
ROOT
ATOM      1  N   UNL     1       0.710   3.076   0.011  0.00  0.00    -0.137 N 
ATOM      2  C   UNL     1      -0.628   3.232   0.024  0.00  0.00    +0.260 C 
ATOM      3  O   UNL     1      -1.244   4.276   0.034  0.00  0.00    -0.272 OA
ATOM      4  C   UNL     1      -1.204   1.830   0.017  0.00  0.00    +0.167 C 
ATOM      5  N   UNL     1      -0.011   0.966   0.007  0.00  0.00    -0.286 N 
ATOM      6  C   UNL     1       1.057   1.784   0.002  0.00  0.00    +0.326 C 
ATOM      7  O   UNL     1       2.207   1.393  -0.011  0.00  0.00    -0.251 OA
ATOM      8  H   UNL     1      -0.124  -0.128   0.006  0.00  0.00    +0.151 HD
ENDROOT
BRANCH   1  11
ATOM      9  C   UNL     1       2.285   4.455  -1.123  0.00  0.00    +0.267 C 
ATOM     10  O   UNL     1       2.084   3.822  -2.143  0.00  0.00    -0.268 OA
ATOM     11  N   UNL     1       1.626   4.137   0.009  0.00  0.00    -0.219 N 
ATOM     12  H   UNL     1       1.807   4.709   0.930  0.00  0.00    +0.174 HD
BRANCH   9  19
ATOM     13  C   UNL     1       6.849   8.550  -2.301  0.00  0.00    -0.001 C 
ATOM     14  C   UNL     1       6.227   9.544  -1.317  0.00  0.00    +0.009 C 
ATOM     15  C   UNL     1       5.662   8.765  -0.120  0.00  0.00    +0.043 C 
ATOM     16  C   UNL     1       4.852   7.619  -0.643  0.00  0.00    -0.006 A 
ATOM     17  C   UNL     1       4.854   7.121  -1.915  0.00  0.00    -0.036 A 
ATOM     18  C   UNL     1       4.018   6.045  -2.165  0.00  0.00    +0.024 A 
ATOM     19  C   UNL     1       3.243   5.565  -1.126  0.00  0.00    +0.076 A 
ATOM     20  S   UNL     1       3.720   6.644   0.214  0.00  0.00    -0.088 S 
ATOM     21  C   UNL     1       5.751   7.737  -2.986  0.00  0.00    +0.040 C 
BRANCH  13  23
ATOM     22  C   UNL     1       6.712  10.259  -4.118  0.00  0.00    +0.011 C 
ATOM     23  C   UNL     1       7.647   9.317  -3.358  0.00  0.00    -0.035 C 
ATOM     24  C   UNL     1       8.747  10.132  -2.675  0.00  0.00    +0.011 C 
ATOM     25  C   UNL     1       8.280   8.326  -4.337  0.00  0.00    +0.011 C 
ENDBRANCH  13  23
ENDBRANCH   9  19
ENDBRANCH   1  11
BRANCH   4  26
ATOM     26  C   UNL     1      -2.047   1.598  -1.239  0.00  0.00    +0.069 C 
BRANCH  26  27
ATOM     27  C   UNL     1      -2.619   0.204  -1.210  0.00  0.00    -0.020 A 
ATOM     28  C   UNL     1      -2.094  -0.886  -1.792  0.00  0.00    +0.087 A 
ATOM     29  N   UNL     1      -2.890  -1.973  -1.550  0.00  0.00    -0.360 N 
ATOM     30  H   UNL     1      -2.614  -2.958  -1.953  0.00  0.00    +0.165 HD
ATOM     31  C   UNL     1      -3.974  -1.599  -0.787  0.00  0.00    +0.047 A 
ATOM     32  C   UNL     1      -3.848  -0.220  -0.535  0.00  0.00    +0.003 A 
ATOM     33  C   UNL     1      -4.819   0.442   0.219  0.00  0.00    +0.010 A 
ATOM     34  C   UNL     1      -5.882  -0.256   0.718  0.00  0.00    +0.001 A 
ATOM     35  C   UNL     1      -6.008  -1.617   0.478  0.00  0.00    +0.002 A 
ATOM     36  C   UNL     1      -5.064  -2.289  -0.269  0.00  0.00    +0.026 A 
ENDBRANCH  26  27
ENDBRANCH   4  26
TORSDOF 5
