REMARK  Name = ZINC35760447
REMARK  15 active torsions:
REMARK  status: ('A' for Active; 'I' for Inactive)
REMARK    1  A    between atoms: C_1  and  C_2
REMARK    2  A    between atoms: C_2  and  C_3
REMARK    3  A    between atoms: C_2  and  C_4
REMARK    4  A    between atoms: C_2  and  O_5
REMARK    5  A    between atoms: O_5  and  C_6
REMARK    6  A    between atoms: C_6  and  C_7
REMARK    7  A    between atoms: C_7  and  C_9
REMARK    8  A    between atoms: C_7  and  O_37
REMARK    9  A    between atoms: C_9  and  N_10
REMARK   10  A    between atoms: N_10  and  C_11
REMARK   11  A    between atoms: N_10  and  C_30
REMARK   12  A    between atoms: C_11  and  C_12
REMARK   13  A    between atoms: C_13  and  C_23
REMARK   14  A    between atoms: C_16  and  N_17
REMARK   15  A    between atoms: C_30  and  C_31
REMARK                            x       y       z     vdW  Elec       q    Type
REMARK                         _______ _______ _______ _____ _____    ______ ____
ROOT
ATOM      1  C   UNL     1       6.144  -0.664  -3.733  0.00  0.00    -0.035 C 
ENDROOT
BRANCH   1   2
ATOM      2  C   UNL     1       6.749  -1.263  -2.489  0.00  0.00    +0.025 A 
ATOM      3  C   UNL     1       6.803  -0.655  -1.217  0.00  0.00    +0.117 A 
ATOM      4  N   UNL     1       7.403  -1.486  -0.397  0.00  0.00    -0.076 NA
ATOM      5  O   UNL     1       7.747  -2.650  -1.126  0.00  0.00    -0.339 OA
ATOM      6  C   UNL     1       7.332  -2.485  -2.394  0.00  0.00    +0.222 A 
BRANCH   3   7
ATOM      7  C   UNL     1       6.276   0.688  -0.869  0.00  0.00    +0.004 A 
ATOM      8  C   UNL     1       6.481   1.764  -1.730  0.00  0.00    +0.013 A 
ATOM      9  C   UNL     1       5.989   3.011  -1.402  0.00  0.00    +0.039 A 
ATOM     10  C   UNL     1       5.293   3.194  -0.218  0.00  0.00    +0.123 A 
ATOM     11  C   UNL     1       5.087   2.126   0.641  0.00  0.00    +0.039 A 
ATOM     12  C   UNL     1       5.570   0.875   0.318  0.00  0.00    +0.013 A 
ATOM     13  F   UNL     1       4.813   4.416   0.099  0.00  0.00    -0.205 F 
ENDBRANCH   3   7
BRANCH   6  14
ATOM     14  N   UNL     1       7.475  -3.399  -3.421  0.00  0.00    -0.295 N 
ATOM     15  C   UNL     1       8.703  -3.441  -4.232  0.00  0.00    +0.136 C 
ATOM     16  C   UNL     1       9.204  -4.889  -4.275  0.00  0.00    +0.179 C 
ATOM     17  O   UNL     1       8.138  -5.744  -4.693  0.00  0.00    -0.377 OA
ATOM     18  C   UNL     1       7.019  -5.762  -3.804  0.00  0.00    +0.179 C 
ATOM     19  C   UNL     1       6.407  -4.362  -3.733  0.00  0.00    +0.136 C 
ENDBRANCH   6  14
ENDBRANCH   1   2
BRANCH   1  20
ATOM     20  N   UNL     1       4.773  -1.164  -3.900  0.00  0.00    +0.386 N 
ATOM     21  H   UNL     1       4.780  -2.173  -3.903  0.00  0.00    -0.081 HD
BRANCH  20  22
ATOM     22  C   UNL     1       3.938  -0.685  -2.790  0.00  0.00    -0.044 C 
BRANCH  22  23
ATOM     23  C   UNL     1       2.544  -1.305  -2.895  0.00  0.00    +0.124 C 
BRANCH  23  24
ATOM     24  O   UNL     1       2.637  -2.720  -2.715  0.00  0.00    -0.391 OA
ATOM     25  H   UNL     1       3.003  -2.984  -1.860  0.00  0.00    +0.210 HD
ENDBRANCH  23  24
BRANCH  23  26
ATOM     26  C   UNL     1       1.638  -0.712  -1.814  0.00  0.00    +0.189 C 
BRANCH  26  27
ATOM     27  O   UNL     1       0.307  -1.203  -1.985  0.00  0.00    -0.372 OA
BRANCH  27  29
ATOM     28  C   UNL     1      -0.690   0.819  -1.114  0.00  0.00    +0.041 C 
ATOM     29  C   UNL     1      -0.624  -0.707  -1.021  0.00  0.00    +0.061 C 
ATOM     30  C   UNL     1      -0.169  -1.113   0.383  0.00  0.00    +0.041 C 
ATOM     31  C   UNL     1      -2.008  -1.296  -1.299  0.00  0.00    +0.041 C 
ENDBRANCH  27  29
ENDBRANCH  26  27
ENDBRANCH  23  26
ENDBRANCH  22  23
ENDBRANCH  20  22
BRANCH  20  32
ATOM     32  C   UNL     1       4.225  -0.674  -5.171  0.00  0.00    -0.046 C 
BRANCH  32  33
ATOM     33  C   UNL     1       5.003  -1.292  -6.334  0.00  0.00    +0.102 C 
ATOM     34  C   UNL     1       4.443  -0.771  -7.675  0.00  0.00    +0.032 C 
ATOM     35  C   UNL     1       4.496  -2.039  -8.570  0.00  0.00    +0.030 C 
ATOM     36  C   UNL     1       4.194  -3.146  -7.529  0.00  0.00    +0.160 C 
ATOM     37  O   UNL     1       4.847  -2.716  -6.322  0.00  0.00    -0.378 OA
ENDBRANCH  32  33
ENDBRANCH  20  32
ENDBRANCH   1  20
TORSDOF 12
