REMARK  Name = ZINC03229604
REMARK  6 active torsions:
REMARK  status: ('A' for Active; 'I' for Inactive)
REMARK    1  A    between atoms: C_4  and  C_7
REMARK    2  A    between atoms: C_8  and  C_18
REMARK    3  A    between atoms: N_10  and  C_12
REMARK    4  A    between atoms: C_19  and  C_20
REMARK    5  A    between atoms: N_22  and  C_23
REMARK    6  A    between atoms: C_24  and  C_32
REMARK                            x       y       z     vdW  Elec       q    Type
REMARK                         _______ _______ _______ _____ _____    ______ ____
ROOT
ATOM      1  C   UNL     1      -4.693  -0.816   0.043  0.00  0.00    +0.016 C 
ATOM      2  C   UNL     1      -3.429  -1.296   0.028  0.00  0.00    +0.068 C 
ENDROOT
BRANCH   1   4
ATOM      3  C   UNL     1      -7.254  -1.389   0.070  0.00  0.00    +0.100 A 
ATOM      4  C   UNL     1      -5.830  -1.744   0.048  0.00  0.00    +0.021 A 
ATOM      5  C   UNL     1      -5.773  -3.125   0.040  0.00  0.00    +0.123 A 
ATOM      6  N   UNL     1      -7.036  -3.589   0.050  0.00  0.00    -0.239 N 
ATOM      7  N   UNL     1      -7.931  -2.515   0.064  0.00  0.00    -0.166 NA
BRANCH   3  11
ATOM      8  C   UNL     1      -8.882   2.538   0.130  0.00  0.00    +0.000 A 
ATOM      9  C   UNL     1      -9.534   1.532  -0.560  0.00  0.00    +0.001 A 
ATOM     10  C   UNL     1      -9.011   0.255  -0.583  0.00  0.00    +0.010 A 
ATOM     11  C   UNL     1      -7.822  -0.020   0.090  0.00  0.00    +0.003 A 
ATOM     12  C   UNL     1      -7.171   0.997   0.789  0.00  0.00    +0.010 A 
ATOM     13  C   UNL     1      -7.701   2.271   0.800  0.00  0.00    +0.001 A 
ENDBRANCH   3  11
BRANCH   6  14
ATOM     14  C   UNL     1      -7.399  -4.942   0.045  0.00  0.00    +0.065 A 
ATOM     15  C   UNL     1      -6.418  -5.925   0.024  0.00  0.00    +0.028 A 
ATOM     16  C   UNL     1      -6.779  -7.258   0.026  0.00  0.00    +0.002 A 
ATOM     17  C   UNL     1      -8.115  -7.614   0.036  0.00  0.00    +0.000 A 
ATOM     18  C   UNL     1      -9.094  -6.638   0.052  0.00  0.00    +0.002 A 
ATOM     19  C   UNL     1      -8.739  -5.303   0.057  0.00  0.00    +0.028 A 
ENDBRANCH   6  14
ENDBRANCH   1   4
BRANCH   2  20
ATOM     20  C   UNL     1      -2.331  -0.401   0.022  0.00  0.00    +0.241 C 
ATOM     21  O   UNL     1      -2.526   0.801   0.031  0.00  0.00    -0.270 OA
ATOM     22  N   UNL     1      -1.071  -0.879   0.007  0.00  0.00    -0.276 N 
ATOM     23  H   UNL     1      -0.916  -1.837   0.000  0.00  0.00    +0.156 HD
BRANCH  22  24
ATOM     24  C   UNL     1       0.002  -0.004   0.002  0.00  0.00    +0.085 A 
ATOM     25  C   UNL     1       1.358  -0.302  -0.013  0.00  0.00    +0.068 A 
ATOM     26  C   UNL     1       2.290   0.813  -0.016  0.00  0.00    -0.023 A 
ATOM     27  C   UNL     1       1.722   2.038  -0.003  0.00  0.00    -0.004 A 
ATOM     28  S   UNL     1      -0.021   1.728   0.011  0.00  0.00    -0.077 S 
ATOM     29  C   UNL     1       2.425   3.360  -0.002  0.00  0.00    +0.043 C 
ATOM     30  C   UNL     1       3.898   3.124   0.360  0.00  0.00    +0.005 C 
ATOM     31  C   UNL     1       4.436   1.968  -0.488  0.00  0.00    +0.005 C 
ATOM     32  C   UNL     1       3.805   0.651  -0.032  0.00  0.00    +0.037 C 
BRANCH  25  33
ATOM     33  C   UNL     1       1.832  -1.689  -0.025  0.00  0.00    +0.244 C 
ATOM     34  O   UNL     1       2.018  -2.259  -1.084  0.00  0.00    -0.270 OA
ATOM     35  N   UNL     1       2.061  -2.333   1.136  0.00  0.00    -0.325 N 
ATOM     36  H   UNL     1       1.913  -1.879   1.980  0.00  0.00    +0.145 HD
ATOM     37  H   UNL     1       2.375  -3.251   1.128  0.00  0.00    +0.145 HD
ENDBRANCH  25  33
ENDBRANCH  22  24
ENDBRANCH   2  20
TORSDOF 6
