REMARK  Name = ZINC43597262
REMARK  6 active torsions:
REMARK  status: ('A' for Active; 'I' for Inactive)
REMARK    1  A    between atoms: C_1  and  C_2
REMARK    2  A    between atoms: C_2  and  C_3
REMARK    3  A    between atoms: C_3  and  N_4
REMARK    4  A    between atoms: C_7  and  N_10
REMARK    5  A    between atoms: N_10  and  C_11
REMARK    6  A    between atoms: C_14  and  N_18
REMARK                            x       y       z     vdW  Elec       q    Type
REMARK                         _______ _______ _______ _____ _____    ______ ____
ROOT
ATOM      1  N   UNL     1      -2.018  -6.065   0.950  0.00  0.00    -0.340 N 
ATOM      2  H   UNL     1      -1.205  -6.475   0.615  0.00  0.00    +0.146 HD
ENDROOT
BRANCH   1   6
ATOM      3  N   UNL     1      -1.413  -2.002   0.005  0.00  0.00    +0.380 N 
ATOM      4  C   UNL     1      -0.802  -2.489   1.247  0.00  0.00    -0.077 C 
ATOM      5  C   UNL     1      -0.705  -4.016   1.209  0.00  0.00    +0.003 C 
ATOM      6  C   UNL     1      -2.110  -4.607   1.064  0.00  0.00    +0.067 C 
ATOM      7  C   UNL     1      -2.766  -4.036  -0.196  0.00  0.00    +0.003 C 
ATOM      8  C   UNL     1      -2.787  -2.508  -0.105  0.00  0.00    -0.077 C 
ATOM      9  H   UNL     1      -0.873  -2.326  -0.783  0.00  0.00    -0.082 HD
BRANCH   3  10
ATOM     10  C   UNL     1      -1.433  -0.534   0.013  0.00  0.00    -0.079 C 
BRANCH  10  12
ATOM     11  C   UNL     1      -0.019   1.526   0.010  0.00  0.00    +0.002 C 
ATOM     12  C   UNL     1       0.002  -0.004   0.002  0.00  0.00    -0.022 C 
ENDBRANCH  10  12
ENDBRANCH   3  10
ENDBRANCH   1   6
BRANCH   1  13
ATOM     13  C   UNL     1      -3.103  -6.867   1.325  0.00  0.00    +0.042 A 
ATOM     14  C   UNL     1      -4.269  -6.279   1.800  0.00  0.00    +0.026 A 
ATOM     15  C   UNL     1      -5.339  -7.070   2.170  0.00  0.00    +0.024 A 
ATOM     16  C   UNL     1      -5.250  -8.452   2.068  0.00  0.00    +0.026 A 
ATOM     17  C   UNL     1      -4.085  -9.040   1.594  0.00  0.00    +0.039 A 
ATOM     18  C   UNL     1      -3.016  -8.249   1.217  0.00  0.00    +0.040 A 
ATOM     19 BR   UNL     1      -1.432  -9.049   0.563  0.00  0.00    -0.048 Br
BRANCH  16  20
ATOM     20  N   UNL     1      -6.335  -9.252   2.444  0.00  0.00    -0.358 N 
ATOM     21  H   UNL     1      -7.149  -8.842   2.775  0.00  0.00    +0.142 HD
ATOM     22  H   UNL     1      -6.273 -10.218   2.372  0.00  0.00    +0.142 HD
ENDBRANCH  16  20
ENDBRANCH   1  13
TORSDOF 5
