REMARK  Name = ZINC39237670
REMARK  9 active torsions:
REMARK  status: ('A' for Active; 'I' for Inactive)
REMARK    1  A    between atoms: C_1  and  C_2
REMARK    2  A    between atoms: C_3  and  C_15
REMARK    3  A    between atoms: N_6  and  C_8
REMARK    4  A    between atoms: N_16  and  N_17
REMARK    5  A    between atoms: C_18  and  C_20
REMARK    6  A    between atoms: C_20  and  C_37
REMARK    7  A    between atoms: C_23  and  C_28
REMARK    8  A    between atoms: C_25  and  C_26
REMARK    9  A    between atoms: C_25  and  C_27
REMARK                            x       y       z     vdW  Elec       q    Type
REMARK                         _______ _______ _______ _____ _____    ______ ____
ROOT
ATOM      1  N   UNL     1      -3.416   2.875   0.786  0.00  0.00    -0.207 N 
ATOM      2  C   UNL     1      -4.219   2.883  -0.296  0.00  0.00    +0.239 C 
ATOM      3  O   UNL     1      -3.771   2.592  -1.386  0.00  0.00    -0.273 OA
ATOM      4  H   UNL     1      -3.774   3.108   1.657  0.00  0.00    +0.177 HD
ENDROOT
BRANCH   2   5
ATOM      5  C   UNL     1      -5.673   3.254  -0.153  0.00  0.00    +0.052 C 
ATOM      6  C   UNL     1      -6.407   3.100  -1.509  0.00  0.00    +0.017 C 
ATOM      7  C   UNL     1      -6.034   4.408  -2.250  0.00  0.00    +0.013 C 
ATOM      8  C   UNL     1      -6.047   5.485  -1.146  0.00  0.00    +0.062 C 
ATOM      9  C   UNL     1      -5.817   4.751   0.187  0.00  0.00    -0.012 C 
ATOM     10  C   UNL     1      -7.014   4.964   1.116  0.00  0.00    +0.012 C 
ATOM     11  C   UNL     1      -4.538   5.263   0.853  0.00  0.00    +0.012 C 
ATOM     12  C   UNL     1      -6.340   2.393   0.921  0.00  0.00    +0.021 C 
BRANCH   8  13
ATOM     13  C   UNL     1      -4.942   6.482  -1.385  0.00  0.00    +0.112 A 
ATOM     14  N   UNL     1      -5.008   7.750  -1.098  0.00  0.00    -0.232 NA
ATOM     15  C   UNL     1      -3.842   8.356  -1.442  0.00  0.00    +0.089 A 
ATOM     16  C   UNL     1      -3.379   9.671  -1.357  0.00  0.00    +0.030 A 
ATOM     17  C   UNL     1      -2.123   9.980  -1.798  0.00  0.00    +0.002 A 
ATOM     18  C   UNL     1      -1.298   8.999  -2.330  0.00  0.00    +0.002 A 
ATOM     19  C   UNL     1      -1.734   7.695  -2.423  0.00  0.00    +0.028 A 
ATOM     20  C   UNL     1      -3.007   7.362  -1.981  0.00  0.00    +0.066 A 
ATOM     21  N   UNL     1      -3.729   6.187  -1.925  0.00  0.00    -0.342 N 
ATOM     22  H   UNL     1      -3.429   5.313  -2.220  0.00  0.00    +0.167 HD
ENDBRANCH   8  13
ENDBRANCH   2   5
BRANCH   1  24
ATOM     23  C   UNL     1      -1.289   2.523   1.699  0.00  0.00    +0.138 C 
ATOM     24  N   UNL     1      -2.064   2.530   0.653  0.00  0.00    -0.188 NA
BRANCH  23  27
ATOM     25  C   UNL     1       0.081   1.752  -0.924  0.00  0.00    +0.062 C 
ATOM     26  C   UNL     1       0.749   1.822   0.425  0.00  0.00    +0.027 C 
ATOM     27  C   UNL     1       0.121   2.163   1.560  0.00  0.00    +0.027 C 
ATOM     28  C   UNL     1       1.148   2.107   2.670  0.00  0.00    +0.218 C 
ATOM     29  N   UNL     1       2.393   1.698   2.000  0.00  0.00    -0.231 N 
ATOM     30  N   UNL     1       2.072   1.539   0.646  0.00  0.00    -0.266 N 
ATOM     31 CL   UNL     1       0.668   0.890   3.911  0.00  0.00    -0.094 Cl
ATOM     32  H   UNL     1       2.700   1.268  -0.042  0.00  0.00    +0.170 HD
BRANCH  29  33
ATOM     33  C   UNL     1       3.642   1.502   2.595  0.00  0.00    +0.050 A 
ATOM     34  C   UNL     1       3.798   1.691   3.963  0.00  0.00    +0.025 A 
ATOM     35  C   UNL     1       5.034   1.496   4.548  0.00  0.00    +0.002 A 
ATOM     36  C   UNL     1       6.115   1.114   3.774  0.00  0.00    +0.000 A 
ATOM     37  C   UNL     1       5.963   0.926   2.413  0.00  0.00    +0.002 A 
ATOM     38  C   UNL     1       4.728   1.113   1.822  0.00  0.00    +0.025 A 
ENDBRANCH  29  33
ENDBRANCH  23  27
ENDBRANCH   1  24
TORSDOF 5
