REMARK  Name = ZINC36374663
REMARK  20 active torsions:
REMARK  status: ('A' for Active; 'I' for Inactive)
REMARK    1  A    between atoms: C_1  and  C_2
REMARK    2  A    between atoms: C_2  and  O_4
REMARK    3  A    between atoms: O_4  and  C_5
REMARK    4  A    between atoms: C_8  and  C_45
REMARK    5  A    between atoms: C_16  and  C_34
REMARK    6  A    between atoms: C_19  and  C_33
REMARK    7  A    between atoms: C_20  and  C_22
REMARK    8  A    between atoms: C_22  and  C_23
REMARK    9  A    between atoms: C_22  and  C_24
REMARK   10  A    between atoms: C_22  and  O_32
REMARK   11  A    between atoms: C_24  and  C_26
REMARK   12  A    between atoms: C_26  and  C_27
REMARK   13  A    between atoms: C_27  and  C_28
REMARK   14  A    between atoms: C_28  and  C_29
REMARK   15  A    between atoms: C_28  and  C_30
REMARK   16  A    between atoms: C_28  and  O_31
REMARK   17  A    between atoms: C_36  and  O_44
REMARK   18  A    between atoms: C_38  and  O_43
REMARK   19  A    between atoms: C_40  and  C_41
REMARK   20  A    between atoms: C_40  and  C_42
REMARK                            x       y       z     vdW  Elec       q    Type
REMARK                         _______ _______ _______ _____ _____    ______ ____
ROOT
ATOM      1  C   UNL     1      -2.167  -2.028   0.552  0.00  0.00    +0.184 C 
ATOM      2  C   UNL     1      -3.176  -2.364   1.663  0.00  0.00    +0.052 C 
ATOM      3  C   UNL     1      -4.207  -3.333   1.002  0.00  0.00    -0.019 C 
ATOM      4  C   UNL     1      -3.714  -4.753   1.266  0.00  0.00    +0.006 C 
ATOM      5  C   UNL     1      -2.184  -4.784   1.145  0.00  0.00    +0.031 C 
ATOM      6  C   UNL     1      -1.672  -6.171   1.426  0.00  0.00    -0.026 C 
ATOM      7  C   UNL     1      -2.344  -7.244   1.135  0.00  0.00    -0.062 C 
ATOM      8  C   UNL     1      -3.743  -7.181   0.598  0.00  0.00    +0.024 C 
ATOM      9  C   UNL     1      -4.278  -5.788   0.304  0.00  0.00    -0.022 C 
ATOM     10  C   UNL     1      -3.916  -5.375  -1.125  0.00  0.00    +0.008 C 
ATOM     11  C   UNL     1      -4.540  -4.028  -1.445  0.00  0.00    +0.008 C 
ATOM     12  C   UNL     1      -4.220  -2.926  -0.473  0.00  0.00    -0.017 C 
ATOM     13  C   UNL     1      -2.951  -2.133  -0.770  0.00  0.00    +0.075 C 
ATOM     14  C   UNL     1      -5.388  -1.907  -0.615  0.00  0.00    +0.012 C 
ATOM     15  C   UNL     1      -5.805  -5.884   0.433  0.00  0.00    +0.012 C 
ATOM     16  C   UNL     1      -3.852  -8.073  -0.640  0.00  0.00    +0.042 C 
ATOM     17  C   UNL     1      -3.502  -9.507  -0.232  0.00  0.00    +0.144 C 
ATOM     18  C   UNL     1      -2.061  -9.578   0.247  0.00  0.00    +0.153 C 
ATOM     19  C   UNL     1      -1.747  -8.614   1.389  0.00  0.00    +0.015 C 
ATOM     20  C   UNL     1      -0.214  -8.527   1.498  0.00  0.00    +0.018 C 
ATOM     21  C   UNL     1      -2.284  -9.174   2.711  0.00  0.00    +0.018 C 
ATOM     22  C   UNL     1      -5.585  -3.071   1.656  0.00  0.00    +0.012 C 
ENDROOT
BRANCH  13  23
ATOM     23  C   UNL     1      -2.079  -2.749  -1.857  0.00  0.00    +0.127 C 
ATOM     24  C   UNL     1      -2.783  -2.619  -3.210  0.00  0.00    +0.050 C 
BRANCH  23  25
ATOM     25  C   UNL     1      -0.756  -2.028  -1.909  0.00  0.00    +0.165 C 
ATOM     26  O   UNL     1      -0.674  -0.889  -1.517  0.00  0.00    -0.294 OA
BRANCH  25  27
ATOM     27  C   UNL     1       0.464  -2.730  -2.448  0.00  0.00    +0.080 C 
BRANCH  27  28
ATOM     28  C   UNL     1       1.664  -1.783  -2.389  0.00  0.00    +0.042 C 
BRANCH  28  29
ATOM     29  C   UNL     1       2.902  -2.495  -2.936  0.00  0.00    +0.061 C 
ATOM     30  C   UNL     1       2.652  -2.911  -4.387  0.00  0.00    +0.041 C 
ATOM     31  C   UNL     1       4.103  -1.548  -2.877  0.00  0.00    +0.041 C 
BRANCH  29  32
ATOM     32  O   UNL     1       3.172  -3.656  -2.147  0.00  0.00    -0.389 OA
ATOM     33  H   UNL     1       3.341  -3.467  -1.214  0.00  0.00    +0.210 HD
ENDBRANCH  29  32
ENDBRANCH  28  29
ENDBRANCH  27  28
ENDBRANCH  25  27
ENDBRANCH  23  25
BRANCH  23  34
ATOM     34  O   UNL     1      -1.858  -4.130  -1.566  0.00  0.00    -0.381 OA
ATOM     35  H   UNL     1      -1.000  -4.314  -1.160  0.00  0.00    +0.211 HD
ENDBRANCH  23  34
ENDBRANCH  13  23
BRANCH  18  36
ATOM     36  O   UNL     1      -1.770 -10.916   0.674  0.00  0.00    -0.388 OA
ATOM     37  H   UNL     1      -1.876 -11.582  -0.019  0.00  0.00    +0.210 HD
ENDBRANCH  18  36
BRANCH  17  38
ATOM     38  O   UNL     1      -4.403  -9.961   0.775  0.00  0.00    -0.389 OA
ATOM     39  H   UNL     1      -5.330  -9.966   0.501  0.00  0.00    +0.210 HD
ENDBRANCH  17  38
BRANCH   1  40
ATOM     40  O   UNL     1      -1.681  -0.691   0.721  0.00  0.00    -0.461 OA
BRANCH  40  42
ATOM     41  C   UNL     1       0.028   0.837   1.638  0.00  0.00    +0.136 C 
ATOM     42  C   UNL     1      -0.545  -0.540   1.420  0.00  0.00    +0.304 C 
ATOM     43  O   UNL     1       0.018  -1.507   1.875  0.00  0.00    -0.251 OA
ENDBRANCH  40  42
ENDBRANCH   1  40
TORSDOF 11
