REMARK  Name = ZINC06455969
REMARK  7 active torsions:
REMARK  status: ('A' for Active; 'I' for Inactive)
REMARK    1  A    between atoms: C_1  and  C_2
REMARK    2  A    between atoms: C_2  and  C_4
REMARK    3  A    between atoms: C_2  and  O_7
REMARK    4  A    between atoms: O_7  and  C_8
REMARK    5  A    between atoms: C_8  and  C_10
REMARK    6  A    between atoms: C_23  and  C_24
REMARK    7  A    between atoms: C_27  and  O_30
REMARK                            x       y       z     vdW  Elec       q    Type
REMARK                         _______ _______ _______ _____ _____    ______ ____
ROOT
ATOM      1  C   UNL     1      -0.339  -8.053  -3.068  0.00  0.00    +0.073 A 
ATOM      2  C   UNL     1      -0.344  -9.056  -2.002  0.00  0.00    +0.015 A 
ATOM      3  C   UNL     1      -0.444 -10.422  -2.281  0.00  0.00    +0.011 A 
ATOM      4  C   UNL     1      -0.446 -11.321  -1.256  0.00  0.00    +0.001 A 
ATOM      5  C   UNL     1      -0.349 -10.895   0.067  0.00  0.00    +0.002 A 
ATOM      6  C   UNL     1      -0.251  -9.572   0.373  0.00  0.00    +0.028 A 
ATOM      7  C   UNL     1      -0.245  -8.614  -0.659  0.00  0.00    +0.072 A 
ATOM      8  N   UNL     1      -0.151  -7.314  -0.390  0.00  0.00    -0.247 NA
ATOM      9  C   UNL     1      -0.137  -6.380  -1.335  0.00  0.00    +0.072 A 
ATOM     10  C   UNL     1      -0.236  -6.721  -2.694  0.00  0.00    -0.007 A 
ATOM     11  C   UNL     1      -0.204  -5.470  -3.537  0.00  0.00    +0.043 C 
ATOM     12  C   UNL     1      -0.079  -4.295  -2.559  0.00  0.00    +0.042 C 
ATOM     13  C   UNL     1      -0.044  -4.915  -1.184  0.00  0.00    -0.021 C 
ATOM     14  C   UNL     1       0.059  -4.247  -0.021  0.00  0.00    +0.013 C 
ENDROOT
BRANCH  14  15
ATOM     15  C   UNL     1       0.010  -2.776  -0.010  0.00  0.00    -0.024 A 
ATOM     16  C   UNL     1       0.026  -2.064  -1.214  0.00  0.00    +0.011 A 
ATOM     17  C   UNL     1      -0.020  -0.688  -1.198  0.00  0.00    +0.046 A 
ATOM     18  C   UNL     1      -0.081  -0.006   0.011  0.00  0.00    +0.117 A 
ATOM     19  C   UNL     1      -0.091  -0.708   1.210  0.00  0.00    +0.046 A 
ATOM     20  C   UNL     1      -0.051  -2.085   1.204  0.00  0.00    +0.011 A 
BRANCH  18  21
ATOM     21  O   UNL     1      -0.126   1.351   0.021  0.00  0.00    -0.507 OA
ATOM     22  H   UNL     1      -1.021   1.716  -0.004  0.00  0.00    +0.292 HD
ENDBRANCH  18  21
ENDBRANCH  14  15
BRANCH   1  23
ATOM     23  C   UNL     1      -0.438  -8.445  -4.489  0.00  0.00    +0.341 C 
ATOM     24  O   UNL     1       0.570  -8.671  -5.129  0.00  0.00    -0.245 OA
BRANCH  23  25
ATOM     25  O   UNL     1      -1.646  -8.551  -5.076  0.00  0.00    -0.449 OA
BRANCH  25  27
ATOM     26  C   UNL     1      -1.609  -7.689  -7.353  0.00  0.00    +0.062 C 
ATOM     27  C   UNL     1      -1.667  -8.940  -6.475  0.00  0.00    +0.259 C 
BRANCH  27  28
ATOM     28  C   UNL     1      -2.936  -9.700  -6.765  0.00  0.00    +0.251 C 
ATOM     29  O   UNL     1      -3.784  -9.816  -5.906  0.00  0.00    -0.272 OA
ATOM     30  N   UNL     1      -3.129 -10.249  -7.981  0.00  0.00    -0.326 N 
ATOM     31  H   UNL     1      -2.451 -10.157  -8.668  0.00  0.00    +0.145 HD
ATOM     32  H   UNL     1      -3.946 -10.738  -8.168  0.00  0.00    +0.145 HD
ENDBRANCH  27  28
ENDBRANCH  25  27
ENDBRANCH  23  25
ENDBRANCH   1  23
TORSDOF 6
