REMARK  Name = ZINC09915667
REMARK  13 active torsions:
REMARK  status: ('A' for Active; 'I' for Inactive)
REMARK    1  A    between atoms: C_1  and  C_2
REMARK    2  A    between atoms: C_11  and  O_13
REMARK    3  A    between atoms: O_13  and  C_14
REMARK    4  A    between atoms: C_14  and  C_29
REMARK    5  A    between atoms: C_15  and  C_27
REMARK    6  A    between atoms: C_15  and  O_28
REMARK    7  A    between atoms: C_16  and  C_25
REMARK    8  A    between atoms: C_16  and  O_26
REMARK    9  A    between atoms: C_17  and  C_23
REMARK   10  A    between atoms: C_17  and  O_24
REMARK   11  A    between atoms: C_18  and  C_20
REMARK   12  A    between atoms: C_18  and  C_21
REMARK   13  A    between atoms: C_21  and  O_22
REMARK                            x       y       z     vdW  Elec       q    Type
REMARK                         _______ _______ _______ _____ _____    ______ ____
ROOT
ATOM      1  C   UNL     1       1.008   1.032  -2.775  0.00  0.00    +0.242 C 
ATOM      2  C   UNL     1       1.193   0.277  -1.460  0.00  0.00    +0.159 C 
ATOM      3  C   UNL     1       0.911   1.166  -0.259  0.00  0.00    +0.129 C 
ATOM      4  C   UNL     1       1.535   2.549  -0.333  0.00  0.00    +0.125 C 
ATOM      5  C   UNL     1       1.513   3.175  -1.720  0.00  0.00    +0.125 C 
ATOM      6  O   UNL     1       1.740   2.243  -2.758  0.00  0.00    -0.326 OA
ATOM      7  C   UNL     1       0.185   3.912  -1.932  0.00  0.00    +0.047 C 
ATOM      8  C   UNL     1       2.976   2.520   0.194  0.00  0.00    +0.047 C 
ATOM      9  C   UNL     1       1.438   0.458   1.005  0.00  0.00    +0.047 C 
ATOM     10  C   UNL     1       2.605  -0.310  -1.395  0.00  0.00    +0.051 C 
ATOM     11  C   UNL     1       1.537   0.150  -3.920  0.00  0.00    +0.092 C 
ENDROOT
BRANCH   4  12
ATOM     12  O   UNL     1       0.784   3.417   0.547  0.00  0.00    -0.383 OA
ATOM     13  H   UNL     1       1.107   4.328   0.570  0.00  0.00    +0.210 HD
ENDBRANCH   4  12
BRANCH   3  14
ATOM     14  O   UNL     1      -0.514   1.303  -0.108  0.00  0.00    -0.383 OA
ATOM     15  H   UNL     1      -0.976   0.466   0.034  0.00  0.00    +0.210 HD
ENDBRANCH   3  14
BRANCH   2  16
ATOM     16  O   UNL     1       0.259  -0.821  -1.442  0.00  0.00    -0.379 OA
ATOM     17  H   UNL     1       0.367  -1.441  -2.175  0.00  0.00    +0.211 HD
ENDBRANCH   2  16
BRANCH   1  18
ATOM     18  O   UNL     1      -0.383   1.267  -3.003  0.00  0.00    -0.458 OA
BRANCH  18  29
ATOM     19  C   UNL     1      -0.691   4.689  -8.524  0.00  0.00    +0.045 C 
ATOM     20  C   UNL     1      -1.745   4.091  -7.628  0.00  0.00    -0.033 A 
ATOM     21  C   UNL     1      -3.065   4.221  -7.920  0.00  0.00    +0.096 A 
ATOM     22  C   UNL     1      -4.032   3.652  -7.066  0.00  0.00    +0.337 A 
ATOM     23  O   UNL     1      -5.212   3.776  -7.340  0.00  0.00    -0.245 OA
ATOM     24  O   UNL     1      -3.685   2.978  -5.958  0.00  0.00    -0.422 OA
ATOM     25  C   UNL     1      -2.391   2.812  -5.611  0.00  0.00    +0.143 A 
ATOM     26  C   UNL     1      -1.374   3.353  -6.418  0.00  0.00    +0.021 A 
ATOM     27  C   UNL     1      -0.031   3.183  -6.062  0.00  0.00    +0.015 A 
ATOM     28  C   UNL     1       0.287   2.491  -4.930  0.00  0.00    +0.046 A 
ATOM     29  C   UNL     1      -0.716   1.953  -4.126  0.00  0.00    +0.128 A 
ATOM     30  C   UNL     1      -2.050   2.107  -4.466  0.00  0.00    +0.092 A 
ENDBRANCH  18  29
ENDBRANCH   1  18
BRANCH   5  31
ATOM     31  C   UNL     1       2.637   4.233  -1.778  0.00  0.00    +0.193 C 
BRANCH  31  32
ATOM     32  O   UNL     1       2.537   4.968  -2.999  0.00  0.00    -0.392 OA
ATOM     33  H   UNL     1       3.213   5.652  -3.103  0.00  0.00    +0.210 HD
ENDBRANCH  31  32
ENDBRANCH   5  31
TORSDOF 7
