REMARK  Name = ZINC39686233
REMARK  11 active torsions:
REMARK  status: ('A' for Active; 'I' for Inactive)
REMARK    1  A    between atoms: C_1  and  C_2
REMARK    2  A    between atoms: C_2  and  C_3
REMARK    3  A    between atoms: C_3  and  C_4
REMARK    4  A    between atoms: C_3  and  C_6
REMARK    5  A    between atoms: C_4  and  C_5
REMARK    6  A    between atoms: C_10  and  C_19
REMARK    7  A    between atoms: N_21  and  C_22
REMARK    8  A    between atoms: C_28  and  C_30
REMARK    9  A    between atoms: C_30  and  C_31
REMARK   10  A    between atoms: C_31  and  C_32
REMARK   11  A    between atoms: C_31  and  C_33
REMARK                            x       y       z     vdW  Elec       q    Type
REMARK                         _______ _______ _______ _____ _____    ______ ____
ROOT
ATOM      1  C   UNL     1       0.176  -2.354  -1.284  0.00  0.00    +0.219 C 
ATOM      2  O   UNL     1       1.089  -3.142  -1.415  0.00  0.00    -0.275 OA
ATOM      3  N   UNL     1      -1.098  -2.768  -1.428  0.00  0.00    -0.300 N 
ATOM      4  C   UNL     1      -2.334  -1.959  -1.313  0.00  0.00    +0.121 C 
ATOM      5  C   UNL     1      -3.254  -2.490  -2.435  0.00  0.00    +0.100 C 
ATOM      6  C   UNL     1      -2.756  -3.919  -2.708  0.00  0.00    -0.004 C 
ATOM      7  C   UNL     1      -1.579  -4.134  -1.744  0.00  0.00    +0.115 C 
ATOM      8  C   UNL     1      -3.864  -4.929  -2.425  0.00  0.00    -0.010 C 
ATOM      9  C   UNL     1      -3.362  -6.336  -2.760  0.00  0.00    -0.082 C 
ATOM     10  N   UNL     1      -2.969  -6.395  -4.173  0.00  0.00    +0.379 N 
ATOM     11  C   UNL     1      -1.840  -5.488  -4.416  0.00  0.00    -0.082 C 
ATOM     12  C   UNL     1      -2.277  -4.045  -4.152  0.00  0.00    -0.010 C 
ATOM     13  H   UNL     1      -2.696  -7.338  -4.405  0.00  0.00    -0.086 HD
ATOM     14  H   UNL     1      -3.749  -6.121  -4.750  0.00  0.00    -0.086 HD
ENDROOT
BRANCH   5  15
ATOM     15  C   UNL     1      -3.119  -1.639  -3.671  0.00  0.00    +0.218 C 
ATOM     16  O   UNL     1      -2.047  -1.145  -3.953  0.00  0.00    -0.275 OA
ATOM     17  N   UNL     1      -4.188  -1.427  -4.464  0.00  0.00    -0.312 N 
ATOM     18  H   UNL     1      -5.045  -1.821  -4.239  0.00  0.00    +0.149 HD
BRANCH  17  19
ATOM     19  C   UNL     1      -4.056  -0.599  -5.666  0.00  0.00    +0.076 C 
ATOM     20  C   UNL     1      -4.223   0.875  -5.291  0.00  0.00    +0.041 C 
ATOM     21  C   UNL     1      -4.050   1.739  -6.544  0.00  0.00    +0.109 C 
ATOM     22  N   UNL     1      -4.985   1.269  -7.575  0.00  0.00    -0.301 N 
ATOM     23  C   UNL     1      -4.971  -0.152  -7.947  0.00  0.00    +0.109 C 
ATOM     24  C   UNL     1      -5.133  -0.995  -6.678  0.00  0.00    +0.041 C 
ATOM     25  C   UNL     1      -5.840   2.126  -8.169  0.00  0.00    +0.216 C 
ATOM     26  O   UNL     1      -5.843   3.296  -7.853  0.00  0.00    -0.276 OA
BRANCH  25  27
ATOM     27  C   UNL     1      -6.793   1.628  -9.225  0.00  0.00    +0.099 C 
BRANCH  27  28
ATOM     28  C   UNL     1      -7.645   2.793  -9.732  0.00  0.00    -0.008 C 
ATOM     29  C   UNL     1      -6.749   3.809 -10.442  0.00  0.00    +0.008 C 
ATOM     30  C   UNL     1      -8.696   2.267 -10.713  0.00  0.00    +0.008 C 
ENDBRANCH  27  28
ENDBRANCH  25  27
ENDBRANCH  17  19
ENDBRANCH   5  15
BRANCH   1  31
ATOM     31  C   UNL     1       0.468  -0.911  -0.959  0.00  0.00    +0.075 C 
BRANCH  31  33
ATOM     32  C   UNL     1      -0.015   0.953   0.633  0.00  0.00    +0.004 C 
ATOM     33  C   UNL     1      -0.193  -0.544   0.371  0.00  0.00    +0.009 C 
ENDBRANCH  31  33
BRANCH  31  34
ATOM     34  C   UNL     1       1.980  -0.709  -0.851  0.00  0.00    +0.009 C 
ATOM     35  C   UNL     1       2.623  -0.915  -2.224  0.00  0.00    +0.004 C 
ENDBRANCH  31  34
ENDBRANCH   1  31
TORSDOF 7
