REMARK  Name = ZINC54371782
REMARK  5 active torsions:
REMARK  status: ('A' for Active; 'I' for Inactive)
REMARK    1  A    between atoms: C_1  and  C_2
REMARK    2  A    between atoms: C_5  and  C_20
REMARK    3  A    between atoms: C_6  and  S_9
REMARK    4  A    between atoms: S_9  and  N_12
REMARK    5  A    between atoms: C_17  and  C_19
REMARK                            x       y       z     vdW  Elec       q    Type
REMARK                         _______ _______ _______ _____ _____    ______ ____
ROOT
ATOM      1  S   UNL     1       0.551  -2.665   2.168  0.00  0.00    +0.063 S 
ATOM      2  O   UNL     1       0.052  -1.581   2.940  0.00  0.00    -0.153 OA
ATOM      3  O   UNL     1      -0.045  -3.954   2.191  0.00  0.00    -0.153 OA
ENDROOT
BRANCH   1   9
ATOM      4  C   UNL     1      -0.364   0.948  -1.500  0.00  0.00    +0.045 C 
ATOM      5  C   UNL     1       0.103  -0.442  -1.151  0.00  0.00    -0.029 A 
ATOM      6  C   UNL     1       0.522  -1.301  -2.150  0.00  0.00    +0.025 A 
ATOM      7  C   UNL     1       0.950  -2.577  -1.830  0.00  0.00    +0.046 A 
ATOM      8  C   UNL     1       0.959  -2.993  -0.510  0.00  0.00    -0.004 A 
ATOM      9  C   UNL     1       0.540  -2.134   0.488  0.00  0.00    +0.128 A 
ATOM     10  C   UNL     1       0.117  -0.856   0.169  0.00  0.00    +0.071 A 
ATOM     11 CL   UNL     1      -0.402   0.225   1.424  0.00  0.00    -0.081 Cl
ATOM     12  C   UNL     1       1.425  -4.383  -0.162  0.00  0.00    +0.047 C 
ATOM     13 CL   UNL     1       1.476  -3.656  -3.084  0.00  0.00    -0.083 Cl
ENDBRANCH   1   9
BRANCH   1  14
ATOM     14  N   UNL     1       2.135  -2.868   2.607  0.00  0.00    -0.177 NA
ATOM     15  C   UNL     1       2.743  -4.207   2.649  0.00  0.00    +0.091 C 
ATOM     16  C   UNL     1       3.436  -4.384   4.003  0.00  0.00    -0.065 C 
ATOM     17  N   UNL     1       4.383  -3.282   4.215  0.00  0.00    +0.381 N 
ATOM     18  C   UNL     1       3.657  -2.009   4.307  0.00  0.00    -0.062 C 
ATOM     19  C   UNL     1       2.976  -1.714   2.962  0.00  0.00    +0.060 C 
ATOM     20  C   UNL     1       2.104  -0.463   3.088  0.00  0.00    +0.024 C 
ATOM     21  H   UNL     1       4.894  -3.439   5.071  0.00  0.00    -0.086 HD
ATOM     22  H   UNL     1       5.031  -3.244   3.442  0.00  0.00    -0.086 HD
ENDBRANCH   1  14
TORSDOF 2
