REMARK  Name = ZINC04741644
REMARK  2 active torsions:
REMARK  status: ('A' for Active; 'I' for Inactive)
REMARK    1  A    between atoms: C_10  and  C_15
REMARK    2  A    between atoms: C_17  and  N_22
REMARK                            x       y       z     vdW  Elec       q    Type
REMARK                         _______ _______ _______ _____ _____    ______ ____
ROOT
ATOM      1  C   UNL     1       2.100   1.895   0.557  0.00  0.00    +0.002 A 
ATOM      2  C   UNL     1       0.825   2.435   0.474  0.00  0.00    +0.002 A 
ATOM      3  C   UNL     1      -0.274   1.614   0.336  0.00  0.00    +0.028 A 
ATOM      4  C   UNL     1      -0.109   0.237   0.279  0.00  0.00    +0.072 A 
ATOM      5  C   UNL     1       1.183  -0.315   0.362  0.00  0.00    +0.091 A 
ATOM      6  C   UNL     1       2.285   0.532   0.502  0.00  0.00    +0.030 A 
ATOM      7  N   UNL     1       1.051  -1.667   0.280  0.00  0.00    -0.214 NA
ATOM      8  C   UNL     1      -0.204  -1.974   0.153  0.00  0.00    +0.205 A 
ATOM      9  N   UNL     1      -0.968  -0.830   0.149  0.00  0.00    -0.287 N 
ATOM     10  C   UNL     1      -2.424  -0.848   0.029  0.00  0.00    +0.219 C 
ATOM     11  C   UNL     1      -2.132  -3.239  -0.353  0.00  0.00    +0.159 C 
ATOM     12  N   UNL     1      -0.802  -3.222   0.027  0.00  0.00    -0.259 N 
ATOM     13  N   UNL     1      -2.690  -4.436  -0.735  0.00  0.00    -0.332 N 
ATOM     14  H   UNL     1      -0.311  -4.041   0.198  0.00  0.00    +0.158 HD
ATOM     15  H   UNL     1      -3.620  -4.472  -1.006  0.00  0.00    +0.145 HD
ATOM     16  H   UNL     1      -2.153  -5.243  -0.735  0.00  0.00    +0.145 HD
ATOM     17  N   UNL     1      -2.970  -2.195  -0.396  0.00  0.00    -0.337 N 
ATOM     18  H   UNL     1      -3.943  -2.304  -0.704  0.00  0.00    +0.164 HD
ENDROOT
BRANCH  10  19
ATOM     19  C   UNL     1      -2.853   0.151  -1.014  0.00  0.00    +0.016 A 
ATOM     20  C   UNL     1      -1.939   0.620  -1.940  0.00  0.00    +0.041 A 
ATOM     21  C   UNL     1      -2.333   1.533  -2.900  0.00  0.00    +0.127 A 
ATOM     22  C   UNL     1      -3.639   1.986  -2.929  0.00  0.00    +0.034 A 
ATOM     23  C   UNL     1      -4.553   1.522  -2.001  0.00  0.00    +0.022 A 
ATOM     24  C   UNL     1      -4.160   0.604  -1.043  0.00  0.00    +0.048 A 
ATOM     25 CL   UNL     1      -5.306   0.021   0.123  0.00  0.00    -0.083 Cl
BRANCH  21  26
ATOM     26  N   UNL     1      -1.356   2.030  -3.893  0.00  0.00    +0.056 N 
ATOM     27  O   UNL     1      -1.702   2.837  -4.737  0.00  0.00    -0.126 OA
ATOM     28  O   UNL     1      -0.205   1.631  -3.868  0.00  0.00    -0.126 OA
ENDBRANCH  21  26
ENDBRANCH  10  19
TORSDOF 2
