REMARK  Name = ZINC12497076
REMARK  11 active torsions:
REMARK  status: ('A' for Active; 'I' for Inactive)
REMARK    1  A    between atoms: C_1  and  C_2
REMARK    2  A    between atoms: C_2  and  C_3
REMARK    3  A    between atoms: C_3  and  C_4
REMARK    4  A    between atoms: C_4  and  C_5
REMARK    5  A    between atoms: C_5  and  C_30
REMARK    6  A    between atoms: C_10  and  C_12
REMARK    7  A    between atoms: C_15  and  O_18
REMARK    8  A    between atoms: N_21  and  C_24
REMARK    9  A    between atoms: C_30  and  O_32
REMARK   10  A    between atoms: O_32  and  C_33
REMARK   11  A    between atoms: C_33  and  C_34
REMARK                            x       y       z     vdW  Elec       q    Type
REMARK                         _______ _______ _______ _____ _____    ______ ____
ROOT
ATOM      1  C   UNL     1      -0.613   2.564  -0.727  0.00  0.00    +0.044 C 
ATOM      2  C   UNL     1      -0.018   1.440   0.010  0.00  0.00    +0.086 C 
ATOM      3  C   UNL     1       1.526   1.780  -0.003  0.00  0.00    +0.077 C 
ATOM      4  C   UNL     1       1.378   3.232   0.474  0.00  0.00    -0.027 C 
ATOM      5  C   UNL     1       1.923   0.724   0.993  0.00  0.00    +0.229 C 
ATOM      6  O   UNL     1       2.793   0.801   1.833  0.00  0.00    -0.275 OA
ATOM      7  N   UNL     1       1.099  -0.340   0.756  0.00  0.00    -0.210 N 
ATOM      8  C   UNL     1       0.002  -0.004   0.002  0.00  0.00    +0.229 C 
ATOM      9  O   UNL     1      -0.777  -0.753  -0.547  0.00  0.00    -0.275 OA
ATOM     10  N   UNL     1       0.246   3.728  -0.359  0.00  0.00    +0.395 N 
ATOM     11  H   UNL     1      -0.305   4.410   0.175  0.00  0.00    -0.083 HD
ATOM     12  H   UNL     1       0.610   4.173  -1.210  0.00  0.00    -0.083 HD
ENDROOT
BRANCH   4  13
ATOM     13  C   UNL     1       2.638   4.013   0.205  0.00  0.00    -0.060 A 
ATOM     14  C   UNL     1       2.889   4.503  -1.064  0.00  0.00    +0.005 A 
ATOM     15  C   UNL     1       4.040   5.225  -1.312  0.00  0.00    +0.045 A 
ATOM     16  C   UNL     1       4.951   5.448  -0.289  0.00  0.00    +0.117 A 
ATOM     17  C   UNL     1       4.700   4.951   0.981  0.00  0.00    +0.045 A 
ATOM     18  C   UNL     1       3.545   4.234   1.225  0.00  0.00    +0.005 A 
BRANCH  16  19
ATOM     19  O   UNL     1       6.087   6.153  -0.532  0.00  0.00    -0.507 OA
ATOM     20  H   UNL     1       6.836   5.609  -0.813  0.00  0.00    +0.292 HD
ENDBRANCH  16  19
ENDBRANCH   4  13
BRANCH   7  21
ATOM     21  C   UNL     1       1.348  -1.635   1.231  0.00  0.00    +0.044 A 
ATOM     22  C   UNL     1       0.456  -2.662   0.950  0.00  0.00    +0.024 A 
ATOM     23  C   UNL     1       0.706  -3.938   1.416  0.00  0.00    +0.002 A 
ATOM     24  C   UNL     1       1.837  -4.191   2.170  0.00  0.00    +0.000 A 
ATOM     25  C   UNL     1       2.724  -3.170   2.455  0.00  0.00    +0.002 A 
ATOM     26  C   UNL     1       2.482  -1.893   1.988  0.00  0.00    +0.024 A 
ENDBRANCH   7  21
BRANCH   1  27
ATOM     27  C   UNL     1      -2.035   2.790  -0.283  0.00  0.00    +0.297 C 
ATOM     28  O   UNL     1      -2.671   1.881   0.194  0.00  0.00    -0.252 OA
BRANCH  27  29
ATOM     29  O   UNL     1      -2.596   4.003  -0.418  0.00  0.00    -0.466 OA
BRANCH  29  30
ATOM     30  C   UNL     1      -3.969   4.147   0.030  0.00  0.00    +0.228 C 
ATOM     31  C   UNL     1      -4.432   5.587  -0.203  0.00  0.00    +0.048 C 
ENDBRANCH  29  30
ENDBRANCH  27  29
ENDBRANCH   1  27
BRANCH   1  32
ATOM     32  C   UNL     1      -0.555   2.306  -2.234  0.00  0.00    -0.001 C 
BRANCH  32  33
ATOM     33  C   UNL     1      -1.065   3.540  -2.982  0.00  0.00    -0.001 C 
BRANCH  33  35
ATOM     34  C   UNL     1      -1.517   4.516  -5.237  0.00  0.00    +0.004 C 
ATOM     35  C   UNL     1      -1.008   3.282  -4.489  0.00  0.00    -0.003 C 
ENDBRANCH  33  35
ENDBRANCH  32  33
ENDBRANCH   1  32
TORSDOF 9
