REMARK  Name = ZINC63160829
REMARK  9 active torsions:
REMARK  status: ('A' for Active; 'I' for Inactive)
REMARK    1  A    between atoms: C_1  and  C_2
REMARK    2  A    between atoms: C_2  and  O_3
REMARK    3  A    between atoms: O_3  and  C_4
REMARK    4  A    between atoms: C_4  and  C_6
REMARK    5  A    between atoms: N_12  and  C_13
REMARK    6  A    between atoms: C_13  and  N_14
REMARK    7  A    between atoms: N_17  and  C_30
REMARK    8  A    between atoms: C_18  and  C_21
REMARK    9  A    between atoms: C_30  and  C_31
REMARK                            x       y       z     vdW  Elec       q    Type
REMARK                         _______ _______ _______ _____ _____    ______ ____
ROOT
ATOM      1  N   UNL     1       0.790  -5.600   0.978  0.00  0.00    -0.232 N 
ATOM      2  C   UNL     1       1.313  -6.833   0.967  0.00  0.00    +0.152 C 
ATOM      3  S   UNL     1       2.984  -7.170   1.125  0.00  0.00    -0.017 S 
ATOM      4  N   UNL     1       0.364  -7.775   0.816  0.00  0.00    -0.288 N 
ATOM      5  C   UNL     1      -0.924  -7.070   0.719  0.00  0.00    +0.189 C 
ATOM      6  N   UNL     1      -0.568  -5.642   0.838  0.00  0.00    -0.213 NA
ATOM      7  H   UNL     1      -0.864  -5.128   0.022  0.00  0.00    +0.147 HD
ENDROOT
BRANCH   5   8
ATOM      8  C   UNL     1      -1.578  -7.347  -0.611  0.00  0.00    -0.006 C 
ATOM      9  C   UNL     1      -2.785  -7.921  -0.819  0.00  0.00    +0.002 A 
ATOM     10  C   UNL     1      -3.810  -8.440   0.094  0.00  0.00    +0.010 A 
ATOM     11  C   UNL     1      -4.942  -8.970  -0.423  0.00  0.00    +0.001 A 
ATOM     12  C   UNL     1      -5.159  -9.037  -1.806  0.00  0.00    +0.002 A 
ATOM     13  C   UNL     1      -4.264  -8.581  -2.708  0.00  0.00    +0.026 A 
ATOM     14  C   UNL     1      -3.039  -8.003  -2.275  0.00  0.00    +0.043 A 
ATOM     15  N   UNL     1      -2.028  -7.499  -2.941  0.00  0.00    -0.380 N 
ATOM     16  C   UNL     1      -1.021  -7.035  -1.981  0.00  0.00    +0.148 C 
ATOM     17  H   UNL     1      -1.960  -7.440  -3.907  0.00  0.00    +0.160 HD
ENDBRANCH   5   8
BRANCH   1  18
ATOM     18  C   UNL     1       1.571  -4.370   1.127  0.00  0.00    +0.213 C 
BRANCH  18  24
ATOM     19  C   UNL     1       1.630  -2.395   2.520  0.00  0.00    +0.177 C 
ATOM     20  C   UNL     1       1.011  -1.800   3.790  0.00  0.00    +0.099 C 
ATOM     21  S   UNL     1       1.824  -2.556   5.232  0.00  0.00    -0.157 S 
ATOM     22  C   UNL     1       1.714  -4.335   4.867  0.00  0.00    +0.084 C 
ATOM     23  C   UNL     1       2.232  -4.569   3.443  0.00  0.00    +0.097 C 
ATOM     24  N   UNL     1       1.397  -3.840   2.486  0.00  0.00    -0.272 NA
BRANCH  19  25
ATOM     25  C   UNL     1       0.999  -1.757   1.309  0.00  0.00    +0.325 C 
ATOM     26  O   UNL     1      -0.061  -2.164   0.895  0.00  0.00    -0.249 OA
BRANCH  25  27
ATOM     27  O   UNL     1       1.613  -0.736   0.692  0.00  0.00    -0.464 OA
BRANCH  27  29
ATOM     28  C   UNL     1       1.802   0.965  -1.015  0.00  0.00    +0.048 C 
ATOM     29  C   UNL     1       0.958  -0.179  -0.450  0.00  0.00    +0.229 C 
ENDBRANCH  27  29
ENDBRANCH  25  27
ENDBRANCH  19  25
ENDBRANCH  18  24
ENDBRANCH   1  18
BRANCH   4  30
ATOM     30  C   UNL     1       0.572  -9.224   0.760  0.00  0.00    +0.140 C 
BRANCH  30  31
ATOM     31  C   UNL     1       0.494  -9.806   2.172  0.00  0.00    +0.136 C 
ATOM     32  C   UNL     1       0.832 -11.312   2.138  0.00  0.00    +0.035 C 
ATOM     33  C   UNL     1      -0.179 -11.899   3.160  0.00  0.00    +0.031 C 
ATOM     34  C   UNL     1      -1.398 -10.971   2.936  0.00  0.00    +0.160 C 
ATOM     35  O   UNL     1      -0.838  -9.671   2.680  0.00  0.00    -0.375 OA
ENDBRANCH  30  31
ENDBRANCH   4  30
TORSDOF 8
