REMARK  Name = ZINC39661374
REMARK  4 active torsions:
REMARK  status: ('A' for Active; 'I' for Inactive)
REMARK    1  A    between atoms: C_6  and  C_7
REMARK    2  A    between atoms: C_10  and  C_12
REMARK    3  A    between atoms: C_16  and  C_25
REMARK    4  A    between atoms: N_27  and  C_28
REMARK                            x       y       z     vdW  Elec       q    Type
REMARK                         _______ _______ _______ _____ _____    ______ ____
ROOT
ATOM      1  C   UNL     1      -4.989  -1.057   0.066  0.00  0.00    +0.282 C 
ATOM      2  O   UNL     1      -5.737  -2.017   0.030  0.00  0.00    -0.267 OA
ATOM      3  N   UNL     1      -5.494   0.193   0.045  0.00  0.00    -0.294 N 
ATOM      4  C   UNL     1      -4.750   1.474   0.075  0.00  0.00    +0.121 C 
ATOM      5  C   UNL     1      -5.514   2.392  -0.904  0.00  0.00    +0.100 C 
ATOM      6  C   UNL     1      -6.937   1.812  -0.957  0.00  0.00    -0.004 C 
ATOM      7  C   UNL     1      -6.919   0.595  -0.020  0.00  0.00    +0.115 C 
ATOM      8  C   UNL     1      -7.947   2.844  -0.465  0.00  0.00    -0.010 C 
ATOM      9  C   UNL     1      -9.360   2.265  -0.582  0.00  0.00    -0.082 C 
ATOM     10  N   UNL     1      -9.632   1.912  -1.980  0.00  0.00    +0.379 N 
ATOM     11  C   UNL     1      -8.716   0.852  -2.417  0.00  0.00    -0.082 C 
ATOM     12  C   UNL     1      -7.276   1.371  -2.378  0.00  0.00    -0.010 C 
ATOM     13  H   UNL     1     -10.584   1.587  -2.064  0.00  0.00    -0.086 HD
ATOM     14  H   UNL     1      -9.505   2.726  -2.562  0.00  0.00    -0.086 HD
ENDROOT
BRANCH   1  18
ATOM     15  C   UNL     1      -1.383  -0.846   0.233  0.00  0.00    +0.136 A 
ATOM     16  C   UNL     1      -1.523  -2.205   0.224  0.00  0.00    +0.050 A 
ATOM     17  C   UNL     1      -2.893  -2.477   0.160  0.00  0.00    +0.055 A 
ATOM     18  C   UNL     1      -3.539  -1.260   0.133  0.00  0.00    +0.190 A 
ATOM     19  O   UNL     1      -2.604  -0.288   0.183  0.00  0.00    -0.450 OA
BRANCH  15  25
ATOM     20  C   UNL     1      -0.095   1.284   0.303  0.00  0.00    +0.014 A 
ATOM     21  C   UNL     1       1.104   1.963   0.360  0.00  0.00    +0.039 A 
ATOM     22  C   UNL     1       2.299   1.262   0.409  0.00  0.00    +0.123 A 
ATOM     23  C   UNL     1       2.297  -0.124   0.400  0.00  0.00    +0.039 A 
ATOM     24  C   UNL     1       1.104  -0.814   0.342  0.00  0.00    +0.014 A 
ATOM     25  C   UNL     1      -0.103  -0.113   0.294  0.00  0.00    +0.017 A 
ATOM     26  F   UNL     1       3.470   1.933   0.465  0.00  0.00    -0.205 F 
ENDBRANCH  15  25
ENDBRANCH   1  18
BRANCH   5  27
ATOM     27  C   UNL     1      -5.540   3.807  -0.386  0.00  0.00    +0.219 C 
ATOM     28  O   UNL     1      -5.556   4.014   0.809  0.00  0.00    -0.275 OA
ATOM     29  N   UNL     1      -5.546   4.841  -1.249  0.00  0.00    -0.304 N 
ATOM     30  H   UNL     1      -5.533   4.675  -2.205  0.00  0.00    +0.149 HD
BRANCH  29  31
ATOM     31  C   UNL     1      -5.571   6.216  -0.745  0.00  0.00    +0.151 C 
ATOM     32  C   UNL     1      -4.918   7.137  -1.778  0.00  0.00    +0.042 C 
ATOM     33  C   UNL     1      -5.451   8.569  -1.534  0.00  0.00    +0.079 C 
ATOM     34  S   UNL     1      -7.122   8.235  -0.856  0.00  0.00    -0.086 S 
ATOM     35  C   UNL     1      -7.002   6.609  -0.463  0.00  0.00    +0.209 C 
ATOM     36  O   UNL     1      -7.885   5.895  -0.036  0.00  0.00    -0.283 OA
ENDBRANCH  29  31
ENDBRANCH   5  27
TORSDOF 4
