REMARK  Name = ZINC39596208
REMARK  12 active torsions:
REMARK  status: ('A' for Active; 'I' for Inactive)
REMARK    1  A    between atoms: C_1  and  C_2
REMARK    2  A    between atoms: C_2  and  C_3
REMARK    3  A    between atoms: C_3  and  C_4
REMARK    4  A    between atoms: C_4  and  C_5
REMARK    5  A    between atoms: C_5  and  C_6
REMARK    6  A    between atoms: C_6  and  C_7
REMARK    7  A    between atoms: C_11  and  C_20
REMARK    8  A    between atoms: N_22  and  C_23
REMARK    9  A    between atoms: C_23  and  C_24
REMARK   10  A    between atoms: C_24  and  C_26
REMARK   11  A    between atoms: C_24  and  O_27
REMARK   12  A    between atoms: O_27  and  C_28
REMARK                            x       y       z     vdW  Elec       q    Type
REMARK                         _______ _______ _______ _____ _____    ______ ____
ROOT
ATOM      1  C   UNL     1      -2.180  -4.328   0.022  0.00  0.00    +0.216 C 
ATOM      2  O   UNL     1      -2.963  -3.425  -0.184  0.00  0.00    -0.276 OA
ATOM      3  N   UNL     1      -2.574  -5.608  -0.127  0.00  0.00    -0.300 N 
ATOM      4  C   UNL     1      -1.772  -6.836   0.083  0.00  0.00    +0.121 C 
ATOM      5  C   UNL     1      -2.745  -7.829   0.757  0.00  0.00    +0.100 C 
ATOM      6  C   UNL     1      -4.146  -7.346   0.345  0.00  0.00    -0.004 C 
ATOM      7  C   UNL     1      -3.911  -6.106  -0.531  0.00  0.00    +0.115 C 
ATOM      8  C   UNL     1      -4.958  -6.965   1.579  0.00  0.00    -0.010 C 
ATOM      9  C   UNL     1      -6.365  -6.543   1.147  0.00  0.00    -0.082 C 
ATOM     10  N   UNL     1      -7.013  -7.649   0.432  0.00  0.00    +0.379 N 
ATOM     11  C   UNL     1      -6.276  -7.947  -0.802  0.00  0.00    -0.082 C 
ATOM     12  C   UNL     1      -4.865  -8.429  -0.453  0.00  0.00    -0.010 C 
ATOM     13  H   UNL     1      -7.024  -8.468   1.022  0.00  0.00    -0.086 HD
ATOM     14  H   UNL     1      -7.961  -7.391   0.203  0.00  0.00    -0.086 HD
ENDROOT
BRANCH   5  15
ATOM     15  C   UNL     1      -2.591  -7.780   2.256  0.00  0.00    +0.218 C 
ATOM     16  O   UNL     1      -2.235  -6.753   2.795  0.00  0.00    -0.275 OA
ATOM     17  N   UNL     1      -2.848  -8.876   2.996  0.00  0.00    -0.312 N 
ATOM     18  H   UNL     1      -3.132  -9.697   2.564  0.00  0.00    +0.149 HD
BRANCH  17  19
ATOM     19  C   UNL     1      -2.697  -8.828   4.452  0.00  0.00    +0.148 C 
BRANCH  19  20
ATOM     20  C   UNL     1      -3.048 -10.194   5.046  0.00  0.00    +0.187 C 
ATOM     21  C   UNL     1      -3.012 -10.111   6.573  0.00  0.00    +0.053 C 
BRANCH  20  22
ATOM     22  O   UNL     1      -2.099 -11.165   4.600  0.00  0.00    -0.488 OA
BRANCH  22  23
ATOM     23  C   UNL     1      -2.508 -12.461   4.574  0.00  0.00    +0.121 A 
ATOM     24  C   UNL     1      -3.759 -12.805   5.066  0.00  0.00    +0.048 A 
ATOM     25  C   UNL     1      -4.173 -14.122   5.040  0.00  0.00    +0.042 A 
ATOM     26  C   UNL     1      -3.341 -15.100   4.522  0.00  0.00    +0.124 A 
ATOM     27  C   UNL     1      -2.092 -14.759   4.031  0.00  0.00    +0.042 A 
ATOM     28  C   UNL     1      -1.678 -13.441   4.051  0.00  0.00    +0.048 A 
ATOM     29  F   UNL     1      -3.747 -16.388   4.497  0.00  0.00    -0.205 F 
ENDBRANCH  22  23
ENDBRANCH  20  22
ENDBRANCH  19  20
ENDBRANCH  17  19
ENDBRANCH   5  15
BRANCH   1  30
ATOM     30  C   UNL     1      -0.767  -4.019   0.444  0.00  0.00    +0.096 C 
BRANCH  30  31
ATOM     31  C   UNL     1      -0.582  -2.503   0.537  0.00  0.00    +0.009 C 
BRANCH  31  32
ATOM     32  C   UNL     1       0.853  -2.189   0.965  0.00  0.00    +0.000 C 
BRANCH  32  33
ATOM     33  C   UNL     1       1.037  -0.673   1.058  0.00  0.00    -0.000 C 
BRANCH  33  35
ATOM     34  C   UNL     1       2.656   1.156   1.580  0.00  0.00    +0.004 C 
ATOM     35  C   UNL     1       2.472  -0.359   1.486  0.00  0.00    -0.003 C 
ENDBRANCH  33  35
ENDBRANCH  32  33
ENDBRANCH  31  32
ENDBRANCH  30  31
ENDBRANCH   1  30
TORSDOF 10
