REMARK  Name = ZINC22662435
REMARK  6 active torsions:
REMARK  status: ('A' for Active; 'I' for Inactive)
REMARK    1  A    between atoms: C_1  and  C_2
REMARK    2  A    between atoms: C_2  and  C_4
REMARK    3  A    between atoms: C_2  and  S_13
REMARK    4  A    between atoms: N_6  and  C_7
REMARK    5  A    between atoms: C_7  and  C_8
REMARK    6  A    between atoms: S_13  and  C_14
REMARK                            x       y       z     vdW  Elec       q    Type
REMARK                         _______ _______ _______ _____ _____    ______ ____
ROOT
ATOM      1  C   UNL     1       2.752   5.766  -1.208  0.00  0.00    +0.192 A 
ATOM      2  N   UNL     1       1.449   5.534  -1.264  0.00  0.00    -0.207 NA
ATOM      3  C   UNL     1       0.873   4.426  -0.806  0.00  0.00    +0.129 A 
ATOM      4  C   UNL     1       1.748   3.459  -0.231  0.00  0.00    +0.051 A 
ATOM      5  C   UNL     1       1.379   2.172   0.338  0.00  0.00    -0.025 A 
ATOM      6  C   UNL     1       2.386   1.416   0.830  0.00  0.00    -0.004 A 
ATOM      7  S   UNL     1       3.860   2.368   0.563  0.00  0.00    -0.073 S 
ATOM      8  C   UNL     1       3.129   3.777  -0.206  0.00  0.00    +0.115 A 
ATOM      9  N   UNL     1       3.624   4.903  -0.682  0.00  0.00    -0.214 NA
ATOM     10  C   UNL     1       2.277   0.063   1.463  0.00  0.00    +0.043 C 
ATOM     11  C   UNL     1       0.805  -0.195   1.812  0.00  0.00    +0.005 C 
ATOM     12  C   UNL     1      -0.056   0.159   0.597  0.00  0.00    +0.005 C 
ATOM     13  C   UNL     1      -0.063   1.674   0.390  0.00  0.00    +0.037 C 
ATOM     14  N   UNL     1      -0.493   4.223  -0.885  0.00  0.00    -0.343 N 
ATOM     15  H   UNL     1      -0.935   3.294  -0.496  0.00  0.00    +0.144 HD
ATOM     16  H   UNL     1      -1.138   4.992  -1.336  0.00  0.00    +0.144 HD
ENDROOT
BRANCH   1  17
ATOM     17  S   UNL     1       3.364   7.286  -1.858  0.00  0.00    -0.073 S 
BRANCH  17  19
ATOM     18  C   UNL     1       1.220   7.196  -3.549  0.00  0.00    +0.029 C 
ATOM     19  C   UNL     1       1.814   8.035  -2.416  0.00  0.00    +0.137 C 
BRANCH  19  20
ATOM     20  C   UNL     1       2.082   9.432  -2.914  0.00  0.00    +0.227 C 
ATOM     21  O   UNL     1       3.185   9.729  -3.322  0.00  0.00    -0.275 OA
ATOM     22  N   UNL     1       1.097  10.351  -2.905  0.00  0.00    -0.307 N 
ATOM     23  H   UNL     1       0.097  10.082  -2.535  0.00  0.00    +0.149 HD
BRANCH  22  24
ATOM     24  C   UNL     1       1.357  11.710  -3.389  0.00  0.00    +0.178 C 
BRANCH  24  25
ATOM     25  C   UNL     1       0.101  12.534  -3.273  0.00  0.00    +0.122 A 
ATOM     26  C   UNL     1      -0.263  13.267  -2.205  0.00  0.00    +0.046 A 
ATOM     27  C   UNL     1      -1.500  13.871  -2.526  0.00  0.00    +0.041 A 
ATOM     28  C   UNL     1      -1.818  13.471  -3.771  0.00  0.00    +0.195 A 
ATOM     29  O   UNL     1      -0.842  12.666  -4.220  0.00  0.00    -0.466 OA
ENDBRANCH  24  25
ENDBRANCH  22  24
ENDBRANCH  19  20
ENDBRANCH  17  19
ENDBRANCH   1  17
TORSDOF 5
