REMARK  Name = ZINC13574115
REMARK  11 active torsions:
REMARK  status: ('A' for Active; 'I' for Inactive)
REMARK    1  A    between atoms: C_1  and  C_2
REMARK    2  A    between atoms: C_6  and  C_27
REMARK    3  A    between atoms: C_7  and  C_11
REMARK    4  A    between atoms: C_11  and  C_12
REMARK    5  A    between atoms: N_14  and  C_15
REMARK    6  A    between atoms: C_15  and  C_16
REMARK    7  A    between atoms: C_16  and  C_17
REMARK    8  A    between atoms: C_20  and  S_23
REMARK    9  A    between atoms: S_23  and  N_26
REMARK   10  A    between atoms: C_28  and  O_30
REMARK   11  A    between atoms: O_30  and  C_31
REMARK                            x       y       z     vdW  Elec       q    Type
REMARK                         _______ _______ _______ _____ _____    ______ ____
ROOT
ATOM      1  C   UNL     1       0.023   1.192  -3.854  0.00  0.00    +0.218 C 
ATOM      2  O   UNL     1      -0.915   1.952  -3.743  0.00  0.00    -0.275 OA
ATOM      3  N   UNL     1       0.676   0.762  -2.756  0.00  0.00    -0.315 N 
ATOM      4  H   UNL     1       1.426   0.154  -2.846  0.00  0.00    +0.149 HD
ENDROOT
BRANCH   1   5
ATOM      5  C   UNL     1       0.459   0.729  -5.220  0.00  0.00    +0.138 C 
BRANCH   5  12
ATOM      6  C   UNL     1      -4.770   3.291 -10.672  0.00  0.00    +0.044 C 
ATOM      7  C   UNL     1      -3.931   2.612  -9.621  0.00  0.00    -0.043 A 
ATOM      8  C   UNL     1      -2.769   3.214  -9.181  0.00  0.00    +0.050 A 
ATOM      9  C   UNL     1      -1.988   2.598  -8.213  0.00  0.00    +0.143 A 
ATOM     10  C   UNL     1      -2.391   1.358  -7.686  0.00  0.00    +0.062 A 
ATOM     11  C   UNL     1      -1.558   0.714  -6.670  0.00  0.00    -0.026 A 
ATOM     12  C   UNL     1      -0.427   1.351  -6.268  0.00  0.00    +0.049 A 
ATOM     13  C   UNL     1      -0.083   2.593  -6.840  0.00  0.00    +0.341 A 
ATOM     14  O   UNL     1       0.936   3.152  -6.475  0.00  0.00    -0.245 OA
ATOM     15  O   UNL     1      -0.849   3.176  -7.775  0.00  0.00    -0.422 OA
ATOM     16  C   UNL     1      -1.947  -0.618  -6.080  0.00  0.00    +0.045 C 
ATOM     17  C   UNL     1      -3.575   0.755  -8.140  0.00  0.00    +0.131 A 
ATOM     18  C   UNL     1      -4.335   1.391  -9.106  0.00  0.00    +0.049 A 
BRANCH  17  19
ATOM     19  O   UNL     1      -3.970  -0.441  -7.636  0.00  0.00    -0.494 OA
ATOM     20  C   UNL     1      -5.186  -0.991  -8.149  0.00  0.00    +0.277 C 
ENDBRANCH  17  19
ENDBRANCH   5  12
ENDBRANCH   1   5
BRANCH   3  21
ATOM     21  C   UNL     1       0.252   1.212  -1.428  0.00  0.00    +0.109 C 
BRANCH  21  22
ATOM     22  C   UNL     1       1.152   0.581  -0.364  0.00  0.00    +0.054 C 
BRANCH  22  23
ATOM     23  C   UNL     1       0.716   1.044   1.002  0.00  0.00    -0.046 A 
ATOM     24  C   UNL     1       1.266   2.186   1.553  0.00  0.00    +0.005 A 
ATOM     25  C   UNL     1       0.863   2.614   2.804  0.00  0.00    +0.029 A 
ATOM     26  C   UNL     1      -0.084   1.894   3.508  0.00  0.00    +0.105 A 
ATOM     27  C   UNL     1      -0.631   0.749   2.959  0.00  0.00    +0.029 A 
ATOM     28  C   UNL     1      -0.231   0.324   1.706  0.00  0.00    +0.005 A 
BRANCH  26  29
ATOM     29  S   UNL     1      -0.595   2.436   5.105  0.00  0.00    +0.056 S 
ATOM     30  O   UNL     1      -0.335   3.832   5.162  0.00  0.00    -0.153 OA
ATOM     31  O   UNL     1      -1.889   1.892   5.324  0.00  0.00    -0.153 OA
BRANCH  29  32
ATOM     32  N   UNL     1       0.411   1.722   6.210  0.00  0.00    -0.204 NA
ATOM     33  H   UNL     1       1.119   1.130   5.910  0.00  0.00    +0.144 HD
ATOM     34  H   UNL     1       0.293   1.895   7.157  0.00  0.00    +0.144 HD
ENDBRANCH  29  32
ENDBRANCH  26  29
ENDBRANCH  22  23
ENDBRANCH  21  22
ENDBRANCH   3  21
TORSDOF 8
