REMARK  Name = ZINC37610557
REMARK  8 active torsions:
REMARK  status: ('A' for Active; 'I' for Inactive)
REMARK    1  A    between atoms: C_4  and  O_7
REMARK    2  A    between atoms: O_7  and  C_8
REMARK    3  A    between atoms: C_8  and  C_9
REMARK    4  A    between atoms: N_15  and  C_18
REMARK    5  A    between atoms: C_18  and  C_19
REMARK    6  A    between atoms: C_26  and  C_28
REMARK    7  A    between atoms: C_28  and  O_29
REMARK    8  A    between atoms: O_29  and  C_30
REMARK                            x       y       z     vdW  Elec       q    Type
REMARK                         _______ _______ _______ _____ _____    ______ ____
ROOT
ATOM      1  C   UNL     1       4.642  -2.511  -0.353  0.00  0.00    +0.253 C 
ATOM      2  O   UNL     1       5.574  -1.735  -0.335  0.00  0.00    -0.272 OA
ATOM      3  N   UNL     1       4.869  -3.838  -0.286  0.00  0.00    -0.301 N 
ATOM      4  C   UNL     1       3.715  -4.760  -0.315  0.00  0.00    +0.106 C 
ATOM      5  C   UNL     1       4.007  -5.984  -1.202  0.00  0.00    +0.000 C 
ATOM      6  C   UNL     1       4.764  -5.543  -2.435  0.00  0.00    -0.077 C 
ATOM      7  N   UNL     1       6.199  -5.676  -2.194  0.00  0.00    +0.382 N 
ATOM      8  C   UNL     1       6.810  -4.548  -1.603  0.00  0.00    -0.059 C 
ATOM      9  C   UNL     1       6.235  -4.309  -0.193  0.00  0.00    +0.089 C 
ATOM     10  H   UNL     1       6.348  -6.472  -1.592  0.00  0.00    -0.082 HD
ENDROOT
BRANCH   1  11
ATOM     11  C   UNL     1       3.231  -1.992  -0.450  0.00  0.00    +0.324 C 
BRANCH  11  12
ATOM     12  O   UNL     1       3.251  -0.564  -0.508  0.00  0.00    -0.483 OA
BRANCH  12  16
ATOM     13  C   UNL     1      -0.392   1.352  -0.785  0.00  0.00    +0.000 A 
ATOM     14  C   UNL     1       0.776   2.091  -0.752  0.00  0.00    +0.004 A 
ATOM     15  C   UNL     1       1.998   1.452  -0.659  0.00  0.00    +0.045 A 
ATOM     16  C   UNL     1       2.051   0.067  -0.599  0.00  0.00    +0.121 A 
ATOM     17  C   UNL     1       0.878  -0.672  -0.631  0.00  0.00    +0.045 A 
ATOM     18  C   UNL     1      -0.341  -0.029  -0.725  0.00  0.00    +0.004 A 
ENDBRANCH  12  16
ENDBRANCH  11  12
ENDBRANCH   1  11
BRANCH   7  19
ATOM     19  C   UNL     1       6.862  -5.942  -3.478  0.00  0.00    -0.045 C 
BRANCH  19  20
ATOM     20  C   UNL     1       6.433  -7.316  -3.998  0.00  0.00    +0.119 C 
ATOM     21  C   UNL     1       7.133  -7.600  -5.332  0.00  0.00    +0.137 C 
ATOM     22  N   UNL     1       6.854  -8.993  -5.715  0.00  0.00    -0.294 N 
ATOM     23  C   UNL     1       7.093 -10.047  -4.716  0.00  0.00    +0.136 C 
ATOM     24  C   UNL     1       6.396  -9.644  -3.412  0.00  0.00    +0.179 C 
ATOM     25  O   UNL     1       6.800  -8.321  -3.049  0.00  0.00    -0.375 OA
ATOM     26  C   UNL     1       6.392  -9.296  -6.944  0.00  0.00    +0.253 C 
ATOM     27  O   UNL     1       6.201  -8.413  -7.754  0.00  0.00    -0.272 OA
BRANCH  26  28
ATOM     28  C   UNL     1       6.114 -10.730  -7.313  0.00  0.00    +0.324 C 
BRANCH  28  29
ATOM     29  O   UNL     1       5.637 -10.792  -8.659  0.00  0.00    -0.483 OA
BRANCH  29  30
ATOM     30  C   UNL     1       5.336 -12.023  -9.151  0.00  0.00    +0.121 A 
ATOM     31  C   UNL     1       5.492 -13.147  -8.354  0.00  0.00    +0.047 A 
ATOM     32  C   UNL     1       5.187 -14.397  -8.856  0.00  0.00    +0.023 A 
ATOM     33  C   UNL     1       4.726 -14.528 -10.154  0.00  0.00    +0.041 A 
ATOM     34  C   UNL     1       4.570 -13.408 -10.951  0.00  0.00    +0.023 A 
ATOM     35  C   UNL     1       4.868 -12.156 -10.450  0.00  0.00    +0.047 A 
ATOM     36 CL   UNL     1       4.343 -16.100 -10.783  0.00  0.00    -0.084 Cl
ENDBRANCH  29  30
ENDBRANCH  28  29
ENDBRANCH  26  28
ENDBRANCH  19  20
ENDBRANCH   7  19
TORSDOF 8
