REMARK  Name = ZINC04954134
REMARK  4 active torsions:
REMARK  status: ('A' for Active; 'I' for Inactive)
REMARK    1  A    between atoms: C_7  and  C_11
REMARK    2  A    between atoms: C_11  and  C_12
REMARK    3  A    between atoms: C_11  and  C_21
REMARK    4  A    between atoms: C_16  and  N_18
REMARK                            x       y       z     vdW  Elec       q    Type
REMARK                         _______ _______ _______ _____ _____    ______ ____
ROOT
ATOM      1  C   UNL     1      -0.070   5.347   0.030  0.00  0.00    +0.083 C 
ENDROOT
BRANCH   1   8
ATOM      2  C   UNL     1      -1.410   7.992   3.661  0.00  0.00    +0.001 A 
ATOM      3  C   UNL     1      -0.390   8.209   4.577  0.00  0.00    +0.002 A 
ATOM      4  C   UNL     1       0.862   7.671   4.376  0.00  0.00    +0.026 A 
ATOM      5  C   UNL     1       1.109   6.902   3.243  0.00  0.00    +0.047 A 
ATOM      6  C   UNL     1       0.072   6.685   2.318  0.00  0.00    +0.004 A 
ATOM      7  C   UNL     1      -1.189   7.240   2.542  0.00  0.00    +0.010 A 
ATOM      8  C   UNL     1       0.644   5.853   1.257  0.00  0.00    -0.011 A 
ATOM      9  C   UNL     1       1.925   5.621   1.587  0.00  0.00    +0.088 A 
ATOM     10  N   UNL     1       2.222   6.245   2.768  0.00  0.00    -0.360 N 
ATOM     11  H   UNL     1       3.087   6.224   3.207  0.00  0.00    +0.165 HD
ENDBRANCH   1   8
BRANCH   1  12
ATOM     12  C   UNL     1       0.622   5.865  -1.204  0.00  0.00    -0.011 A 
ATOM     13  C   UNL     1       1.899   5.647  -1.555  0.00  0.00    +0.088 A 
ATOM     14  N   UNL     1       2.171   6.273  -2.741  0.00  0.00    -0.360 N 
ATOM     15  H   UNL     1       3.027   6.257  -3.196  0.00  0.00    +0.165 HD
ATOM     16  C   UNL     1       1.049   6.934  -3.188  0.00  0.00    +0.047 A 
ATOM     17  C   UNL     1       0.030   6.708  -2.246  0.00  0.00    +0.004 A 
ATOM     18  C   UNL     1      -1.236   7.264  -2.441  0.00  0.00    +0.010 A 
ATOM     19  C   UNL     1      -1.478   8.026  -3.550  0.00  0.00    +0.001 A 
ATOM     20  C   UNL     1      -0.476   8.253  -4.482  0.00  0.00    +0.002 A 
ATOM     21  C   UNL     1       0.780   7.714  -4.309  0.00  0.00    +0.026 A 
ENDBRANCH   1  12
BRANCH   1  22
ATOM     22  C   UNL     1      -0.050   3.840   0.022  0.00  0.00    -0.033 A 
ATOM     23  C   UNL     1       1.157   3.165   0.008  0.00  0.00    +0.005 A 
ATOM     24  C   UNL     1       1.175   1.783   0.000  0.00  0.00    +0.003 A 
ATOM     25  C   UNL     1      -0.013   1.076   0.008  0.00  0.00    +0.033 A 
ATOM     26  C   UNL     1      -1.219   1.750   0.017  0.00  0.00    +0.126 A 
ATOM     27  C   UNL     1      -1.238   3.133   0.030  0.00  0.00    +0.037 A 
BRANCH  26  28
ATOM     28  N   UNL     1      -2.490   0.993   0.019  0.00  0.00    +0.056 N 
ATOM     29  O   UNL     1      -2.474  -0.225   0.013  0.00  0.00    -0.126 OA
ATOM     30  O   UNL     1      -3.554   1.588   0.028  0.00  0.00    -0.126 OA
ENDBRANCH  26  28
ENDBRANCH   1  22
TORSDOF 4
