REMARK  Name = ZINC20176206
REMARK  9 active torsions:
REMARK  status: ('A' for Active; 'I' for Inactive)
REMARK    1  A    between atoms: C_1  and  C_2
REMARK    2  A    between atoms: C_2  and  O_3
REMARK    3  A    between atoms: O_3  and  C_4
REMARK    4  A    between atoms: C_7  and  C_10
REMARK    5  A    between atoms: C_16  and  C_35
REMARK    6  A    between atoms: C_17  and  C_26
REMARK    7  A    between atoms: C_29  and  O_32
REMARK    8  A    between atoms: O_32  and  C_33
REMARK    9  A    between atoms: C_33  and  C_34
REMARK                            x       y       z     vdW  Elec       q    Type
REMARK                         _______ _______ _______ _____ _____    ______ ____
ROOT
ATOM      1  C   UNL     1      -0.013   1.076   0.008  0.00  0.00    +0.041 C 
ATOM      2  C   UNL     1      -1.173   1.766   0.150  0.00  0.00    +0.138 A 
ATOM      3  C   UNL     1      -1.339   3.223   0.203  0.00  0.00    +0.363 A 
ATOM      4  O   UNL     1      -0.457   4.058   0.129  0.00  0.00    -0.243 OA
ATOM      5  O   UNL     1      -2.656   3.456   0.348  0.00  0.00    -0.403 OA
ATOM      6  C   UNL     1      -3.333   2.285   0.400  0.00  0.00    +0.227 A 
ATOM      7  C   UNL     1      -4.680   2.083   0.545  0.00  0.00    +0.103 C 
ATOM      8  C   UNL     1      -5.197   0.661   0.573  0.00  0.00    +0.119 C 
ATOM      9  C   UNL     1      -4.173  -0.440   0.438  0.00  0.00    +0.119 A 
ATOM     10  C   UNL     1      -2.877  -0.100   0.302  0.00  0.00    +0.235 A 
ATOM     11  O   UNL     1      -2.179  -1.255   0.200  0.00  0.00    -0.408 OA
ATOM     12  C   UNL     1      -3.053  -2.273   0.276  0.00  0.00    +0.287 A 
ATOM     13  N   UNL     1      -4.260  -1.782   0.420  0.00  0.00    -0.197 NA
ATOM     14  N   UNL     1      -2.733  -3.618   0.214  0.00  0.00    -0.313 N 
ATOM     15  N   UNL     1      -2.468   1.235   0.283  0.00  0.00    -0.241 N 
ATOM     16  H   UNL     1      -3.526  -4.377   0.286  0.00  0.00    +0.147 HD
ATOM     17  H   UNL     1      -1.684  -3.929   0.092  0.00  0.00    +0.147 HD
ENDROOT
BRANCH   1  21
ATOM     18  C   UNL     1       3.589   3.138  -0.859  0.00  0.00    +0.121 A 
ATOM     19  C   UNL     1       3.594   2.091   0.055  0.00  0.00    +0.046 A 
ATOM     20  C   UNL     1       2.427   1.418   0.341  0.00  0.00    +0.011 A 
ATOM     21  C   UNL     1       1.234   1.790  -0.292  0.00  0.00    -0.023 A 
ATOM     22  C   UNL     1       1.237   2.843  -1.216  0.00  0.00    +0.011 A 
ATOM     23  C   UNL     1       2.408   3.512  -1.491  0.00  0.00    +0.046 A 
BRANCH  18  24
ATOM     24  O   UNL     1       4.743   3.799  -1.137  0.00  0.00    -0.492 OA
BRANCH  24  26
ATOM     25  C   UNL     1       6.055   5.484  -2.269  0.00  0.00    +0.048 C 
ATOM     26  C   UNL     1       4.668   4.864  -2.087  0.00  0.00    +0.225 C 
ENDBRANCH  24  26
ENDBRANCH  18  24
ENDBRANCH   1  21
BRANCH   8  27
ATOM     27  C   UNL     1      -6.196   0.507  -0.545  0.00  0.00    -0.033 A 
ATOM     28  C   UNL     1      -5.805   0.724  -1.854  0.00  0.00    +0.008 A 
ATOM     29  C   UNL     1      -6.716   0.577  -2.881  0.00  0.00    +0.046 A 
ATOM     30  C   UNL     1      -8.028   0.225  -2.599  0.00  0.00    +0.121 A 
ATOM     31  C   UNL     1      -8.419   0.013  -1.284  0.00  0.00    +0.046 A 
ATOM     32  C   UNL     1      -7.502   0.155  -0.261  0.00  0.00    +0.008 A 
BRANCH  30  33
ATOM     33  O   UNL     1      -8.928   0.086  -3.607  0.00  0.00    -0.492 OA
BRANCH  33  34
ATOM     34  C   UNL     1      -8.455   0.319  -4.935  0.00  0.00    +0.225 C 
ATOM     35  C   UNL     1      -9.602   0.118  -5.928  0.00  0.00    +0.048 C 
ENDBRANCH  33  34
ENDBRANCH  30  33
ENDBRANCH   8  27
BRANCH   7  36
ATOM     36  C   UNL     1      -5.578   3.192   0.666  0.00  0.00    +0.101 C 
ATOM     37  N   UNL     1      -6.290   4.072   0.762  0.00  0.00    -0.191 NA
ENDBRANCH   7  36
TORSDOF 7
