REMARK  Name = ZINC09019841
REMARK  9 active torsions:
REMARK  status: ('A' for Active; 'I' for Inactive)
REMARK    1  A    between atoms: C_1  and  C_2
REMARK    2  A    between atoms: C_2  and  O_3
REMARK    3  A    between atoms: O_3  and  C_4
REMARK    4  A    between atoms: C_7  and  C_10
REMARK    5  A    between atoms: N_11  and  N_12
REMARK    6  A    between atoms: C_13  and  C_15
REMARK    7  A    between atoms: C_15  and  N_56
REMARK    8  A    between atoms: N_18  and  S_21
REMARK    9  A    between atoms: S_21  and  C_24
REMARK                            x       y       z     vdW  Elec       q    Type
REMARK                         _______ _______ _______ _____ _____    ______ ____
ROOT
ATOM      1  C   UNL     1      -1.526   3.052  -0.021  0.00  0.00    -0.061 C 
ATOM      2  C   UNL     1      -0.721   2.402   1.110  0.00  0.00    +0.091 C 
ATOM      3  N   UNL     1       0.533   3.151   1.285  0.00  0.00    -0.180 NA
ATOM      4  C   UNL     1       1.359   3.411   0.096  0.00  0.00    +0.091 C 
ATOM      5  C   UNL     1       0.472   4.021  -0.995  0.00  0.00    -0.061 C 
ATOM      6  N   UNL     1      -0.677   3.120  -1.230  0.00  0.00    +0.387 N 
ATOM      7  H   UNL     1      -0.325   2.180  -1.443  0.00  0.00    -0.081 HD
ENDROOT
BRANCH   3   8
ATOM      8  S   UNL     1       0.998   3.691   2.780  0.00  0.00    +0.061 S 
ATOM      9  O   UNL     1       1.870   4.792   2.561  0.00  0.00    -0.153 OA
ATOM     10  O   UNL     1      -0.186   3.801   3.558  0.00  0.00    -0.153 OA
BRANCH   8  11
ATOM     11  C   UNL     1       1.969   2.418   3.515  0.00  0.00    +0.106 A 
ATOM     12  C   UNL     1       1.362   1.446   4.288  0.00  0.00    +0.029 A 
ATOM     13  C   UNL     1       2.122   0.444   4.861  0.00  0.00    +0.017 A 
ATOM     14  C   UNL     1       3.492   0.420   4.670  0.00  0.00    +0.018 A 
ATOM     15  C   UNL     1       4.099   1.397   3.901  0.00  0.00    +0.017 A 
ATOM     16  C   UNL     1       3.338   2.395   3.324  0.00  0.00    +0.029 A 
ATOM     17 BR   UNL     1       4.534  -0.946   5.460  0.00  0.00    -0.050 Br
ENDBRANCH   8  11
ENDBRANCH   3   8
BRANCH   6  18
ATOM     18  C   UNL     1      -1.472   3.606  -2.377  0.00  0.00    +0.020 C 
BRANCH  18  20
ATOM     19  N   UNL     1      -2.599   5.684  -3.105  0.00  0.00    -0.209 N 
ATOM     20  C   UNL     1      -1.954   5.013  -2.131  0.00  0.00    +0.216 C 
ATOM     21  O   UNL     1      -1.761   5.540  -1.056  0.00  0.00    -0.276 OA
ATOM     22  H   UNL     1      -2.753   5.263  -3.965  0.00  0.00    +0.177 HD
BRANCH  19  24
ATOM     23  C   UNL     1      -3.668   7.639  -3.814  0.00  0.00    +0.138 C 
ATOM     24  N   UNL     1      -3.047   6.992  -2.876  0.00  0.00    -0.188 NA
BRANCH  23  28
ATOM     25  C   UNL     1      -5.025  11.601  -3.120  0.00  0.00    +0.121 A 
ATOM     26  C   UNL     1      -5.247  10.999  -4.352  0.00  0.00    +0.046 A 
ATOM     27  C   UNL     1      -4.808   9.713  -4.582  0.00  0.00    +0.013 A 
ATOM     28  C   UNL     1      -4.139   9.015  -3.573  0.00  0.00    -0.005 A 
ATOM     29  C   UNL     1      -3.924   9.622  -2.334  0.00  0.00    +0.013 A 
ATOM     30  C   UNL     1      -4.361  10.911  -2.115  0.00  0.00    +0.046 A 
BRANCH  25  31
ATOM     31  O   UNL     1      -5.460  12.869  -2.898  0.00  0.00    -0.492 OA
BRANCH  31  33
ATOM     32  C   UNL     1      -5.757  14.851  -1.548  0.00  0.00    +0.048 C 
ATOM     33  C   UNL     1      -5.199  13.428  -1.609  0.00  0.00    +0.225 C 
ENDBRANCH  31  33
ENDBRANCH  25  31
ENDBRANCH  23  28
ENDBRANCH  19  24
ENDBRANCH  18  20
ENDBRANCH   6  18
TORSDOF 8
