REMARK  Name = ZINC12477524
REMARK  5 active torsions:
REMARK  status: ('A' for Active; 'I' for Inactive)
REMARK    1  A    between atoms: C_4  and  C_7
REMARK    2  A    between atoms: C_7  and  C_9
REMARK    3  A    between atoms: C_7  and  C_21
REMARK    4  A    between atoms: C_9  and  C_10
REMARK    5  A    between atoms: C_15  and  C_18
REMARK                            x       y       z     vdW  Elec       q    Type
REMARK                         _______ _______ _______ _____ _____    ______ ____
ROOT
ATOM      1  C   UNL     1      -6.141   3.383   3.982  0.00  0.00    +0.058 C 
ENDROOT
BRANCH   1   2
ATOM      2  C   UNL     1      -6.497   4.275   5.144  0.00  0.00    -0.039 A 
ATOM      3  C   UNL     1      -5.505   4.736   5.990  0.00  0.00    +0.005 A 
ATOM      4  C   UNL     1      -5.830   5.558   7.052  0.00  0.00    +0.020 A 
ATOM      5  C   UNL     1      -7.149   5.911   7.275  0.00  0.00    +0.041 A 
ATOM      6  C   UNL     1      -8.141   5.446   6.431  0.00  0.00    +0.020 A 
ATOM      7  C   UNL     1      -7.815   4.628   5.366  0.00  0.00    +0.005 A 
ATOM      8 CL   UNL     1      -7.558   6.938   8.614  0.00  0.00    -0.084 Cl
ENDBRANCH   1   2
BRANCH   1  12
ATOM      9  C   UNL     1      -4.781  -0.391   5.448  0.00  0.00    +0.000 A 
ATOM     10  C   UNL     1      -5.980  -0.306   4.766  0.00  0.00    +0.000 A 
ATOM     11  C   UNL     1      -6.420   0.915   4.292  0.00  0.00    +0.004 A 
ATOM     12  C   UNL     1      -5.661   2.052   4.499  0.00  0.00    -0.040 A 
ATOM     13  C   UNL     1      -4.459   1.966   5.177  0.00  0.00    +0.004 A 
ATOM     14  C   UNL     1      -4.021   0.745   5.655  0.00  0.00    +0.000 A 
ENDBRANCH   1  12
BRANCH   1  15
ATOM     15  C   UNL     1      -5.032   4.039   3.156  0.00  0.00    +0.108 C 
BRANCH  15  16
ATOM     16  C   UNL     1      -4.762   3.208   1.928  0.00  0.00    +0.216 C 
ATOM     17  O   UNL     1      -5.394   2.192   1.733  0.00  0.00    -0.276 OA
ATOM     18  N   UNL     1      -3.818   3.595   1.047  0.00  0.00    -0.301 N 
ATOM     19  C   UNL     1      -3.544   2.795  -0.154  0.00  0.00    +0.108 C 
ATOM     20  C   UNL     1      -2.046   2.479  -0.204  0.00  0.00    +0.032 C 
ATOM     21  C   UNL     1      -1.250   3.784  -0.122  0.00  0.00    +0.078 C 
ATOM     22  C   UNL     1      -1.552   4.485   1.204  0.00  0.00    +0.032 C 
ATOM     23  C   UNL     1      -3.044   4.823   1.270  0.00  0.00    +0.108 C 
BRANCH  21  24
ATOM     24  C   UNL     1       0.224   3.480  -0.205  0.00  0.00    +0.214 C 
ATOM     25  O   UNL     1       0.601   2.333  -0.319  0.00  0.00    -0.276 OA
ATOM     26  N   UNL     1       1.122   4.483  -0.159  0.00  0.00    -0.329 N 
ATOM     27  H   UNL     1       2.071   4.288  -0.217  0.00  0.00    +0.145 HD
ATOM     28  H   UNL     1       0.821   5.401  -0.068  0.00  0.00    +0.145 HD
ENDBRANCH  21  24
ENDBRANCH  15  16
ENDBRANCH   1  15
TORSDOF 5
