REMARK  Name = ZINC20248955
REMARK  15 active torsions:
REMARK  status: ('A' for Active; 'I' for Inactive)
REMARK    1  A    between atoms: C_1  and  O_2
REMARK    2  A    between atoms: O_2  and  C_3
REMARK    3  A    between atoms: C_6  and  N_9
REMARK    4  A    between atoms: C_13  and  N_17
REMARK    5  A    between atoms: N_17  and  C_18
REMARK    6  A    between atoms: C_18  and  C_19
REMARK    7  A    between atoms: C_19  and  C_20
REMARK    8  A    between atoms: C_20  and  C_21
REMARK    9  A    between atoms: C_21  and  C_22
REMARK   10  A    between atoms: C_22  and  C_23
REMARK   11  A    between atoms: C_23  and  N_24
REMARK   12  A    between atoms: N_24  and  C_25
REMARK   13  A    between atoms: N_30  and  C_33
REMARK   14  A    between atoms: C_36  and  O_39
REMARK   15  A    between atoms: O_39  and  C_40
REMARK                            x       y       z     vdW  Elec       q    Type
REMARK                         _______ _______ _______ _____ _____    ______ ____
ROOT
ATOM      1  C   UNL     1       1.133  -8.537   6.405  0.00  0.00    -0.002 C 
ENDROOT
BRANCH   1   2
ATOM      2  C   UNL     1       1.518  -7.133   6.878  0.00  0.00    -0.019 C 
BRANCH   2   3
ATOM      3  C   UNL     1       2.418  -6.472   5.833  0.00  0.00    -0.082 C 
BRANCH   3   4
ATOM      4  N   UNL     1       2.787  -5.124   6.287  0.00  0.00    +0.387 N 
ATOM      5  H   UNL     1       3.281  -5.189   7.164  0.00  0.00    -0.085 HD
ATOM      6  H   UNL     1       1.952  -4.571   6.411  0.00  0.00    -0.085 HD
BRANCH   4  11
ATOM      7  N   UNL     1       2.898  -2.812   3.856  0.00  0.00    -0.212 N 
ATOM      8  C   UNL     1       3.598  -2.143   4.779  0.00  0.00    +0.225 C 
ATOM      9  O   UNL     1       3.760  -0.941   4.803  0.00  0.00    -0.275 OA
ATOM     10  C   UNL     1       4.156  -3.122   5.789  0.00  0.00    +0.090 C 
ATOM     11  C   UNL     1       3.651  -4.489   5.283  0.00  0.00    +0.026 C 
ATOM     12  C   UNL     1       2.856  -4.137   4.044  0.00  0.00    +0.213 C 
ATOM     13  O   UNL     1       2.276  -4.930   3.334  0.00  0.00    -0.277 OA
BRANCH   7  17
ATOM     14  C   UNL     1       0.987  -0.924   0.664  0.00  0.00    +0.120 A 
ATOM     15  C   UNL     1       0.236  -1.520   1.667  0.00  0.00    +0.047 A 
ATOM     16  C   UNL     1       0.868  -2.145   2.724  0.00  0.00    +0.027 A 
ATOM     17  C   UNL     1       2.255  -2.178   2.782  0.00  0.00    +0.044 A 
ATOM     18  C   UNL     1       3.005  -1.581   1.778  0.00  0.00    +0.027 A 
ATOM     19  C   UNL     1       2.373  -0.961   0.719  0.00  0.00    +0.047 A 
BRANCH  14  21
ATOM     20  C   UNL     1      -1.065  -0.308  -0.368  0.00  0.00    +0.277 C 
ATOM     21  O   UNL     1       0.364  -0.308  -0.376  0.00  0.00    -0.495 OA
ENDBRANCH  14  21
ENDBRANCH   7  17
ENDBRANCH   4  11
ENDBRANCH   3   4
ENDBRANCH   2   3
ENDBRANCH   1   2
BRANCH   1  22
ATOM     22  C   UNL     1       0.233  -9.198   7.451  0.00  0.00    -0.002 C 
BRANCH  22  23
ATOM     23  C   UNL     1      -0.152 -10.602   6.978  0.00  0.00    -0.019 C 
BRANCH  23  24
ATOM     24  C   UNL     1      -1.052 -11.264   8.023  0.00  0.00    -0.082 C 
BRANCH  24  25
ATOM     25  N   UNL     1      -1.421 -12.611   7.569  0.00  0.00    +0.387 N 
ATOM     26  H   UNL     1      -1.915 -12.546   6.692  0.00  0.00    -0.085 HD
ATOM     27  H   UNL     1      -0.586 -13.165   7.445  0.00  0.00    -0.085 HD
BRANCH  25  28
ATOM     28  C   UNL     1      -2.285 -13.246   8.573  0.00  0.00    +0.026 C 
ATOM     29  C   UNL     1      -2.747 -14.636   8.090  0.00  0.00    +0.090 C 
ATOM     30  C   UNL     1      -2.178 -15.579   9.127  0.00  0.00    +0.225 C 
ATOM     31  O   UNL     1      -2.307 -16.785   9.127  0.00  0.00    -0.275 OA
ATOM     32  N   UNL     1      -1.508 -14.872  10.046  0.00  0.00    -0.212 N 
ATOM     33  C   UNL     1      -1.504 -13.546   9.834  0.00  0.00    +0.213 C 
ATOM     34  O   UNL     1      -0.963 -12.721  10.538  0.00  0.00    -0.277 OA
BRANCH  32  35
ATOM     35  C   UNL     1      -0.864 -15.467  11.142  0.00  0.00    +0.044 A 
ATOM     36  C   UNL     1      -1.345 -15.258  12.427  0.00  0.00    +0.027 A 
ATOM     37  C   UNL     1      -0.711 -15.844  13.505  0.00  0.00    +0.047 A 
ATOM     38  C   UNL     1       0.407 -16.640  13.303  0.00  0.00    +0.120 A 
ATOM     39  C   UNL     1       0.888 -16.849  12.019  0.00  0.00    +0.047 A 
ATOM     40  C   UNL     1       0.251 -16.269  10.940  0.00  0.00    +0.027 A 
BRANCH  38  41
ATOM     41  O   UNL     1       1.031 -17.217  14.365  0.00  0.00    -0.495 OA
ATOM     42  C   UNL     1       2.175 -18.024  14.084  0.00  0.00    +0.277 C 
ENDBRANCH  38  41
ENDBRANCH  32  35
ENDBRANCH  25  28
ENDBRANCH  24  25
ENDBRANCH  23  24
ENDBRANCH  22  23
ENDBRANCH   1  22
TORSDOF 13
