REMARK  Name = ZINC63780933
REMARK  7 active torsions:
REMARK  status: ('A' for Active; 'I' for Inactive)
REMARK    1  A    between atoms: C_6  and  C_11
REMARK    2  A    between atoms: N_13  and  C_14
REMARK    3  A    between atoms: C_14  and  C_15
REMARK    4  A    between atoms: C_15  and  N_16
REMARK    5  A    between atoms: C_17  and  C_19
REMARK    6  A    between atoms: N_21  and  C_22
REMARK    7  A    between atoms: C_22  and  C_23
REMARK                            x       y       z     vdW  Elec       q    Type
REMARK                         _______ _______ _______ _____ _____    ______ ____
ROOT
ATOM      1  C   UNL     1       3.391  -6.211   2.553  0.00  0.00    +0.123 C 
ENDROOT
BRANCH   1   2
ATOM      2  N   UNL     1       3.889  -6.902   3.744  0.00  0.00    -0.306 N 
ATOM      3  C   UNL     1       3.596  -8.203   3.941  0.00  0.00    +0.299 C 
ATOM      4  O   UNL     1       2.920  -8.802   3.130  0.00  0.00    -0.265 OA
ATOM      5  H   UNL     1       4.429  -6.424   4.392  0.00  0.00    +0.149 HD
BRANCH   3   6
ATOM      6  C   UNL     1       4.105  -8.909   5.157  0.00  0.00    +0.299 C 
ATOM      7  O   UNL     1       4.781  -8.310   5.967  0.00  0.00    -0.265 OA
ATOM      8  N   UNL     1       3.812 -10.209   5.353  0.00  0.00    -0.303 N 
ATOM      9  H   UNL     1       3.272 -10.688   4.705  0.00  0.00    +0.149 HD
BRANCH   8  10
ATOM     10  C   UNL     1       4.311 -10.901   6.544  0.00  0.00    +0.141 C 
BRANCH  10  11
ATOM     11  C   UNL     1       3.847 -12.334   6.525  0.00  0.00    -0.012 A 
ATOM     12  C   UNL     1       2.753 -12.717   7.278  0.00  0.00    +0.006 A 
ATOM     13  C   UNL     1       2.327 -14.032   7.260  0.00  0.00    +0.000 A 
ATOM     14  C   UNL     1       2.995 -14.965   6.489  0.00  0.00    +0.001 A 
ATOM     15  C   UNL     1       4.088 -14.583   5.735  0.00  0.00    +0.020 A 
ATOM     16  C   UNL     1       4.512 -13.266   5.748  0.00  0.00    +0.046 A 
ATOM     17 CL   UNL     1       5.882 -12.785   4.797  0.00  0.00    -0.083 Cl
ENDBRANCH  10  11
ENDBRANCH   8  10
ENDBRANCH   3   6
ENDBRANCH   1   2
BRANCH   1  18
ATOM     18  C   UNL     1       3.862  -4.756   2.573  0.00  0.00    +0.123 C 
BRANCH  18  21
ATOM     19  C   UNL     1       3.656  -2.764   1.185  0.00  0.00    +0.239 C 
ATOM     20  O   UNL     1       4.332  -2.165   1.995  0.00  0.00    -0.273 OA
ATOM     21  N   UNL     1       3.363  -4.065   1.381  0.00  0.00    -0.312 N 
ATOM     22  H   UNL     1       2.823  -4.543   0.734  0.00  0.00    +0.149 HD
BRANCH  19  28
ATOM     23  C   UNL     1      -0.016   1.348   0.009  0.00  0.00    +0.001 A 
ATOM     24  C   UNL     1       1.166   2.101   0.002  0.00  0.00    +0.002 A 
ATOM     25  C   UNL     1       2.391   1.535  -0.013  0.00  0.00    +0.026 A 
ATOM     26  C   UNL     1       2.529   0.120  -0.022  0.00  0.00    +0.043 A 
ATOM     27  N   UNL     1       3.587  -0.654  -0.037  0.00  0.00    -0.370 N 
ATOM     28  C   UNL     1       3.143  -2.053  -0.041  0.00  0.00    +0.190 C 
ATOM     29  C   UNL     1       1.631  -2.008  -0.025  0.00  0.00    +0.016 C 
ATOM     30  C   UNL     1       1.295  -0.698  -0.014  0.00  0.00    -0.004 A 
ATOM     31  C   UNL     1       0.002  -0.004   0.002  0.00  0.00    +0.010 A 
ATOM     32  H   UNL     1       4.509  -0.353  -0.045  0.00  0.00    +0.161 HD
ENDBRANCH  19  28
ENDBRANCH  18  21
ENDBRANCH   1  18
TORSDOF 7
