REMARK  Name = ZINC09324970
REMARK  15 active torsions:
REMARK  status: ('A' for Active; 'I' for Inactive)
REMARK    1  A    between atoms: C_1  and  C_2
REMARK    2  A    between atoms: C_2  and  N_67
REMARK    3  A    between atoms: C_3  and  C_4
REMARK    4  A    between atoms: C_3  and  N_67
REMARK    5  A    between atoms: C_5  and  C_6
REMARK    6  A    between atoms: C_5  and  N_67
REMARK    7  A    between atoms: C_6  and  N_7
REMARK    8  A    between atoms: C_10  and  S_14
REMARK    9  A    between atoms: S_14  and  C_15
REMARK   10  A    between atoms: C_15  and  C_16
REMARK   11  A    between atoms: C_21  and  C_29
REMARK   12  A    between atoms: C_22  and  C_24
REMARK   13  A    between atoms: C_24  and  O_26
REMARK   14  A    between atoms: O_26  and  C_27
REMARK   15  A    between atoms: C_27  and  C_28
REMARK                            x       y       z     vdW  Elec       q    Type
REMARK                         _______ _______ _______ _____ _____    ______ ____
ROOT
ATOM      1  N   UNL     1      -1.318   4.396  -2.674  0.00  0.00    -0.298 N 
ATOM      2  C   UNL     1      -0.936   3.917  -1.448  0.00  0.00    +0.029 A 
ATOM      3  C   UNL     1      -0.851   4.770  -0.411  0.00  0.00    +0.004 A 
ATOM      4  C   UNL     1      -1.171   6.134  -0.621  0.00  0.00    +0.108 A 
ATOM      5  N   UNL     1      -1.539   6.551  -1.824  0.00  0.00    -0.186 NA
ATOM      6  C   UNL     1      -1.611   5.696  -2.842  0.00  0.00    +0.350 A 
ATOM      7  O   UNL     1      -1.949   6.098  -3.943  0.00  0.00    -0.244 OA
ATOM      8  C   UNL     1      -0.420   4.346   0.967  0.00  0.00    +0.039 C 
ATOM      9  C   UNL     1      -0.532   2.831   1.123  0.00  0.00    +0.005 C 
ATOM     10  C   UNL     1       0.180   2.170  -0.063  0.00  0.00    +0.006 C 
ATOM     11  C   UNL     1      -0.631   2.448  -1.327  0.00  0.00    +0.054 C 
ENDROOT
BRANCH   1  12
ATOM     12  C   UNL     1      -1.406   3.480  -3.813  0.00  0.00    +0.108 C 
BRANCH  12  13
ATOM     13  C   UNL     1      -2.816   2.891  -3.886  0.00  0.00    -0.057 C 
BRANCH  13  14
ATOM     14  N   UNL     1      -2.896   1.986  -5.052  0.00  0.00    +0.380 N 
ATOM     15  H   UNL     1      -2.559   2.485  -5.885  0.00  0.00    -0.082 HD
BRANCH  14  17
ATOM     16  C   UNL     1      -2.538   0.007  -3.615  0.00  0.00    -0.017 C 
ATOM     17  C   UNL     1      -2.046   0.798  -4.829  0.00  0.00    -0.082 C 
ENDBRANCH  14  17
BRANCH  14  18
ATOM     18  C   UNL     1      -4.296   1.571  -5.275  0.00  0.00    -0.082 C 
ATOM     19  C   UNL     1      -4.409   0.949  -6.668  0.00  0.00    -0.017 C 
ENDBRANCH  14  18
ENDBRANCH  13  14
ENDBRANCH  12  13
ENDBRANCH   1  12
BRANCH   4  20
ATOM     20  S   UNL     1      -1.080   7.276   0.717  0.00  0.00    -0.096 S 
BRANCH  20  21
ATOM     21  C   UNL     1      -1.582   8.795  -0.131  0.00  0.00    +0.172 C 
BRANCH  21  22
ATOM     22  C   UNL     1      -1.578   9.941   0.847  0.00  0.00    +0.229 C 
ATOM     23  O   UNL     1      -1.266   9.751   2.004  0.00  0.00    -0.275 OA
ATOM     24  N   UNL     1      -1.921  11.178   0.437  0.00  0.00    -0.264 N 
ATOM     25  C   UNL     1      -1.917  12.231   1.335  0.00  0.00    +0.165 A 
ATOM     26  N   UNL     1      -2.214  13.504   1.121  0.00  0.00    -0.229 NA
ATOM     27  C   UNL     1      -2.168  14.389   2.081  0.00  0.00    +0.062 A 
ATOM     28  C   UNL     1      -1.782  13.955   3.343  0.00  0.00    +0.120 A 
ATOM     29  S   UNL     1      -1.513  12.217   3.023  0.00  0.00    -0.045 S 
ATOM     30  C   UNL     1      -2.515  15.833   1.827  0.00  0.00    +0.067 C 
ATOM     31  H   UNL     1      -2.170  11.331  -0.488  0.00  0.00    +0.157 HD
BRANCH  28  32
ATOM     32  C   UNL     1      -1.637  14.709   4.586  0.00  0.00    +0.348 C 
ATOM     33  O   UNL     1      -1.869  15.903   4.603  0.00  0.00    -0.244 OA
BRANCH  32  34
ATOM     34  O   UNL     1      -1.245  14.082   5.714  0.00  0.00    -0.461 OA
BRANCH  34  35
ATOM     35  C   UNL     1      -1.124  14.881   6.893  0.00  0.00    +0.229 C 
ATOM     36  C   UNL     1      -0.673  14.002   8.061  0.00  0.00    +0.048 C 
ENDBRANCH  34  35
ENDBRANCH  32  34
ENDBRANCH  28  32
ENDBRANCH  21  22
ENDBRANCH  20  21
ENDBRANCH   4  20
TORSDOF 11
