REMARK  Name = ZINC27558381
REMARK  11 active torsions:
REMARK  status: ('A' for Active; 'I' for Inactive)
REMARK    1  A    between atoms: C_1  and  C_2
REMARK    2  A    between atoms: C_2  and  C_3
REMARK    3  A    between atoms: C_8  and  N_9
REMARK    4  A    between atoms: C_10  and  C_12
REMARK    5  A    between atoms: C_12  and  N_13
REMARK    6  A    between atoms: C_14  and  C_16
REMARK    7  A    between atoms: C_16  and  N_17
REMARK    8  A    between atoms: N_17  and  C_18
REMARK    9  A    between atoms: N_17  and  C_19
REMARK   10  A    between atoms: C_19  and  C_21
REMARK   11  A    between atoms: C_19  and  C_22
REMARK                            x       y       z     vdW  Elec       q    Type
REMARK                         _______ _______ _______ _____ _____    ______ ____
ROOT
ATOM      1  N   UNL     1       0.315  -0.404  -1.040  0.00  0.00    -0.308 N 
ATOM      2  C   UNL     1       0.302   0.913  -0.754  0.00  0.00    +0.197 C 
ATOM      3  O   UNL     1      -0.742   1.461  -0.469  0.00  0.00    -0.278 OA
ATOM      4  H   UNL     1       1.260  -0.901  -1.302  0.00  0.00    +0.149 HD
ENDROOT
BRANCH   1   5
ATOM      5  C   UNL     1      -0.931  -1.175  -1.001  0.00  0.00    +0.200 C 
BRANCH   5   7
ATOM      6  N   UNL     1      -1.648  -3.510  -1.387  0.00  0.00    -0.284 N 
ATOM      7  C   UNL     1      -0.645  -2.611  -1.358  0.00  0.00    +0.234 C 
ATOM      8  O   UNL     1       0.488  -2.957  -1.619  0.00  0.00    -0.274 OA
ATOM      9  H   UNL     1      -2.659  -3.218  -1.065  0.00  0.00    +0.155 HD
BRANCH   6  15
ATOM     10  C   UNL     1      -2.291  -5.835  -1.504  0.00  0.00    -0.026 A 
ATOM     11  C   UNL     1      -2.047  -7.124  -1.938  0.00  0.00    +0.005 A 
ATOM     12  C   UNL     1      -0.922  -7.399  -2.693  0.00  0.00    +0.000 A 
ATOM     13  C   UNL     1      -0.037  -6.386  -3.015  0.00  0.00    +0.002 A 
ATOM     14  C   UNL     1      -0.278  -5.095  -2.588  0.00  0.00    +0.023 A 
ATOM     15  C   UNL     1      -1.404  -4.816  -1.825  0.00  0.00    +0.037 A 
BRANCH  10  17
ATOM     16  C   UNL     1      -4.641  -5.049  -1.600  0.00  0.00    +0.009 C 
ATOM     17  C   UNL     1      -3.518  -5.536  -0.682  0.00  0.00    +0.033 C 
ENDBRANCH  10  17
ENDBRANCH   6  15
ENDBRANCH   5   7
ENDBRANCH   1   5
BRANCH   2  18
ATOM     18  C   UNL     1       1.583   1.705  -0.794  0.00  0.00    +0.019 C 
BRANCH  18  19
ATOM     19  N   UNL     1       1.305   3.105  -0.447  0.00  0.00    +0.388 N 
ATOM     20  C   UNL     1       0.466   3.744  -1.469  0.00  0.00    -0.095 C 
ATOM     21  H   UNL     1       0.747   3.113   0.501  0.00  0.00    -0.081 HD
BRANCH  19  22
ATOM     22  C   UNL     1       2.551   3.855  -0.243  0.00  0.00    -0.041 C 
ATOM     23  C   UNL     1       3.269   4.025  -1.584  0.00  0.00    -0.008 C 
BRANCH  22  24
ATOM     24  C   UNL     1       2.233   5.211   0.332  0.00  0.00    -0.061 A 
ATOM     25  C   UNL     1       2.957   6.318  -0.069  0.00  0.00    +0.005 A 
ATOM     26  C   UNL     1       2.663   7.563   0.453  0.00  0.00    +0.038 A 
ATOM     27  C   UNL     1       1.650   7.700   1.387  0.00  0.00    +0.123 A 
ATOM     28  C   UNL     1       0.930   6.589   1.793  0.00  0.00    +0.038 A 
ATOM     29  C   UNL     1       1.222   5.346   1.264  0.00  0.00    +0.005 A 
ATOM     30  F   UNL     1       1.366   8.915   1.904  0.00  0.00    -0.205 F 
ENDBRANCH  22  24
ENDBRANCH  19  22
ENDBRANCH  18  19
ENDBRANCH   2  18
TORSDOF 8
