REMARK  Name = ZINC08790910
REMARK  8 active torsions:
REMARK  status: ('A' for Active; 'I' for Inactive)
REMARK    1  A    between atoms: C_1  and  C_2
REMARK    2  A    between atoms: C_16  and  C_18
REMARK    3  A    between atoms: C_18  and  C_19
REMARK    4  A    between atoms: C_18  and  C_20
REMARK    5  A    between atoms: N_23  and  C_26
REMARK    6  A    between atoms: C_26  and  C_27
REMARK    7  A    between atoms: C_30  and  O_33
REMARK    8  A    between atoms: O_33  and  C_34
REMARK                            x       y       z     vdW  Elec       q    Type
REMARK                         _______ _______ _______ _____ _____    ______ ____
ROOT
ATOM      1  C   UNL     1      -2.105   0.680  -0.085  0.00  0.00    +0.045 C 
ATOM      2  C   UNL     1      -0.907   1.586   0.041  0.00  0.00    -0.029 A 
ATOM      3  C   UNL     1       0.339   1.048   0.287  0.00  0.00    +0.005 A 
ATOM      4  C   UNL     1       1.445   1.871   0.398  0.00  0.00    +0.001 A 
ATOM      5  C   UNL     1       1.300   3.241   0.266  0.00  0.00    +0.004 A 
ATOM      6  C   UNL     1       0.058   3.782   0.025  0.00  0.00    -0.027 A 
ATOM      7  C   UNL     1      -1.063   2.964  -0.088  0.00  0.00    +0.039 A 
ATOM      8  N   UNL     1      -2.201   3.736  -0.331  0.00  0.00    -0.286 N 
ATOM      9  C   UNL     1      -1.920   5.052  -0.389  0.00  0.00    +0.211 C 
ATOM     10  O   UNL     1      -2.708   5.953  -0.585  0.00  0.00    -0.277 OA
ATOM     11  C   UNL     1      -0.439   5.187  -0.164  0.00  0.00    +0.050 C 
ATOM     12  C   UNL     1      -0.135   6.061   1.059  0.00  0.00    +0.088 C 
ATOM     13  C   UNL     1       1.156   6.836   0.674  0.00  0.00    +0.073 C 
ATOM     14  C   UNL     1       1.507   6.341  -0.745  0.00  0.00    -0.055 C 
ATOM     15  C   UNL     1       0.692   8.273   0.602  0.00  0.00    +0.224 C 
ATOM     16  O   UNL     1       1.391   9.222   0.319  0.00  0.00    -0.275 OA
ATOM     17  N   UNL     1      -0.611   8.334   0.899  0.00  0.00    -0.237 N 
ATOM     18  C   UNL     1      -1.175   7.153   1.174  0.00  0.00    +0.225 C 
ATOM     19  O   UNL     1      -2.338   6.983   1.470  0.00  0.00    -0.275 OA
ATOM     20  H   UNL     1      -3.091   3.367  -0.444  0.00  0.00    +0.155 HD
ATOM     21  N   UNL     1       0.235   5.842  -1.272  0.00  0.00    +0.394 N 
ATOM     22  H   UNL     1      -0.334   6.621  -1.623  0.00  0.00    -0.083 HD
ATOM     23  H   UNL     1       0.404   5.172  -2.031  0.00  0.00    -0.083 HD
ENDROOT
BRANCH  14  24
ATOM     24  C   UNL     1       2.048   7.495  -1.593  0.00  0.00    -0.031 C 
ATOM     25  C   UNL     1       3.386   7.965  -1.020  0.00  0.00    +0.005 C 
ATOM     26  C   UNL     1       2.248   7.020  -3.033  0.00  0.00    +0.005 C 
ENDBRANCH  14  24
BRANCH  17  27
ATOM     27  C   UNL     1      -1.360   9.593   0.921  0.00  0.00    +0.151 C 
BRANCH  27  28
ATOM     28  C   UNL     1      -1.937   9.859  -0.445  0.00  0.00    -0.029 A 
ATOM     29  C   UNL     1      -1.210  10.582  -1.373  0.00  0.00    +0.009 A 
ATOM     30  C   UNL     1      -1.735  10.821  -2.629  0.00  0.00    +0.046 A 
ATOM     31  C   UNL     1      -2.997  10.346  -2.954  0.00  0.00    +0.120 A 
ATOM     32  C   UNL     1      -3.727   9.626  -2.019  0.00  0.00    +0.046 A 
ATOM     33  C   UNL     1      -3.195   9.384  -0.767  0.00  0.00    +0.009 A 
BRANCH  31  34
ATOM     34  O   UNL     1      -3.517  10.585  -4.186  0.00  0.00    -0.495 OA
ATOM     35  C   UNL     1      -2.710  11.333  -5.098  0.00  0.00    +0.277 C 
ENDBRANCH  31  34
ENDBRANCH  27  28
ENDBRANCH  17  27
TORSDOF 4
