REMARK  Name = ZINC66244254
REMARK  7 active torsions:
REMARK  status: ('A' for Active; 'I' for Inactive)
REMARK    1  A    between atoms: C_3  and  S_17
REMARK    2  A    between atoms: C_6  and  C_7
REMARK    3  A    between atoms: C_7  and  N_8
REMARK    4  A    between atoms: N_11  and  C_12
REMARK    5  A    between atoms: S_17  and  N_20
REMARK    6  A    between atoms: N_20  and  C_21
REMARK    7  A    between atoms: C_21  and  C_22
REMARK                            x       y       z     vdW  Elec       q    Type
REMARK                         _______ _______ _______ _____ _____    ______ ____
ROOT
ATOM      1  C   UNL     1      -0.017   1.378   0.010  0.00  0.00    +0.007 A 
ATOM      2  C   UNL     1       1.171   2.086   0.002  0.00  0.00    +0.029 A 
ATOM      3  C   UNL     1       2.377   1.411  -0.013  0.00  0.00    +0.105 A 
ATOM      4  C   UNL     1       2.396   0.029  -0.020  0.00  0.00    +0.029 A 
ATOM      5  C   UNL     1       1.208  -0.679  -0.012  0.00  0.00    +0.007 A 
ATOM      6  C   UNL     1       0.002  -0.004   0.002  0.00  0.00    -0.028 A 
ENDROOT
BRANCH   3   7
ATOM      7  S   UNL     1       3.891   2.312  -0.024  0.00  0.00    +0.058 S 
ATOM      8  O   UNL     1       4.872   1.453  -0.588  0.00  0.00    -0.153 OA
ATOM      9  O   UNL     1       3.597   3.593  -0.566  0.00  0.00    -0.153 OA
BRANCH   7  10
ATOM     10  N   UNL     1       4.327   2.556   1.555  0.00  0.00    -0.187 NA
ATOM     11  H   UNL     1       4.356   3.455   1.917  0.00  0.00    +0.148 HD
BRANCH  10  12
ATOM     12  C   UNL     1       4.670   1.412   2.405  0.00  0.00    +0.137 C 
BRANCH  12  13
ATOM     13  C   UNL     1       5.383   1.909   3.664  0.00  0.00    +0.134 C 
ATOM     14  C   UNL     1       5.855   0.705   4.508  0.00  0.00    +0.035 C 
ATOM     15  C   UNL     1       5.574   1.188   5.957  0.00  0.00    +0.031 C 
ATOM     16  C   UNL     1       4.294   2.033   5.743  0.00  0.00    +0.160 C 
ATOM     17  O   UNL     1       4.475   2.672   4.467  0.00  0.00    -0.375 OA
ENDBRANCH  12  13
ENDBRANCH  10  12
ENDBRANCH   7  10
ENDBRANCH   3   7
BRANCH   6  18
ATOM     18  C   UNL     1      -1.293  -0.775   0.011  0.00  0.00    +0.151 C 
BRANCH  18  19
ATOM     19  N   UNL     1      -1.726  -1.018  -1.368  0.00  0.00    -0.354 N 
ATOM     20  C   UNL     1      -2.890  -1.708  -1.611  0.00  0.00    +0.169 C 
ATOM     21  N   UNL     1      -3.607  -2.147  -0.616  0.00  0.00    -0.371 N 
ATOM     22  N   UNL     1      -3.296  -1.936  -2.905  0.00  0.00    -0.355 N 
ATOM     23  H   UNL     1      -1.192  -0.691  -2.108  0.00  0.00    +0.163 HD
ATOM     24  H   UNL     1      -4.428  -2.634  -0.787  0.00  0.00    +0.159 HD
ATOM     25  H   UNL     1      -2.762  -1.609  -3.645  0.00  0.00    +0.163 HD
ATOM     26  H   UNL     1      -3.321  -1.986   0.297  0.00  0.00    +0.159 HD
BRANCH  22  27
ATOM     27  C   UNL     1      -4.536  -2.671  -3.164  0.00  0.00    +0.082 C 
ATOM     28  C   UNL     1      -4.250  -4.186  -3.218  0.00  0.00    +0.024 C 
ATOM     29  C   UNL     1      -5.189  -4.711  -4.332  0.00  0.00    +0.002 C 
ATOM     30  C   UNL     1      -5.140  -3.574  -5.383  0.00  0.00    +0.002 C 
ATOM     31  C   UNL     1      -5.102  -2.282  -4.541  0.00  0.00    +0.024 C 
ENDBRANCH  22  27
ENDBRANCH  18  19
ENDBRANCH   6  18
TORSDOF 7
