REMARK  Name = ZINC45695253
REMARK  7 active torsions:
REMARK  status: ('A' for Active; 'I' for Inactive)
REMARK    1  A    between atoms: C_10  and  C_11
REMARK    2  A    between atoms: C_11  and  C_12
REMARK    3  A    between atoms: C_12  and  N_13
REMARK    4  A    between atoms: N_16  and  C_17
REMARK    5  A    between atoms: C_22  and  S_23
REMARK    6  A    between atoms: S_23  and  C_24
REMARK    7  A    between atoms: C_24  and  C_25
REMARK                            x       y       z     vdW  Elec       q    Type
REMARK                         _______ _______ _______ _____ _____    ______ ____
ROOT
ATOM      1  N   UNL     1       6.612   1.263   1.382  0.00  0.00    -0.299 N 
ATOM      2  C   UNL     1       7.144   1.701   2.541  0.00  0.00    +0.304 C 
ATOM      3  O   UNL     1       6.584   1.465   3.594  0.00  0.00    -0.253 OA
ATOM      4  N   UNL     1       8.296   2.399   2.531  0.00  0.00    -0.268 N 
ATOM      5  H   UNL     1       7.058   1.451   0.542  0.00  0.00    +0.150 HD
ATOM      6  H   UNL     1       8.777   2.532   1.699  0.00  0.00    +0.156 HD
ENDROOT
BRANCH   4   7
ATOM      7  C   UNL     1       8.801   2.935   3.725  0.00  0.00    +0.048 A 
ATOM      8  C   UNL     1       8.632   2.252   4.919  0.00  0.00    +0.024 A 
ATOM      9  C   UNL     1       9.130   2.783   6.095  0.00  0.00    +0.002 A 
ATOM     10  C   UNL     1       9.797   3.994   6.085  0.00  0.00    +0.001 A 
ATOM     11  C   UNL     1       9.971   4.682   4.898  0.00  0.00    +0.016 A 
ATOM     12  C   UNL     1       9.479   4.154   3.712  0.00  0.00    +0.030 A 
BRANCH  12  13
ATOM     13  S   UNL     1       9.705   5.025   2.197  0.00  0.00    -0.114 S 
BRANCH  13  14
ATOM     14  C   UNL     1      10.620   6.515   2.680  0.00  0.00    +0.169 C 
BRANCH  14  15
ATOM     15  C   UNL     1      10.882   7.360   1.460  0.00  0.00    +0.221 C 
ATOM     16  O   UNL     1      10.491   6.993   0.372  0.00  0.00    -0.275 OA
ATOM     17  N   UNL     1      11.552   8.524   1.577  0.00  0.00    -0.329 N 
ATOM     18  H   UNL     1      11.865   8.817   2.447  0.00  0.00    +0.145 HD
ATOM     19  H   UNL     1      11.721   9.068   0.792  0.00  0.00    +0.145 HD
ENDBRANCH  14  15
ENDBRANCH  13  14
ENDBRANCH  12  13
ENDBRANCH   4   7
BRANCH   1  20
ATOM     20  C   UNL     1       5.359   0.503   1.392  0.00  0.00    +0.110 C 
BRANCH  20  21
ATOM     21  C   UNL     1       4.978   0.130  -0.041  0.00  0.00    +0.054 C 
BRANCH  21  31
ATOM     22  C   UNL     1      -0.005   1.302  -0.005  0.00  0.00    +0.001 A 
ATOM     23  C   UNL     1       1.177   2.041  -0.014  0.00  0.00    +0.001 A 
ATOM     24  C   UNL     1       2.390   1.424  -0.023  0.00  0.00    +0.009 A 
ATOM     25  C   UNL     1       2.456   0.021  -0.023  0.00  0.00    -0.015 A 
ATOM     26  C   UNL     1       1.254  -0.732  -0.013  0.00  0.00    -0.018 A 
ATOM     27  C   UNL     1       0.020  -0.059  -0.005  0.00  0.00    +0.008 A 
ATOM     28  C   UNL     1       1.320  -2.135  -0.013  0.00  0.00    +0.008 A 
ATOM     29  C   UNL     1       2.534  -2.752  -0.021  0.00  0.00    +0.001 A 
ATOM     30  C   UNL     1       3.715  -2.013  -0.030  0.00  0.00    +0.004 A 
ATOM     31  C   UNL     1       3.689  -0.652  -0.031  0.00  0.00    -0.038 A 
ENDBRANCH  21  31
ENDBRANCH  20  21
ENDBRANCH   1  20
TORSDOF 7
