REMARK  Name = ZINC64697096
REMARK  7 active torsions:
REMARK  status: ('A' for Active; 'I' for Inactive)
REMARK    1  A    between atoms: C_4  and  N_7
REMARK    2  A    between atoms: C_12  and  N_16
REMARK    3  A    between atoms: N_19  and  C_22
REMARK    4  A    between atoms: C_22  and  C_23
REMARK    5  A    between atoms: N_25  and  C_26
REMARK    6  A    between atoms: C_26  and  C_27
REMARK    7  A    between atoms: C_27  and  C_28
REMARK                            x       y       z     vdW  Elec       q    Type
REMARK                         _______ _______ _______ _____ _____    ______ ____
ROOT
ATOM      1  N   UNL     1       5.832  -1.998  -2.349  0.00  0.00    -0.290 NA
ATOM      2  C   UNL     1       4.645  -1.237  -2.764  0.00  0.00    +0.100 C 
ATOM      3  C   UNL     1       4.423  -1.421  -4.267  0.00  0.00    +0.100 C 
ATOM      4  N   UNL     1       5.617  -0.968  -4.994  0.00  0.00    -0.292 NA
ATOM      5  C   UNL     1       6.804  -1.729  -4.580  0.00  0.00    +0.100 C 
ATOM      6  C   UNL     1       7.025  -1.544  -3.077  0.00  0.00    +0.100 C 
ENDROOT
BRANCH   1  11
ATOM      7  N   UNL     1       5.205  -4.490  -0.266  0.00  0.00    -0.160 N 
ATOM      8  C   UNL     1       6.513  -4.308  -0.532  0.00  0.00    +0.259 C 
ATOM      9  O   UNL     1       7.215  -5.253  -0.823  0.00  0.00    -0.272 OA
ATOM     10  C   UNL     1       7.099  -2.919  -0.467  0.00  0.00    +0.191 C 
ATOM     11  C   UNL     1       6.035  -1.907  -0.897  0.00  0.00    +0.126 C 
ATOM     12  C   UNL     1       4.739  -2.205  -0.191  0.00  0.00    +0.124 C 
ATOM     13  N   UNL     1       4.394  -3.403   0.073  0.00  0.00    -0.183 NA
ATOM     14 CL   UNL     1       7.623  -2.565   1.222  0.00  0.00    -0.110 Cl
BRANCH   7  18
ATOM     15  C   UNL     1       3.563  -8.315  -0.471  0.00  0.00    +0.000 A 
ATOM     16  C   UNL     1       4.361  -7.850  -1.501  0.00  0.00    +0.002 A 
ATOM     17  C   UNL     1       4.907  -6.583  -1.436  0.00  0.00    +0.025 A 
ATOM     18  C   UNL     1       4.653  -5.775  -0.335  0.00  0.00    +0.060 A 
ATOM     19  C   UNL     1       3.851  -6.245   0.697  0.00  0.00    +0.025 A 
ATOM     20  C   UNL     1       3.308  -7.513   0.626  0.00  0.00    +0.002 A 
ENDBRANCH   7  18
ENDBRANCH   1  11
BRANCH   4  21
ATOM     21  C   UNL     1       5.414  -1.058  -6.446  0.00  0.00    +0.180 C 
BRANCH  21  22
ATOM     22  C   UNL     1       6.547  -0.363  -7.156  0.00  0.00    +0.227 C 
ATOM     23  O   UNL     1       7.436   0.156  -6.515  0.00  0.00    -0.274 OA
ATOM     24  N   UNL     1       6.573  -0.319  -8.503  0.00  0.00    -0.314 N 
ATOM     25  H   UNL     1       5.862  -0.735  -9.015  0.00  0.00    +0.149 HD
BRANCH  24  26
ATOM     26  C   UNL     1       7.675   0.356  -9.193  0.00  0.00    +0.108 C 
BRANCH  26  27
ATOM     27  C   UNL     1       7.463   0.262 -10.705  0.00  0.00    +0.052 C 
BRANCH  27  28
ATOM     28  C   UNL     1       8.597   0.957 -11.415  0.00  0.00    -0.040 C 
ATOM     29  C   UNL     1       9.721   0.386 -11.906  0.00  0.00    -0.001 A 
ATOM     30  C   UNL     1      10.207  -0.999 -11.924  0.00  0.00    +0.010 A 
ATOM     31  C   UNL     1      11.400  -1.268 -12.501  0.00  0.00    +0.001 A 
ATOM     32  C   UNL     1      12.182  -0.260 -13.080  0.00  0.00    +0.002 A 
ATOM     33  C   UNL     1      11.803   1.036 -13.103  0.00  0.00    +0.026 A 
ATOM     34  C   UNL     1      10.566   1.432 -12.525  0.00  0.00    +0.043 A 
ATOM     35  N   UNL     1       9.987   2.604 -12.421  0.00  0.00    -0.380 N 
ATOM     36  C   UNL     1       8.704   2.432 -11.729  0.00  0.00    +0.144 C 
ATOM     37  H   UNL     1      10.344   3.443 -12.751  0.00  0.00    +0.160 HD
ENDBRANCH  27  28
ENDBRANCH  26  27
ENDBRANCH  24  26
ENDBRANCH  21  22
ENDBRANCH   4  21
TORSDOF 7
