REMARK  Name = ZINC39676535
REMARK  7 active torsions:
REMARK  status: ('A' for Active; 'I' for Inactive)
REMARK    1  A    between atoms: C_1  and  C_2
REMARK    2  A    between atoms: C_4  and  C_9
REMARK    3  A    between atoms: N_7  and  C_8
REMARK    4  A    between atoms: C_13  and  C_22
REMARK    5  A    between atoms: N_24  and  C_25
REMARK    6  A    between atoms: C_25  and  C_26
REMARK    7  A    between atoms: C_26  and  C_27
REMARK                            x       y       z     vdW  Elec       q    Type
REMARK                         _______ _______ _______ _____ _____    ______ ____
ROOT
ATOM      1  C   UNL     1       1.406  -2.969  -1.163  0.00  0.00    +0.238 C 
ATOM      2  O   UNL     1       2.386  -3.093  -0.460  0.00  0.00    -0.273 OA
ATOM      3  N   UNL     1       1.446  -3.362  -2.452  0.00  0.00    -0.299 N 
ATOM      4  C   UNL     1       0.362  -3.285  -3.459  0.00  0.00    +0.121 C 
ATOM      5  C   UNL     1       1.074  -2.875  -4.768  0.00  0.00    +0.100 C 
ATOM      6  C   UNL     1       2.531  -3.328  -4.580  0.00  0.00    -0.004 C 
ATOM      7  C   UNL     1       2.587  -3.963  -3.183  0.00  0.00    +0.115 C 
ATOM      8  C   UNL     1       3.470  -2.127  -4.645  0.00  0.00    -0.010 C 
ATOM      9  C   UNL     1       4.918  -2.609  -4.513  0.00  0.00    -0.082 C 
ATOM     10  N   UNL     1       5.222  -3.553  -5.596  0.00  0.00    +0.379 N 
ATOM     11  C   UNL     1       4.378  -4.747  -5.471  0.00  0.00    -0.082 C 
ATOM     12  C   UNL     1       2.907  -4.356  -5.644  0.00  0.00    -0.010 C 
ATOM     13  H   UNL     1       5.046  -3.110  -6.485  0.00  0.00    -0.086 HD
ATOM     14  H   UNL     1       6.193  -3.822  -5.543  0.00  0.00    -0.086 HD
ENDROOT
BRANCH   1  18
ATOM     15  C   UNL     1      -0.100   1.280   0.186  0.00  0.00    +0.061 C 
ATOM     16  C   UNL     1       0.009  -0.221   0.128  0.00  0.00    +0.017 C 
ATOM     17  C   UNL     1       0.018  -0.919  -0.990  0.00  0.00    +0.022 C 
ATOM     18  C   UNL     1       0.142  -2.375  -0.596  0.00  0.00    +0.183 C 
ATOM     19  N   UNL     1       0.198  -2.349   0.880  0.00  0.00    -0.225 NA
ATOM     20  N   UNL     1       0.119  -1.034   1.239  0.00  0.00    -0.274 N 
ATOM     21  C   UNL     1       0.144  -0.549   2.621  0.00  0.00    +0.149 C 
ATOM     22  H   UNL     1       1.055  -2.762   1.217  0.00  0.00    +0.146 HD
ENDBRANCH   1  18
BRANCH   5  23
ATOM     23  C   UNL     1       0.451  -3.579  -5.946  0.00  0.00    +0.218 C 
ATOM     24  O   UNL     1      -0.039  -4.680  -5.806  0.00  0.00    -0.275 OA
ATOM     25  N   UNL     1       0.438  -2.985  -7.156  0.00  0.00    -0.315 N 
ATOM     26  H   UNL     1       0.830  -2.105  -7.268  0.00  0.00    +0.149 HD
BRANCH  25  27
ATOM     27  C   UNL     1      -0.167  -3.669  -8.301  0.00  0.00    +0.109 C 
BRANCH  27  28
ATOM     28  C   UNL     1      -0.049  -2.784  -9.544  0.00  0.00    +0.056 C 
BRANCH  28  29
ATOM     29  C   UNL     1      -0.672  -3.487 -10.722  0.00  0.00    -0.021 A 
ATOM     30  C   UNL     1      -2.090  -3.482 -11.091  0.00  0.00    +0.004 A 
ATOM     31  C   UNL     1      -3.231  -2.891 -10.545  0.00  0.00    +0.030 A 
ATOM     32  C   UNL     1      -4.454  -3.085 -11.149  0.00  0.00    +0.042 A 
ATOM     33  C   UNL     1      -4.555  -3.863 -12.296  0.00  0.00    +0.022 A 
ATOM     34  C   UNL     1      -3.438  -4.452 -12.846  0.00  0.00    +0.027 A 
ATOM     35  C   UNL     1      -2.193  -4.269 -12.252  0.00  0.00    +0.047 A 
ATOM     36  N   UNL     1      -0.925  -4.714 -12.555  0.00  0.00    -0.360 N 
ATOM     37  C   UNL     1      -0.032  -4.234 -11.636  0.00  0.00    +0.087 A 
ATOM     38 CL   UNL     1      -5.876  -2.353 -10.475  0.00  0.00    -0.084 Cl
ATOM     39  H   UNL     1      -0.699  -5.280 -13.309  0.00  0.00    +0.165 HD
ENDBRANCH  28  29
ENDBRANCH  27  28
ENDBRANCH  25  27
ENDBRANCH   5  23
TORSDOF 5
