REMARK  Name = ZINC39664890
REMARK  12 active torsions:
REMARK  status: ('A' for Active; 'I' for Inactive)
REMARK    1  A    between atoms: C_1  and  N_2
REMARK    2  A    between atoms: N_2  and  C_3
REMARK    3  A    between atoms: N_2  and  C_4
REMARK    4  A    between atoms: C_4  and  C_5
REMARK    5  A    between atoms: C_5  and  C_7
REMARK    6  A    between atoms: C_5  and  N_13
REMARK    7  A    between atoms: C_14  and  C_16
REMARK    8  A    between atoms: C_27  and  C_29
REMARK    9  A    between atoms: C_29  and  C_30
REMARK   10  A    between atoms: C_30  and  C_31
REMARK   11  A    between atoms: C_34  and  O_37
REMARK   12  A    between atoms: O_37  and  C_38
REMARK                            x       y       z     vdW  Elec       q    Type
REMARK                         _______ _______ _______ _____ _____    ______ ____
ROOT
ATOM      1  C   UNL     1       0.433   0.329  -4.441  0.00  0.00    +0.100 C 
ATOM      2  C   UNL     1      -0.494   0.336  -5.677  0.00  0.00    +0.121 C 
ATOM      3  N   UNL     1      -0.430   1.727  -6.185  0.00  0.00    -0.300 N 
ATOM      4  C   UNL     1       0.991   2.114  -6.022  0.00  0.00    +0.115 C 
ATOM      5  C   UNL     1       1.409   1.495  -4.673  0.00  0.00    -0.004 C 
ATOM      6  C   UNL     1       2.842   0.977  -4.750  0.00  0.00    -0.010 C 
ATOM      7  C   UNL     1       3.799   2.160  -4.923  0.00  0.00    -0.082 C 
ATOM      8  N   UNL     1       3.650   3.081  -3.789  0.00  0.00    +0.379 N 
ATOM      9  C   UNL     1       2.296   3.646  -3.777  0.00  0.00    -0.082 C 
ATOM     10  C   UNL     1       1.275   2.526  -3.556  0.00  0.00    -0.010 C 
ATOM     11  C   UNL     1      -1.437   2.471  -6.684  0.00  0.00    +0.216 C 
ATOM     12  O   UNL     1      -1.224   3.603  -7.063  0.00  0.00    -0.276 OA
ATOM     13  H   UNL     1       3.812   2.581  -2.928  0.00  0.00    -0.086 HD
ATOM     14  H   UNL     1       4.324   3.827  -3.873  0.00  0.00    -0.086 HD
ENDROOT
BRANCH   1  16
ATOM     15  N   UNL     1      -1.281   1.546  -3.136  0.00  0.00    -0.310 N 
ATOM     16  C   UNL     1      -0.367   0.556  -3.184  0.00  0.00    +0.219 C 
ATOM     17  O   UNL     1      -0.188  -0.151  -2.215  0.00  0.00    -0.275 OA
ATOM     18  H   UNL     1      -1.479   2.062  -3.933  0.00  0.00    +0.149 HD
BRANCH  15  19
ATOM     19  C   UNL     1      -1.975   1.841  -1.881  0.00  0.00    +0.087 C 
BRANCH  19  20
ATOM     20  C   UNL     1      -1.789   3.296  -1.535  0.00  0.00    -0.029 A 
ATOM     21  C   UNL     1      -1.847   4.256  -2.528  0.00  0.00    +0.005 A 
ATOM     22  C   UNL     1      -1.677   5.590  -2.211  0.00  0.00    +0.000 A 
ATOM     23  C   UNL     1      -1.450   5.966  -0.900  0.00  0.00    +0.000 A 
ATOM     24  C   UNL     1      -1.393   5.006   0.093  0.00  0.00    +0.000 A 
ATOM     25  C   UNL     1      -1.567   3.672  -0.223  0.00  0.00    +0.005 A 
ENDBRANCH  19  20
BRANCH  19  26
ATOM     26  C   UNL     1      -3.467   1.541  -2.039  0.00  0.00    -0.052 C 
BRANCH  26  28
ATOM     27  C   UNL     1      -3.243  -0.745  -1.349  0.00  0.00    -0.097 C 
ATOM     28  N   UNL     1      -3.643   0.141  -2.449  0.00  0.00    +0.377 N 
ATOM     29  C   UNL     1      -5.054  -0.097  -2.782  0.00  0.00    -0.097 C 
ATOM     30  H   UNL     1      -3.071  -0.047  -3.258  0.00  0.00    -0.083 HD
ENDBRANCH  26  28
ENDBRANCH  19  26
ENDBRANCH  15  19
ENDBRANCH   1  16
BRANCH  11  31
ATOM     31  C   UNL     1      -2.828   1.897  -6.770  0.00  0.00    +0.100 C 
BRANCH  31  32
ATOM     32  C   UNL     1      -3.774   2.940  -7.368  0.00  0.00    +0.044 C 
BRANCH  32  33
ATOM     33  C   UNL     1      -5.165   2.365  -7.455  0.00  0.00    -0.047 A 
ATOM     34  C   UNL     1      -5.561   1.684  -8.591  0.00  0.00    +0.007 A 
ATOM     35  C   UNL     1      -6.835   1.157  -8.673  0.00  0.00    +0.046 A 
ATOM     36  C   UNL     1      -7.718   1.311  -7.613  0.00  0.00    +0.120 A 
ATOM     37  C   UNL     1      -7.318   1.994  -6.474  0.00  0.00    +0.046 A 
ATOM     38  C   UNL     1      -6.040   2.515  -6.395  0.00  0.00    +0.007 A 
BRANCH  36  39
ATOM     39  O   UNL     1      -8.972   0.794  -7.692  0.00  0.00    -0.495 OA
ATOM     40  C   UNL     1      -9.826   0.991  -6.563  0.00  0.00    +0.277 C 
ENDBRANCH  36  39
ENDBRANCH  32  33
ENDBRANCH  31  32
ENDBRANCH  11  31
TORSDOF 9
