REMARK  Name = ZINC34118352
REMARK  7 active torsions:
REMARK  status: ('A' for Active; 'I' for Inactive)
REMARK    1  A    between atoms: C_1  and  C_2
REMARK    2  A    between atoms: N_13  and  C_19
REMARK    3  A    between atoms: C_19  and  C_20
REMARK    4  A    between atoms: N_22  and  N_23
REMARK    5  A    between atoms: C_24  and  C_25
REMARK    6  A    between atoms: C_28  and  O_31
REMARK    7  A    between atoms: O_31  and  C_32
REMARK                            x       y       z     vdW  Elec       q    Type
REMARK                         _______ _______ _______ _____ _____    ______ ____
ROOT
ATOM      1  C   UNL     1       0.914   1.590   0.871  0.00  0.00    +0.044 C 
ATOM      2  C   UNL     1       0.835   0.085   0.846  0.00  0.00    -0.050 A 
ATOM      3  C   UNL     1       0.260  -0.539  -0.249  0.00  0.00    +0.005 A 
ATOM      4  C   UNL     1       0.155  -1.915  -0.341  0.00  0.00    +0.026 A 
ATOM      5  C   UNL     1       0.653  -2.665   0.721  0.00  0.00    +0.049 A 
ATOM      6  C   UNL     1       1.243  -2.018   1.849  0.00  0.00    +0.003 A 
ATOM      7  C   UNL     1       1.339  -0.624   1.907  0.00  0.00    +0.013 A 
ATOM      8  C   UNL     1       1.642  -3.068   2.747  0.00  0.00    -0.020 A 
ATOM      9  C   UNL     1       1.278  -4.228   2.165  0.00  0.00    +0.009 A 
ATOM     10  N   UNL     1       0.710  -4.008   0.941  0.00  0.00    -0.347 N 
ATOM     11  C   UNL     1       0.286  -5.131   0.090  0.00  0.00    +0.103 C 
ATOM     12  C   UNL     1       0.225  -6.388   0.968  0.00  0.00    -0.055 C 
ATOM     13  N   UNL     1       1.466  -6.566   1.733  0.00  0.00    +0.392 N 
ATOM     14  C   UNL     1       1.527  -5.568   2.820  0.00  0.00    -0.020 C 
ATOM     15  C   UNL     1       2.915  -5.543   3.441  0.00  0.00    -0.009 C 
ATOM     16  C   UNL     1       3.334  -4.251   4.096  0.00  0.00    +0.003 C 
ATOM     17  C   UNL     1       2.330  -3.108   4.082  0.00  0.00    +0.037 C 
ATOM     18  H   UNL     1       2.258  -6.445   1.120  0.00  0.00    -0.080 HD
ENDROOT
BRANCH  13  19
ATOM     19  C   UNL     1       1.496  -7.918   2.308  0.00  0.00    +0.021 C 
BRANCH  19  20
ATOM     20  C   UNL     1       1.562  -8.935   1.198  0.00  0.00    +0.216 C 
ATOM     21  O   UNL     1       1.582  -8.570   0.041  0.00  0.00    -0.276 OA
ATOM     22  N   UNL     1       1.598 -10.250   1.490  0.00  0.00    -0.209 N 
ATOM     23  H   UNL     1       1.582 -10.542   2.415  0.00  0.00    +0.177 HD
BRANCH  22  24
ATOM     24  N   UNL     1       1.660 -11.196   0.459  0.00  0.00    -0.188 NA
ATOM     25  C   UNL     1       1.576 -12.461   0.733  0.00  0.00    +0.138 C 
BRANCH  25  26
ATOM     26  C   UNL     1       0.957 -12.903   1.996  0.00  0.00    -0.005 A 
ATOM     27  C   UNL     1       1.117 -14.221   2.431  0.00  0.00    +0.013 A 
ATOM     28  C   UNL     1       0.537 -14.629   3.613  0.00  0.00    +0.046 A 
ATOM     29  C   UNL     1      -0.205 -13.732   4.371  0.00  0.00    +0.120 A 
ATOM     30  C   UNL     1      -0.366 -12.421   3.942  0.00  0.00    +0.046 A 
ATOM     31  C   UNL     1       0.215 -12.002   2.765  0.00  0.00    +0.013 A 
BRANCH  29  32
ATOM     32  O   UNL     1      -0.774 -14.139   5.535  0.00  0.00    -0.495 OA
ATOM     33  C   UNL     1      -1.523 -13.165   6.266  0.00  0.00    +0.277 C 
ENDBRANCH  29  32
ENDBRANCH  25  26
ENDBRANCH  22  24
ENDBRANCH  19  20
ENDBRANCH  13  19
TORSDOF 5
