REMARK  Name = ZINC40061935
REMARK  4 active torsions:
REMARK  status: ('A' for Active; 'I' for Inactive)
REMARK    1  A    between atoms: C_4  and  N_7
REMARK    2  A    between atoms: C_8  and  C_31
REMARK    3  A    between atoms: C_11  and  C_13
REMARK    4  A    between atoms: C_19  and  C_22
REMARK                            x       y       z     vdW  Elec       q    Type
REMARK                         _______ _______ _______ _____ _____    ______ ____
ROOT
ATOM      1  C   UNL     1       7.279  -0.542  -0.066  0.00  0.00    +0.262 C 
ATOM      2  O   UNL     1       8.124  -1.410   0.053  0.00  0.00    -0.269 OA
ATOM      3  N   UNL     1       7.651   0.751  -0.159  0.00  0.00    -0.296 N 
ATOM      4  C   UNL     1       6.645   1.822  -0.136  0.00  0.00    +0.108 C 
ATOM      5  C   UNL     1       7.020   2.826   0.958  0.00  0.00    +0.020 C 
ATOM      6  C   UNL     1       8.452   3.314   0.728  0.00  0.00    +0.013 C 
ATOM      7  C   UNL     1       9.416   2.128   0.811  0.00  0.00    +0.062 C 
ATOM      8  C   UNL     1       9.069   1.115  -0.278  0.00  0.00    +0.118 C 
ENDROOT
BRANCH   7   9
ATOM      9  C   UNL     1      10.829   2.614   0.618  0.00  0.00    +0.084 A 
ATOM     10  N   UNL     1      11.326   3.233  -0.413  0.00  0.00    -0.244 NA
ATOM     11  C   UNL     1      12.617   3.620  -0.467  0.00  0.00    +0.078 A 
ATOM     12  C   UNL     1      13.319   4.292  -1.488  0.00  0.00    +0.029 A 
ATOM     13  C   UNL     1      14.639   4.593  -1.340  0.00  0.00    +0.002 A 
ATOM     14  C   UNL     1      15.337   4.252  -0.189  0.00  0.00    +0.001 A 
ATOM     15  C   UNL     1      14.682   3.593   0.835  0.00  0.00    +0.017 A 
ATOM     16  C   UNL     1      13.351   3.286   0.694  0.00  0.00    +0.039 A 
ATOM     17  S   UNL     1      12.120   2.485   1.689  0.00  0.00    -0.072 S 
ENDBRANCH   7   9
BRANCH   1  21
ATOM     18  N   UNL     1       3.631  -0.676  -0.344  0.00  0.00    -0.212 N 
ATOM     19  C   UNL     1       3.781  -2.106  -0.031  0.00  0.00    +0.189 C 
ATOM     20  C   UNL     1       5.303  -2.284   0.134  0.00  0.00    +0.096 C 
ATOM     21  C   UNL     1       5.862  -0.900  -0.110  0.00  0.00    +0.123 C 
ATOM     22  N   UNL     1       4.892  -0.084  -0.369  0.00  0.00    -0.178 NA
BRANCH  18  26
ATOM     23  C   UNL     1       0.025   1.277  -1.060  0.00  0.00    +0.000 A 
ATOM     24  C   UNL     1       1.213   1.982  -1.113  0.00  0.00    +0.002 A 
ATOM     25  C   UNL     1       2.411   1.337  -0.876  0.00  0.00    +0.025 A 
ATOM     26  C   UNL     1       2.421  -0.021  -0.584  0.00  0.00    +0.052 A 
ATOM     27  C   UNL     1       1.225  -0.726  -0.531  0.00  0.00    +0.025 A 
ATOM     28  C   UNL     1       0.031  -0.075  -0.769  0.00  0.00    +0.002 A 
ENDBRANCH  18  26
BRANCH  19  29
ATOM     29  C   UNL     1       3.063  -2.447   1.249  0.00  0.00    +0.233 C 
ATOM     30  O   UNL     1       2.764  -1.567   2.029  0.00  0.00    -0.274 OA
ATOM     31  N   UNL     1       2.752  -3.728   1.527  0.00  0.00    -0.328 N 
ATOM     32  H   UNL     1       2.992  -4.432   0.903  0.00  0.00    +0.145 HD
ATOM     33  H   UNL     1       2.290  -3.947   2.351  0.00  0.00    +0.145 HD
ENDBRANCH  19  29
ENDBRANCH   1  21
TORSDOF 4
