REMARK  Name = ZINC33614989
REMARK  8 active torsions:
REMARK  status: ('A' for Active; 'I' for Inactive)
REMARK    1  A    between atoms: C_1  and  N_2
REMARK    2  A    between atoms: N_2  and  C_3
REMARK    3  A    between atoms: N_2  and  C_21
REMARK    4  A    between atoms: C_17  and  C_19
REMARK    5  A    between atoms: C_19  and  O_20
REMARK    6  A    between atoms: C_21  and  N_23
REMARK    7  A    between atoms: N_23  and  C_24
REMARK    8  A    between atoms: C_27  and  N_30
REMARK                            x       y       z     vdW  Elec       q    Type
REMARK                         _______ _______ _______ _____ _____    ______ ____
ROOT
ATOM      1  C   UNL     1      -1.416  -2.781  -0.011  0.00  0.00    +0.118 C 
ATOM      2  C   UNL     1      -1.495  -1.315  -0.352  0.00  0.00    +0.023 A 
ATOM      3  C   UNL     1      -0.298  -0.613  -0.593  0.00  0.00    -0.009 A 
ATOM      4  C   UNL     1       0.947  -1.263  -0.527  0.00  0.00    +0.009 A 
ATOM      5  C   UNL     1       2.087  -0.559  -0.766  0.00  0.00    +0.001 A 
ATOM      6  C   UNL     1       2.040   0.799  -1.076  0.00  0.00    +0.001 A 
ATOM      7  C   UNL     1       0.853   1.461  -1.149  0.00  0.00    +0.008 A 
ATOM      8  C   UNL     1      -0.345   0.767  -0.907  0.00  0.00    -0.017 A 
ATOM      9  C   UNL     1      -1.590   1.416  -0.966  0.00  0.00    +0.012 A 
ATOM     10  C   UNL     1      -2.726   0.711  -0.734  0.00  0.00    +0.046 A 
ATOM     11  C   UNL     1      -2.687  -0.659  -0.425  0.00  0.00    +0.126 A 
ATOM     12  O   UNL     1      -3.869  -1.295  -0.209  0.00  0.00    -0.491 OA
ATOM     13  C   UNL     1      -3.842  -2.555   0.460  0.00  0.00    +0.237 C 
ATOM     14  C   UNL     1      -2.784  -3.436  -0.218  0.00  0.00    +0.077 C 
ENDROOT
BRANCH   1  16
ATOM     15  C   UNL     1      -1.739  -2.227   2.444  0.00  0.00    +0.131 C 
ATOM     16  N   UNL     1      -1.011  -2.935   1.388  0.00  0.00    -0.308 N 
BRANCH  16  17
ATOM     17  C   UNL     1       0.032  -3.729   1.704  0.00  0.00    +0.137 C 
ATOM     18  S   UNL     1       0.956  -4.463   0.464  0.00  0.00    -0.018 S 
BRANCH  17  19
ATOM     19  N   UNL     1       0.346  -3.945   2.997  0.00  0.00    -0.297 N 
ATOM     20  H   UNL     1      -0.190  -3.406   3.791  0.00  0.00    +0.154 HD
BRANCH  19  21
ATOM     21  C   UNL     1       1.356  -4.855   3.328  0.00  0.00    +0.033 A 
ATOM     22  C   UNL     1       1.451  -6.065   2.654  0.00  0.00    +0.025 A 
ATOM     23  C   UNL     1       2.452  -6.959   2.979  0.00  0.00    +0.034 A 
ATOM     24  C   UNL     1       3.353  -6.654   3.984  0.00  0.00    +0.126 A 
ATOM     25  C   UNL     1       3.258  -5.452   4.661  0.00  0.00    +0.034 A 
ATOM     26  C   UNL     1       2.262  -4.552   4.336  0.00  0.00    +0.025 A 
BRANCH  24  27
ATOM     27  N   UNL     1       4.421  -7.617   4.334  0.00  0.00    +0.056 N 
ATOM     28  O   UNL     1       5.215  -7.350   5.218  0.00  0.00    -0.126 OA
ATOM     29  O   UNL     1       4.506  -8.676   3.739  0.00  0.00    -0.126 OA
ENDBRANCH  24  27
ENDBRANCH  19  21
ENDBRANCH  17  19
ENDBRANCH  16  17
ENDBRANCH   1  16
BRANCH  14  30
ATOM     30  C   UNL     1      -2.790  -4.830   0.413  0.00  0.00    +0.164 C 
BRANCH  30  31
ATOM     31  O   UNL     1      -4.027  -5.481   0.117  0.00  0.00    -0.395 OA
ATOM     32  H   UNL     1      -4.216  -6.499   0.489  0.00  0.00    +0.209 HD
ENDBRANCH  30  31
ENDBRANCH  14  30
TORSDOF 7
