REMARK  Name = ZINC19853567
REMARK  6 active torsions:
REMARK  status: ('A' for Active; 'I' for Inactive)
REMARK    1  A    between atoms: C_1  and  N_2
REMARK    2  A    between atoms: C_9  and  N_29
REMARK    3  A    between atoms: C_10  and  C_14
REMARK    4  A    between atoms: N_16  and  C_17
REMARK    5  A    between atoms: C_17  and  C_18
REMARK    6  A    between atoms: C_18  and  C_19
REMARK                            x       y       z     vdW  Elec       q    Type
REMARK                         _______ _______ _______ _____ _____    ______ ____
ROOT
ATOM      1  C   UNL     1       3.700  -0.497   0.272  0.00  0.00    +0.105 C 
ATOM      2  N   UNL     1       2.401   0.180   0.380  0.00  0.00    -0.301 NA
ATOM      3  C   UNL     1       1.381  -0.505  -0.430  0.00  0.00    +0.090 C 
ATOM      4  C   UNL     1       0.002  -0.004   0.002  0.00  0.00    +0.071 C 
ATOM      5  C   UNL     1      -0.018   1.504   0.010  0.00  0.00    +0.048 A 
ATOM      6  C   UNL     1       1.151   2.245   0.003  0.00  0.00    -0.011 A 
ATOM      7  C   UNL     1       1.095   3.624   0.016  0.00  0.00    +0.019 A 
ATOM      8  C   UNL     1      -0.164   4.269   0.033  0.00  0.00    +0.029 A 
ATOM      9  C   UNL     1      -0.457   5.694   0.047  0.00  0.00    +0.053 A 
ATOM     10  C   UNL     1      -1.776   6.090   0.061  0.00  0.00    +0.097 A 
ATOM     11  S   UNL     1      -2.670   4.548   0.057  0.00  0.00    -0.062 S 
ATOM     12  C   UNL     1      -1.296   3.423   0.037  0.00  0.00    +0.111 A 
ATOM     13  N   UNL     1      -1.193   2.114   0.030  0.00  0.00    -0.244 NA
ATOM     14  C   UNL     1       2.506   1.586  -0.021  0.00  0.00    +0.121 C 
ENDROOT
BRANCH  10  15
ATOM     15  C   UNL     1      -2.299   7.407   0.076  0.00  0.00    +0.253 C 
ATOM     16  O   UNL     1      -1.542   8.362   0.078  0.00  0.00    -0.270 OA
ATOM     17  N   UNL     1      -3.632   7.604   0.089  0.00  0.00    -0.311 N 
ATOM     18  H   UNL     1      -4.315   6.742   0.088  0.00  0.00    +0.149 HD
BRANCH  17  19
ATOM     19  C   UNL     1      -4.171   8.966   0.105  0.00  0.00    +0.109 C 
BRANCH  19  20
ATOM     20  C   UNL     1      -5.700   8.909   0.117  0.00  0.00    +0.056 C 
BRANCH  20  21
ATOM     21  C   UNL     1      -6.255  10.309   0.133  0.00  0.00    -0.021 A 
ATOM     22  C   UNL     1      -6.633  11.006   1.217  0.00  0.00    +0.087 A 
ATOM     23  N   UNL     1      -7.084  12.243   0.842  0.00  0.00    -0.360 N 
ATOM     24  H   UNL     1      -7.430  12.956   1.605  0.00  0.00    +0.165 HD
ATOM     25  C   UNL     1      -7.013  12.372  -0.527  0.00  0.00    +0.047 A 
ATOM     26  C   UNL     1      -6.491  11.167  -1.031  0.00  0.00    +0.003 A 
ATOM     27  C   UNL     1      -6.305  11.009  -2.405  0.00  0.00    +0.010 A 
ATOM     28  C   UNL     1      -6.632  12.028  -3.255  0.00  0.00    +0.001 A 
ATOM     29  C   UNL     1      -7.147  13.219  -2.763  0.00  0.00    +0.002 A 
ATOM     30  C   UNL     1      -7.339  13.396  -1.410  0.00  0.00    +0.026 A 
ENDBRANCH  20  21
ENDBRANCH  19  20
ENDBRANCH  17  19
ENDBRANCH  10  15
BRANCH   9  31
ATOM     31  N   UNL     1       0.566   6.631   0.046  0.00  0.00    -0.356 N 
ATOM     32  H   UNL     1       0.329   7.705   0.057  0.00  0.00    +0.142 HD
ATOM     33  H   UNL     1       1.615   6.300   0.035  0.00  0.00    +0.142 HD
ENDBRANCH   9  31
TORSDOF 5
