REMARK  Name = ZINC04730177
REMARK  10 active torsions:
REMARK  status: ('A' for Active; 'I' for Inactive)
REMARK    1  A    between atoms: C_1  and  C_2
REMARK    2  A    between atoms: C_2  and  O_3
REMARK    3  A    between atoms: O_3  and  C_4
REMARK    4  A    between atoms: C_8  and  C_11
REMARK    5  A    between atoms: C_9  and  O_10
REMARK    6  A    between atoms: C_14  and  C_25
REMARK    7  A    between atoms: C_16  and  C_18
REMARK    8  A    between atoms: C_23  and  C_24
REMARK    9  A    between atoms: C_29  and  O_31
REMARK   10  A    between atoms: O_31  and  C_32
REMARK                            x       y       z     vdW  Elec       q    Type
REMARK                         _______ _______ _______ _____ _____    ______ ____
ROOT
ATOM      1  C   UNL     1       3.176   2.331   2.236  0.00  0.00    -0.028 C 
ATOM      2  C   UNL     1       3.494   3.596   3.039  0.00  0.00    +0.044 C 
ATOM      3  C   UNL     1       2.934   4.796   2.327  0.00  0.00    +0.040 C 
ATOM      4  N   UNL     1       2.559   4.771   1.104  0.00  0.00    -0.299 NA
ATOM      5  C   UNL     1       2.617   3.588   0.255  0.00  0.00    +0.081 C 
ATOM      6  N   UNL     1       3.525   2.581   0.824  0.00  0.00    +0.401 N 
ATOM      7  H   UNL     1       3.440   1.706   0.292  0.00  0.00    -0.081 HD
ATOM      8  H   UNL     1       4.492   2.923   0.767  0.00  0.00    -0.081 HD
ENDROOT
BRANCH   5   9
ATOM      9  C   UNL     1       1.236   2.999   0.130  0.00  0.00    -0.038 A 
ATOM     10  C   UNL     1       0.293   3.232   1.114  0.00  0.00    +0.004 A 
ATOM     11  C   UNL     1      -0.974   2.692   1.000  0.00  0.00    +0.000 A 
ATOM     12  C   UNL     1      -1.297   1.913  -0.096  0.00  0.00    +0.000 A 
ATOM     13  C   UNL     1      -0.356   1.684  -1.082  0.00  0.00    +0.003 A 
ATOM     14  C   UNL     1       0.911   2.224  -0.968  0.00  0.00    -0.047 A 
ATOM     15  C   UNL     1       1.939   1.970  -2.041  0.00  0.00    +0.044 C 
ENDBRANCH   5   9
BRANCH   1  20
ATOM     16  C   UNL     1       4.288  -0.623   4.326  0.00  0.00    +0.162 A 
ATOM     17  C   UNL     1       5.494  -0.943   3.723  0.00  0.00    +0.049 A 
ATOM     18  C   UNL     1       5.945  -0.205   2.645  0.00  0.00    +0.004 A 
ATOM     19  C   UNL     1       5.195   0.853   2.165  0.00  0.00    +0.006 A 
ATOM     20  C   UNL     1       3.991   1.177   2.762  0.00  0.00    -0.016 A 
ATOM     21  C   UNL     1       3.536   0.445   3.847  0.00  0.00    +0.160 A 
BRANCH  21  22
ATOM     22  O   UNL     1       2.354   0.767   4.438  0.00  0.00    -0.503 OA
ATOM     23  H   UNL     1       1.589   0.311   4.061  0.00  0.00    +0.292 HD
ENDBRANCH  21  22
BRANCH  16  24
ATOM     24  O   UNL     1       3.842  -1.348   5.387  0.00  0.00    -0.489 OA
BRANCH  24  26
ATOM     25  C   UNL     1       4.009  -3.120   7.022  0.00  0.00    +0.048 C 
ATOM     26  C   UNL     1       4.669  -2.427   5.828  0.00  0.00    +0.226 C 
ENDBRANCH  24  26
ENDBRANCH  16  24
ENDBRANCH   1  20
BRANCH   3  27
ATOM     27  C   UNL     1       2.810   6.063   3.075  0.00  0.00    -0.001 A 
ATOM     28  C   UNL     1       3.203   6.128   4.413  0.00  0.00    +0.010 A 
ATOM     29  C   UNL     1       3.091   7.316   5.107  0.00  0.00    +0.004 A 
ATOM     30  C   UNL     1       2.580   8.440   4.484  0.00  0.00    +0.045 A 
ATOM     31  C   UNL     1       2.183   8.384   3.156  0.00  0.00    +0.121 A 
ATOM     32  C   UNL     1       2.295   7.199   2.448  0.00  0.00    +0.055 A 
BRANCH  31  33
ATOM     33  O   UNL     1       1.682   9.492   2.549  0.00  0.00    -0.495 OA
ATOM     34  C   UNL     1       1.594  10.680   3.338  0.00  0.00    +0.277 C 
ENDBRANCH  31  33
ENDBRANCH   3  27
TORSDOF 7
