REMARK  Name = ZINC59489956
REMARK  12 active torsions:
REMARK  status: ('A' for Active; 'I' for Inactive)
REMARK    1  A    between atoms: C_1  and  C_2
REMARK    2  A    between atoms: C_2  and  N_3
REMARK    3  A    between atoms: N_3  and  C_4
REMARK    4  A    between atoms: C_4  and  C_5
REMARK    5  A    between atoms: C_6  and  C_8
REMARK    6  A    between atoms: N_13  and  C_15
REMARK    7  A    between atoms: C_18  and  N_36
REMARK    8  A    between atoms: C_20  and  C_21
REMARK    9  A    between atoms: N_22  and  N_23
REMARK   10  A    between atoms: C_27  and  S_28
REMARK   11  A    between atoms: S_28  and  C_29
REMARK   12  A    between atoms: C_29  and  C_30
REMARK                            x       y       z     vdW  Elec       q    Type
REMARK                         _______ _______ _______ _____ _____    ______ ____
ROOT
ATOM      1  C   UNL     1       0.406  -0.911  -4.843  0.00  0.00    +0.039 A 
ATOM      2  C   UNL     1      -0.798  -0.708  -5.503  0.00  0.00    +0.026 A 
ATOM      3  C   UNL     1      -0.930   0.335  -6.398  0.00  0.00    +0.034 A 
ATOM      4  C   UNL     1       0.134   1.187  -6.644  0.00  0.00    +0.127 A 
ATOM      5  C   UNL     1       1.338   1.002  -5.998  0.00  0.00    +0.044 A 
ATOM      6  C   UNL     1       1.485  -0.047  -5.086  0.00  0.00    +0.018 A 
ENDROOT
BRANCH   1  11
ATOM      7  C   UNL     1      -0.035  -4.333  -3.933  0.00  0.00    +0.092 C 
ATOM      8  C   UNL     1      -0.225  -4.220  -2.418  0.00  0.00    +0.016 C 
ATOM      9  C   UNL     1      -0.768  -2.831  -2.073  0.00  0.00    +0.020 C 
ATOM     10  C   UNL     1       0.243  -1.768  -2.515  0.00  0.00    +0.105 C 
ATOM     11  N   UNL     1       0.541  -1.962  -3.941  0.00  0.00    -0.329 N 
ATOM     12  C   UNL     1       0.983  -3.287  -4.396  0.00  0.00    +0.118 C 
BRANCH   7  14
ATOM     13  N   UNL     1       0.109  -6.292  -5.437  0.00  0.00    -0.302 N 
ATOM     14  C   UNL     1       0.468  -5.712  -4.274  0.00  0.00    +0.220 C 
ATOM     15  O   UNL     1       1.197  -6.300  -3.503  0.00  0.00    -0.275 OA
BRANCH  13  17
ATOM     16  C   UNL     1       1.806  -7.685  -6.514  0.00  0.00    +0.024 C 
ATOM     17  C   UNL     1       0.500  -7.676  -5.717  0.00  0.00    +0.104 C 
ENDBRANCH  13  17
BRANCH  13  18
ATOM     18  C   UNL     1      -0.673  -5.538  -6.420  0.00  0.00    +0.104 C 
ATOM     19  C   UNL     1      -2.165  -5.765  -6.167  0.00  0.00    +0.024 C 
ENDBRANCH  13  18
ENDBRANCH   7  14
ENDBRANCH   1  11
BRANCH   4  20
ATOM     20  N   UNL     1      -0.021   2.301  -7.606  0.00  0.00    +0.056 N 
ATOM     21  O   UNL     1      -1.075   2.466  -8.175  0.00  0.00    -0.126 OA
ATOM     22  O   UNL     1       0.906   3.046  -7.823  0.00  0.00    -0.126 OA
ENDBRANCH   4  20
BRANCH   6  23
ATOM     23  C   UNL     1       2.766  -0.247  -4.388  0.00  0.00    +0.143 C 
ATOM     24  N   UNL     1       2.915  -1.253  -3.581  0.00  0.00    -0.171 NA
BRANCH  24  25
ATOM     25  N   UNL     1       4.106  -1.402  -2.859  0.00  0.00    -0.194 N 
ATOM     26  C   UNL     1       5.160  -0.529  -2.813  0.00  0.00    +0.249 A 
ATOM     27  N   UNL     1       6.061  -1.049  -2.026  0.00  0.00    -0.135 NA
ATOM     28  N   UNL     1       5.654  -2.181  -1.575  0.00  0.00    -0.121 NA
ATOM     29  C   UNL     1       4.457  -2.447  -2.048  0.00  0.00    +0.212 A 
BRANCH  29  30
ATOM     30  S   UNL     1       3.490  -3.879  -1.706  0.00  0.00    -0.080 S 
BRANCH  30  31
ATOM     31  C   UNL     1       4.458  -4.777  -0.463  0.00  0.00    +0.112 C 
BRANCH  31  32
ATOM     32  C   UNL     1       3.795  -6.097  -0.166  0.00  0.00    -0.037 A 
ATOM     33  C   UNL     1       2.919  -6.207   0.898  0.00  0.00    +0.004 A 
ATOM     34  C   UNL     1       2.310  -7.418   1.170  0.00  0.00    +0.000 A 
ATOM     35  C   UNL     1       2.577  -8.519   0.378  0.00  0.00    +0.000 A 
ATOM     36  C   UNL     1       3.452  -8.409  -0.686  0.00  0.00    +0.000 A 
ATOM     37  C   UNL     1       4.057  -7.197  -0.961  0.00  0.00    +0.004 A 
ENDBRANCH  31  32
ENDBRANCH  30  31
ENDBRANCH  29  30
ENDBRANCH  24  25
ENDBRANCH   6  23
TORSDOF 10
