REMARK  Name = ZINC33431936
REMARK  9 active torsions:
REMARK  status: ('A' for Active; 'I' for Inactive)
REMARK    1  A    between atoms: C_1  and  O_2
REMARK    2  A    between atoms: O_2  and  C_3
REMARK    3  A    between atoms: C_3  and  C_5
REMARK    4  A    between atoms: C_11  and  C_26
REMARK    5  A    between atoms: C_12  and  C_19
REMARK    6  A    between atoms: C_14  and  C_17
REMARK    7  A    between atoms: C_15  and  N_16
REMARK    8  A    between atoms: N_28  and  C_29
REMARK    9  A    between atoms: C_29  and  C_30
REMARK                            x       y       z     vdW  Elec       q    Type
REMARK                         _______ _______ _______ _____ _____    ______ ____
ROOT
ATOM      1  C   UNL     1       3.279   6.609  -0.269  0.00  0.00    +0.112 C 
ATOM      2  C   UNL     1       2.274   5.697  -0.193  0.00  0.00    +0.086 A 
ATOM      3  C   UNL     1       2.346   4.219  -0.132  0.00  0.00    +0.272 A 
ATOM      4  O   UNL     1       3.417   3.644  -0.147  0.00  0.00    -0.266 OA
ATOM      5  N   UNL     1       1.190   3.530  -0.059  0.00  0.00    -0.257 N 
ATOM      6  C   UNL     1       0.011   4.249  -0.045  0.00  0.00    +0.099 A 
ATOM      7  C   UNL     1      -1.223   3.693   0.024  0.00  0.00    +0.058 C 
ATOM      8  C   UNL     1      -1.330   2.183   0.087  0.00  0.00    +0.102 C 
ATOM      9  C   UNL     1      -0.016   1.429   0.075  0.00  0.00    +0.079 C 
ATOM     10  C   UNL     1       1.136   2.132   0.003  0.00  0.00    +0.118 C 
ATOM     11  S   UNL     1       0.509   5.958  -0.138  0.00  0.00    -0.065 S 
ENDROOT
BRANCH   8  12
ATOM     12  C   UNL     1      -2.152   1.715  -1.087  0.00  0.00    -0.016 A 
ATOM     13  C   UNL     1      -1.671   1.873  -2.374  0.00  0.00    +0.006 A 
ATOM     14  C   UNL     1      -2.423   1.440  -3.450  0.00  0.00    +0.000 A 
ATOM     15  C   UNL     1      -3.659   0.858  -3.241  0.00  0.00    +0.001 A 
ATOM     16  C   UNL     1      -4.143   0.705  -1.956  0.00  0.00    +0.020 A 
ATOM     17  C   UNL     1      -3.389   1.133  -0.877  0.00  0.00    +0.045 A 
ATOM     18 CL   UNL     1      -3.995   0.940   0.738  0.00  0.00    -0.083 Cl
ENDBRANCH   8  12
BRANCH   7  19
ATOM     19  C   UNL     1      -2.378   4.499   0.033  0.00  0.00    +0.244 C 
ATOM     20  O   UNL     1      -2.275   5.712  -0.022  0.00  0.00    -0.270 OA
ATOM     21  N   UNL     1      -3.597   3.929   0.102  0.00  0.00    -0.307 N 
ATOM     22  H   UNL     1      -3.690   2.834   0.152  0.00  0.00    +0.149 HD
BRANCH  21  23
ATOM     23  C   UNL     1      -4.798   4.768   0.111  0.00  0.00    +0.139 C 
BRANCH  23  24
ATOM     24  C   UNL     1      -6.022   3.892   0.194  0.00  0.00    -0.030 A 
ATOM     25  C   UNL     1      -6.631   3.444  -0.963  0.00  0.00    +0.005 A 
ATOM     26  C   UNL     1      -7.750   2.637  -0.888  0.00  0.00    +0.000 A 
ATOM     27  C   UNL     1      -8.267   2.285   0.346  0.00  0.00    +0.000 A 
ATOM     28  C   UNL     1      -7.661   2.737   1.503  0.00  0.00    +0.000 A 
ATOM     29  C   UNL     1      -6.539   3.541   1.427  0.00  0.00    +0.005 A 
ENDBRANCH  23  24
ENDBRANCH  21  23
ENDBRANCH   7  19
BRANCH  10  30
ATOM     30  N   UNL     1       2.320   1.436  -0.012  0.00  0.00    -0.343 N 
ATOM     31  H   UNL     1       2.313   0.337   0.035  0.00  0.00    +0.144 HD
ATOM     32  H   UNL     1       3.276   1.978  -0.071  0.00  0.00    +0.144 HD
ENDBRANCH  10  30
BRANCH   1  33
ATOM     33  C   UNL     1       2.968   8.037  -0.319  0.00  0.00    +0.333 C 
ATOM     34  O   UNL     1       1.811   8.410  -0.291  0.00  0.00    -0.246 OA
BRANCH  33  36
ATOM     35  C   UNL     1       3.591  10.320  -0.440  0.00  0.00    +0.280 C 
ATOM     36  O   UNL     1       3.966   8.942  -0.395  0.00  0.00    -0.465 OA
ENDBRANCH  33  36
ENDBRANCH   1  33
BRANCH   9  37
ATOM     37  C   UNL     1       0.005  -0.002   0.135  0.00  0.00    +0.099 C 
ATOM     38  N   UNL     1       0.022  -1.137   0.182  0.00  0.00    -0.191 NA
ENDBRANCH   9  37
TORSDOF 8
