REMARK  Name = ZINC38664909
REMARK  9 active torsions:
REMARK  status: ('A' for Active; 'I' for Inactive)
REMARK    1  A    between atoms: C_1  and  C_2
REMARK    2  A    between atoms: C_2  and  C_4
REMARK    3  A    between atoms: C_2  and  N_32
REMARK    4  A    between atoms: C_4  and  O_5
REMARK    5  A    between atoms: O_5  and  C_6
REMARK    6  A    between atoms: C_9  and  C_12
REMARK    7  A    between atoms: C_14  and  C_25
REMARK    8  A    between atoms: C_19  and  O_24
REMARK    9  A    between atoms: C_28  and  O_31
REMARK                            x       y       z     vdW  Elec       q    Type
REMARK                         _______ _______ _______ _____ _____    ______ ____
ROOT
ATOM      1  C   UNL     1       5.738  -1.458   5.873  0.00  0.00    +0.221 C 
ATOM      2  C   UNL     1       5.193  -0.320   6.752  0.00  0.00    +0.126 C 
ATOM      3  S   UNL     1       5.718  -0.670   8.460  0.00  0.00    -0.109 S 
ATOM      4  C   UNL     1       7.399  -1.173   8.251  0.00  0.00    +0.054 A 
ATOM      5  C   UNL     1       8.221  -1.255   9.367  0.00  0.00    +0.063 A 
ATOM      6  C   UNL     1       9.541  -1.655   9.230  0.00  0.00    +0.118 A 
ATOM      7  C   UNL     1      10.034  -1.976   7.974  0.00  0.00    +0.049 A 
ATOM      8  C   UNL     1       9.218  -1.892   6.865  0.00  0.00    +0.050 A 
ATOM      9  C   UNL     1       7.891  -1.485   6.989  0.00  0.00    +0.135 A 
ATOM     10  O   UNL     1       7.156  -1.395   5.856  0.00  0.00    -0.482 OA
ENDROOT
BRANCH   1  14
ATOM     11  C   UNL     1       4.241  -1.032   1.893  0.00  0.00    +0.120 A 
ATOM     12  C   UNL     1       3.591  -1.862   2.794  0.00  0.00    +0.046 A 
ATOM     13  C   UNL     1       4.078  -1.999   4.080  0.00  0.00    +0.011 A 
ATOM     14  C   UNL     1       5.210  -1.308   4.469  0.00  0.00    -0.006 A 
ATOM     15  C   UNL     1       5.859  -0.479   3.573  0.00  0.00    +0.011 A 
ATOM     16  C   UNL     1       5.380  -0.344   2.284  0.00  0.00    +0.046 A 
BRANCH  11  17
ATOM     17  O   UNL     1       3.765  -0.896   0.627  0.00  0.00    -0.494 OA
BRANCH  17  18
ATOM     18  C   UNL     1       2.587  -1.634   0.295  0.00  0.00    +0.213 C 
BRANCH  18  20
ATOM     19  C   UNL     1       2.060   0.152  -1.371  0.00  0.00    -0.010 C 
ATOM     20  C   UNL     1       2.205  -1.356  -1.161  0.00  0.00    -0.034 C 
BRANCH  20  21
ATOM     21  N   UNL     1       3.254  -1.875  -2.050  0.00  0.00    +0.384 N 
ATOM     22  C   UNL     1       3.349  -3.352  -1.922  0.00  0.00    -0.078 C 
ATOM     23  C   UNL     1       4.027  -3.780  -3.247  0.00  0.00    -0.020 C 
ATOM     24  C   UNL     1       3.401  -2.817  -4.282  0.00  0.00    -0.020 C 
ATOM     25  C   UNL     1       2.900  -1.615  -3.462  0.00  0.00    -0.078 C 
ATOM     26  H   UNL     1       4.141  -1.448  -1.829  0.00  0.00    -0.081 HD
ENDBRANCH  20  21
ENDBRANCH  18  20
ENDBRANCH  17  18
ENDBRANCH  11  17
ENDBRANCH   1  14
BRANCH   2  27
ATOM     27  C   UNL     1       5.763   0.999   6.297  0.00  0.00    -0.030 A 
ATOM     28  C   UNL     1       4.976   1.877   5.575  0.00  0.00    +0.008 A 
ATOM     29  C   UNL     1       5.496   3.087   5.156  0.00  0.00    +0.046 A 
ATOM     30  C   UNL     1       6.808   3.420   5.461  0.00  0.00    +0.117 A 
ATOM     31  C   UNL     1       7.595   2.537   6.186  0.00  0.00    +0.046 A 
ATOM     32  C   UNL     1       7.069   1.330   6.607  0.00  0.00    +0.008 A 
BRANCH  30  33
ATOM     33  O   UNL     1       7.322   4.609   5.050  0.00  0.00    -0.507 OA
ATOM     34  H   UNL     1       7.200   5.330   5.683  0.00  0.00    +0.292 HD
ENDBRANCH  30  33
ENDBRANCH   2  27
BRANCH   6  35
ATOM     35  O   UNL     1      10.348  -1.733  10.322  0.00  0.00    -0.507 OA
ATOM     36  H   UNL     1      10.338  -2.597  10.757  0.00  0.00    +0.292 HD
ENDBRANCH   6  35
TORSDOF 8
