REMARK  Name = ZINC10048529
REMARK  10 active torsions:
REMARK  status: ('A' for Active; 'I' for Inactive)
REMARK    1  A    between atoms: C_1  and  C_2
REMARK    2  A    between atoms: N_9  and  C_10
REMARK    3  A    between atoms: N_17  and  C_36
REMARK    4  A    between atoms: N_20  and  C_23
REMARK    5  A    between atoms: C_23  and  C_24
REMARK    6  A    between atoms: C_24  and  C_26
REMARK    7  A    between atoms: C_24  and  C_27
REMARK    8  A    between atoms: C_27  and  N_28
REMARK    9  A    between atoms: N_28  and  C_29
REMARK   10  A    between atoms: C_34  and  N_35
REMARK                            x       y       z     vdW  Elec       q    Type
REMARK                         _______ _______ _______ _____ _____    ______ ____
ROOT
ATOM      1  C   UNL     1       0.200  -2.459   2.306  0.00  0.00    +0.065 C 
ATOM      2  C   UNL     1       0.793  -2.908   0.995  0.00  0.00    +0.040 A 
ATOM      3  C   UNL     1       0.979  -4.168   0.614  0.00  0.00    +0.116 A 
ATOM      4  N   UNL     1       1.551  -4.163  -0.646  0.00  0.00    -0.277 N 
ATOM      5  C   UNL     1       2.030  -4.958  -1.677  0.00  0.00    +0.157 A 
ATOM      6  C   UNL     1       2.470  -4.087  -2.672  0.00  0.00    +0.170 A 
ATOM      7  N   UNL     1       2.256  -2.846  -2.240  0.00  0.00    -0.193 NA
ATOM      8  C   UNL     1       1.709  -2.876  -1.034  0.00  0.00    +0.223 A 
ATOM      9  N   UNL     1       1.237  -2.080  -0.021  0.00  0.00    -0.283 N 
ATOM     10  N   UNL     1       3.006  -4.618  -3.835  0.00  0.00    -0.279 N 
ATOM     11  C   UNL     1       3.094  -5.953  -3.987  0.00  0.00    +0.333 A 
ATOM     12  O   UNL     1       3.566  -6.403  -5.014  0.00  0.00    -0.246 OA
ATOM     13  N   UNL     1       2.672  -6.801  -3.034  0.00  0.00    -0.259 N 
ATOM     14  C   UNL     1       2.143  -6.343  -1.880  0.00  0.00    +0.283 A 
ATOM     15  O   UNL     1       1.765  -7.124  -1.024  0.00  0.00    -0.265 OA
ATOM     16  C   UNL     1       3.477  -3.727  -4.898  0.00  0.00    +0.155 C 
ENDROOT
BRANCH   9  17
ATOM     17  C   UNL     1       1.215  -0.680  -0.013  0.00  0.00    +0.051 A 
ATOM     18  C   UNL     1       2.405   0.035  -0.021  0.00  0.00    +0.026 A 
ATOM     19  C   UNL     1       2.381   1.416  -0.013  0.00  0.00    +0.003 A 
ATOM     20  C   UNL     1       1.172   2.087   0.002  0.00  0.00    +0.020 A 
ATOM     21  C   UNL     1      -0.017   1.378   0.010  0.00  0.00    +0.043 A 
ATOM     22  C   UNL     1       0.002  -0.004   0.002  0.00  0.00    +0.046 A 
ATOM     23 CL   UNL     1      -1.532   2.225   0.021  0.00  0.00    -0.083 Cl
ENDBRANCH   9  17
BRANCH  13  24
ATOM     24  C   UNL     1       2.790  -8.245  -3.250  0.00  0.00    +0.134 C 
BRANCH  24  25
ATOM     25  C   UNL     1       4.144  -8.730  -2.728  0.00  0.00    +0.023 C 
ATOM     26  C   UNL     1       4.204  -8.541  -1.211  0.00  0.00    +0.011 C 
BRANCH  25  27
ATOM     27  C   UNL     1       4.320 -10.212  -3.065  0.00  0.00    +0.106 C 
BRANCH  27  28
ATOM     28  N   UNL     1       5.663 -10.646  -2.673  0.00  0.00    -0.342 N 
ATOM     29  H   UNL     1       6.277 -10.015  -2.267  0.00  0.00    +0.146 HD
BRANCH  28  30
ATOM     30  C   UNL     1       6.059 -11.972  -2.884  0.00  0.00    +0.048 A 
ATOM     31  C   UNL     1       5.180 -12.878  -3.458  0.00  0.00    +0.025 A 
ATOM     32  C   UNL     1       5.575 -14.186  -3.669  0.00  0.00    +0.002 A 
ATOM     33  C   UNL     1       6.842 -14.598  -3.300  0.00  0.00    +0.002 A 
ATOM     34  C   UNL     1       7.723 -13.703  -2.722  0.00  0.00    +0.024 A 
ATOM     35  C   UNL     1       7.337 -12.388  -2.511  0.00  0.00    +0.046 A 
BRANCH  35  36
ATOM     36  N   UNL     1       8.228 -11.480  -1.925  0.00  0.00    -0.357 N 
ATOM     37  H   UNL     1       7.956 -10.561  -1.778  0.00  0.00    +0.142 HD
ATOM     38  H   UNL     1       9.116 -11.771  -1.667  0.00  0.00    +0.142 HD
ENDBRANCH  35  36
ENDBRANCH  28  30
ENDBRANCH  27  28
ENDBRANCH  25  27
ENDBRANCH  24  25
ENDBRANCH  13  24
TORSDOF 7
