REMARK  Name = ZINC39945642
REMARK  12 active torsions:
REMARK  status: ('A' for Active; 'I' for Inactive)
REMARK    1  A    between atoms: C_1  and  O_2
REMARK    2  A    between atoms: O_2  and  C_3
REMARK    3  A    between atoms: C_8  and  N_9
REMARK    4  A    between atoms: N_9  and  C_10
REMARK    5  A    between atoms: N_9  and  S_13
REMARK    6  A    between atoms: C_10  and  C_11
REMARK    7  A    between atoms: S_13  and  C_16
REMARK    8  A    between atoms: C_20  and  C_22
REMARK    9  A    between atoms: C_22  and  O_24
REMARK   10  A    between atoms: O_24  and  C_25
REMARK   11  A    between atoms: C_25  and  C_26
REMARK   12  A    between atoms: C_26  and  C_28
REMARK                            x       y       z     vdW  Elec       q    Type
REMARK                         _______ _______ _______ _____ _____    ______ ____
ROOT
ATOM      1  C   UNL     1       0.054  -4.651   2.001  0.00  0.00    +0.110 A 
ATOM      2  C   UNL     1      -1.048  -4.652   2.838  0.00  0.00    +0.029 A 
ATOM      3  C   UNL     1      -1.566  -5.845   3.310  0.00  0.00    +0.003 A 
ATOM      4  C   UNL     1      -0.986  -7.043   2.948  0.00  0.00    +0.015 A 
ATOM      5  C   UNL     1       0.126  -7.050   2.103  0.00  0.00    +0.061 A 
ATOM      6  C   UNL     1       0.639  -5.842   1.626  0.00  0.00    +0.043 A 
ENDROOT
BRANCH   1   7
ATOM      7  S   UNL     1       0.705  -3.125   1.406  0.00  0.00    +0.075 S 
ATOM      8  O   UNL     1       2.065  -3.367   1.074  0.00  0.00    -0.150 OA
ATOM      9  O   UNL     1       0.314  -2.126   2.338  0.00  0.00    -0.150 OA
BRANCH   7  10
ATOM     10  N   UNL     1      -0.075  -2.780  -0.013  0.00  0.00    -0.196 N 
BRANCH  10  16
ATOM     11  C   UNL     1      -1.201  -0.638   0.010  0.00  0.00    +0.143 A 
ATOM     12  C   UNL     1      -2.374   0.099   0.019  0.00  0.00    +0.047 A 
ATOM     13  C   UNL     1      -3.597  -0.547   0.028  0.00  0.00    +0.004 A 
ATOM     14  C   UNL     1      -3.653  -1.928   0.027  0.00  0.00    +0.002 A 
ATOM     15  C   UNL     1      -2.487  -2.671   0.017  0.00  0.00    +0.028 A 
ATOM     16  C   UNL     1      -1.257  -2.030   0.003  0.00  0.00    +0.093 A 
BRANCH  11  18
ATOM     17  C   UNL     1      -0.017   1.425   0.010  0.00  0.00    +0.277 C 
ATOM     18  O   UNL     1       0.002  -0.004   0.002  0.00  0.00    -0.493 OA
ENDBRANCH  11  18
ENDBRANCH  10  16
BRANCH  10  19
ATOM     19  C   UNL     1       0.471  -3.259  -1.285  0.00  0.00    +0.158 C 
BRANCH  19  20
ATOM     20  C   UNL     1       1.319  -2.178  -1.906  0.00  0.00    -0.014 C 
ATOM     21  C   UNL     1       2.562  -2.429  -2.235  0.00  0.00    +0.005 C 
ENDBRANCH  19  20
ENDBRANCH  10  19
ENDBRANCH   7  10
ENDBRANCH   1   7
BRANCH   5  22
ATOM     22  C   UNL     1       0.752  -8.329   1.711  0.00  0.00    +0.340 C 
ATOM     23  O   UNL     1       1.719  -8.331   0.976  0.00  0.00    -0.245 OA
BRANCH  22  24
ATOM     24  O   UNL     1       0.251  -9.492   2.168  0.00  0.00    -0.453 OA
BRANCH  24  25
ATOM     25  C   UNL     1       0.906 -10.691   1.749  0.00  0.00    +0.311 C 
BRANCH  25  26
ATOM     26  C   UNL     1       0.211 -11.882   2.356  0.00  0.00    +0.199 C 
ATOM     27  O   UNL     1      -0.752 -11.721   3.077  0.00  0.00    -0.289 OA
BRANCH  26  28
ATOM     28  C   UNL     1       0.679 -13.186   2.085  0.00  0.00    +0.026 C 
ATOM     29  C   UNL     1       0.155 -14.377   2.554  0.00  0.00    +0.006 A 
ATOM     30  C   UNL     1      -0.939 -14.681   3.398  0.00  0.00    +0.010 A 
ATOM     31  C   UNL     1      -1.231 -15.966   3.699  0.00  0.00    +0.001 A 
ATOM     32  C   UNL     1      -0.482 -17.045   3.203  0.00  0.00    +0.002 A 
ATOM     33  C   UNL     1       0.582 -16.864   2.390  0.00  0.00    +0.026 A 
ATOM     34  C   UNL     1       0.968 -15.494   2.012  0.00  0.00    +0.043 A 
ATOM     35  N   UNL     1       1.928 -15.037   1.260  0.00  0.00    -0.380 N 
ATOM     36  C   UNL     1       1.855 -13.573   1.216  0.00  0.00    +0.152 C 
ATOM     37  H   UNL     1       2.586 -15.580   0.799  0.00  0.00    +0.160 HD
ENDBRANCH  26  28
ENDBRANCH  25  26
ENDBRANCH  24  25
ENDBRANCH  22  24
ENDBRANCH   5  22
TORSDOF 11
