REMARK  Name = ZINC39634842
REMARK  11 active torsions:
REMARK  status: ('A' for Active; 'I' for Inactive)
REMARK    1  A    between atoms: C_1  and  C_2
REMARK    2  A    between atoms: C_2  and  C_3
REMARK    3  A    between atoms: C_2  and  N_4
REMARK    4  A    between atoms: N_4  and  C_5
REMARK    5  A    between atoms: N_4  and  C_34
REMARK    6  A    between atoms: C_5  and  C_6
REMARK    7  A    between atoms: C_6  and  N_7
REMARK    8  A    between atoms: C_8  and  C_10
REMARK    9  A    between atoms: C_21  and  C_23
REMARK   10  A    between atoms: C_34  and  C_35
REMARK   11  A    between atoms: C_34  and  C_36
REMARK                            x       y       z     vdW  Elec       q    Type
REMARK                         _______ _______ _______ _____ _____    ______ ____
ROOT
ATOM      1  C   UNL     1      -3.918   3.588  -3.781  0.00  0.00    +0.100 C 
ATOM      2  C   UNL     1      -5.395   3.136  -3.743  0.00  0.00    +0.121 C 
ATOM      3  N   UNL     1      -6.136   4.321  -3.249  0.00  0.00    -0.297 N 
ATOM      4  C   UNL     1      -5.478   5.471  -3.914  0.00  0.00    +0.115 C 
ATOM      5  C   UNL     1      -3.976   5.120  -3.898  0.00  0.00    -0.004 C 
ATOM      6  C   UNL     1      -3.298   5.768  -2.694  0.00  0.00    -0.010 C 
ATOM      7  C   UNL     1      -3.319   7.290  -2.861  0.00  0.00    -0.082 C 
ATOM      8  N   UNL     1      -2.621   7.659  -4.098  0.00  0.00    +0.379 N 
ATOM      9  C   UNL     1      -3.333   7.108  -5.258  0.00  0.00    -0.082 C 
ATOM     10  C   UNL     1      -3.313   5.579  -5.193  0.00  0.00    -0.010 C 
ATOM     11  C   UNL     1      -7.174   4.347  -2.390  0.00  0.00    +0.260 C 
ATOM     12  O   UNL     1      -7.678   5.406  -2.081  0.00  0.00    -0.271 OA
ATOM     13  H   UNL     1      -2.583   8.664  -4.175  0.00  0.00    -0.086 HD
ATOM     14  H   UNL     1      -1.682   7.290  -4.076  0.00  0.00    -0.086 HD
ENDROOT
BRANCH  11  15
ATOM     15  C   UNL     1      -7.707   3.061  -1.814  0.00  0.00    +0.296 C 
ATOM     16  C   UNL     1      -8.319   2.207  -2.933  0.00  0.00    +0.283 C 
ATOM     17  O   UNL     1      -8.828   1.002  -2.350  0.00  0.00    -0.484 OA
ATOM     18  C   UNL     1      -9.568   1.137  -1.215  0.00  0.00    +0.162 A 
ATOM     19  C   UNL     1     -10.380   0.091  -0.804  0.00  0.00    +0.049 A 
ATOM     20  C   UNL     1     -11.135   0.211   0.347  0.00  0.00    +0.004 A 
ATOM     21  C   UNL     1     -11.082   1.374   1.093  0.00  0.00    +0.004 A 
ATOM     22  C   UNL     1     -10.275   2.421   0.688  0.00  0.00    +0.049 A 
ATOM     23  C   UNL     1      -9.517   2.307  -0.467  0.00  0.00    +0.163 A 
ATOM     24  O   UNL     1      -8.733   3.349  -0.857  0.00  0.00    -0.473 OA
ENDBRANCH  11  15
BRANCH   1  26
ATOM     25  N   UNL     1      -1.868   3.089  -2.490  0.00  0.00    -0.317 N 
ATOM     26  C   UNL     1      -3.212   3.185  -2.513  0.00  0.00    +0.218 C 
ATOM     27  O   UNL     1      -3.854   2.947  -1.511  0.00  0.00    -0.275 OA
ATOM     28  H   UNL     1      -1.355   3.279  -3.291  0.00  0.00    +0.149 HD
BRANCH  25  29
ATOM     29  C   UNL     1      -1.182   2.696  -1.257  0.00  0.00    +0.085 C 
BRANCH  29  30
ATOM     30  C   UNL     1       0.328   2.664  -1.501  0.00  0.00    -0.059 C 
BRANCH  30  31
ATOM     31  N   UNL     1       1.005   2.127  -0.313  0.00  0.00    +0.384 N 
ATOM     32  H   UNL     1       0.597   1.238  -0.066  0.00  0.00    -0.081 HD
BRANCH  31  34
ATOM     33  C   UNL     1       0.714   4.490   0.263  0.00  0.00    -0.014 C 
ATOM     34  C   UNL     1       0.847   3.066   0.806  0.00  0.00    -0.074 C 
ATOM     35  C   UNL     1      -0.409   2.704   1.602  0.00  0.00    -0.014 C 
ENDBRANCH  31  34
BRANCH  31  36
ATOM     36  C   UNL     1       2.434   1.947  -0.603  0.00  0.00    -0.074 C 
ATOM     37  C   UNL     1       3.115   1.274   0.590  0.00  0.00    -0.014 C 
ATOM     38  C   UNL     1       2.595   1.069  -1.845  0.00  0.00    -0.014 C 
ENDBRANCH  31  36
ENDBRANCH  30  31
ENDBRANCH  29  30
ENDBRANCH  25  29
ENDBRANCH   1  26
TORSDOF 7
