REMARK  Name = ZINC14580182
REMARK  8 active torsions:
REMARK  status: ('A' for Active; 'I' for Inactive)
REMARK    1  A    between atoms: C_1  and  C_2
REMARK    2  A    between atoms: C_2  and  C_3
REMARK    3  A    between atoms: C_3  and  N_4
REMARK    4  A    between atoms: N_4  and  C_5
REMARK    5  A    between atoms: C_6  and  N_21
REMARK    6  A    between atoms: N_7  and  C_14
REMARK    7  A    between atoms: C_14  and  C_15
REMARK    8  A    between atoms: C_22  and  C_24
REMARK                            x       y       z     vdW  Elec       q    Type
REMARK                         _______ _______ _______ _____ _____    ______ ____
ROOT
ATOM      1  C   UNL     1      -1.931  -3.189  -0.235  0.00  0.00    +0.140 A 
ATOM      2  C   UNL     1      -2.974  -3.221   0.668  0.00  0.00    +0.128 A 
ATOM      3  N   UNL     1      -3.942  -4.191   0.543  0.00  0.00    -0.276 N 
ATOM      4  C   UNL     1      -3.868  -5.103  -0.443  0.00  0.00    +0.331 A 
ATOM      5  O   UNL     1      -4.730  -5.955  -0.534  0.00  0.00    -0.246 OA
ATOM      6  N   UNL     1      -2.856  -5.090  -1.330  0.00  0.00    -0.273 N 
ATOM      7  H   UNL     1      -2.825  -5.780  -2.053  0.00  0.00    +0.173 HD
ATOM      8  C   UNL     1      -1.885  -4.160  -1.254  0.00  0.00    +0.277 A 
ATOM      9  O   UNL     1      -0.973  -4.157  -2.063  0.00  0.00    -0.266 OA
ENDROOT
BRANCH   1  10
ATOM     10  N   UNL     1      -0.925  -2.205  -0.135  0.00  0.00    -0.260 N 
ATOM     11  C   UNL     1      -1.250  -0.899  -0.215  0.00  0.00    +0.258 C 
ATOM     12  O   UNL     1      -2.419  -0.566  -0.289  0.00  0.00    -0.269 OA
BRANCH  11  13
ATOM     13  C   UNL     1      -0.196   0.119  -0.212  0.00  0.00    +0.075 A 
ATOM     14  C   UNL     1      -0.302   1.485  -0.407  0.00  0.00    +0.024 A 
ATOM     15  C   UNL     1       0.862   2.243  -0.361  0.00  0.00    -0.036 A 
ATOM     16  C   UNL     1       2.010   1.577  -0.104  0.00  0.00    -0.006 A 
ATOM     17  S   UNL     1       1.561  -0.077   0.041  0.00  0.00    -0.088 S 
ATOM     18  C   UNL     1       3.388   2.178   0.055  0.00  0.00    +0.043 C 
ATOM     19  C   UNL     1       3.817   2.704  -1.325  0.00  0.00    +0.005 C 
ATOM     20  C   UNL     1       3.155   4.032  -1.609  0.00  0.00    +0.001 C 
ATOM     21  C   UNL     1       1.676   3.995  -1.899  0.00  0.00    +0.005 C 
ATOM     22  C   UNL     1       0.850   3.752  -0.635  0.00  0.00    +0.036 C 
ENDBRANCH  11  13
BRANCH  10  23
ATOM     23  C   UNL     1       0.472  -2.602   0.054  0.00  0.00    +0.114 C 
BRANCH  23  25
ATOM     24  C   UNL     1       2.280  -2.959   1.741  0.00  0.00    +0.005 C 
ATOM     25  C   UNL     1       0.821  -2.544   1.543  0.00  0.00    +0.016 C 
ENDBRANCH  23  25
ENDBRANCH  10  23
ENDBRANCH   1  10
BRANCH   2  26
ATOM     26  N   UNL     1      -3.047  -2.293   1.679  0.00  0.00    -0.343 N 
ATOM     27  H   UNL     1      -2.390  -1.581   1.732  0.00  0.00    +0.144 HD
ATOM     28  H   UNL     1      -3.755  -2.349   2.339  0.00  0.00    +0.144 HD
ENDBRANCH   2  26
BRANCH   3  29
ATOM     29  C   UNL     1      -5.057  -4.234   1.492  0.00  0.00    +0.163 C 
BRANCH  29  30
ATOM     30  C   UNL     1      -4.685  -5.103   2.665  0.00  0.00    -0.028 A 
ATOM     31  C   UNL     1      -4.965  -6.456   2.639  0.00  0.00    +0.005 A 
ATOM     32  C   UNL     1      -4.619  -7.255   3.713  0.00  0.00    +0.000 A 
ATOM     33  C   UNL     1      -4.003  -6.698   4.818  0.00  0.00    +0.000 A 
ATOM     34  C   UNL     1      -3.728  -5.343   4.846  0.00  0.00    +0.000 A 
ATOM     35  C   UNL     1      -4.069  -4.546   3.770  0.00  0.00    +0.005 A 
ENDBRANCH  29  30
ENDBRANCH   3  29
TORSDOF 7
