REMARK  Name = ZINC28893442
REMARK  10 active torsions:
REMARK  status: ('A' for Active; 'I' for Inactive)
REMARK    1  A    between atoms: C_1  and  C_2
REMARK    2  A    between atoms: C_2  and  C_4
REMARK    3  A    between atoms: C_2  and  N_14
REMARK    4  A    between atoms: N_9  and  C_10
REMARK    5  A    between atoms: C_10  and  C_11
REMARK    6  A    between atoms: C_10  and  C_12
REMARK    7  A    between atoms: C_10  and  C_13
REMARK    8  A    between atoms: N_14  and  C_15
REMARK    9  A    between atoms: C_15  and  C_16
REMARK   10  A    between atoms: C_16  and  N_22
REMARK                            x       y       z     vdW  Elec       q    Type
REMARK                         _______ _______ _______ _____ _____    ______ ____
ROOT
ATOM      1  N   UNL     1      -3.726   1.665  -0.214  0.00  0.00    +0.388 N 
ATOM      2  H   UNL     1      -3.405   2.645   0.170  0.00  0.00    -0.085 HD
ATOM      3  H   UNL     1      -4.103   1.780  -1.242  0.00  0.00    -0.085 HD
ENDROOT
BRANCH   1   5
ATOM      4  C   UNL     1      -2.809  -0.350  -1.262  0.00  0.00    -0.004 C 
ATOM      5  C   UNL     1      -2.585   0.740  -0.211  0.00  0.00    +0.013 C 
BRANCH   5   6
ATOM      6  C   UNL     1      -1.323   1.498  -0.535  0.00  0.00    +0.206 C 
ATOM      7  O   UNL     1      -1.370   2.691  -0.748  0.00  0.00    -0.277 OA
ATOM      8  N   UNL     1      -0.143   0.850  -0.589  0.00  0.00    -0.242 N 
ATOM      9  C   UNL     1       0.985   1.527  -0.884  0.00  0.00    +0.306 C 
ATOM     10  O   UNL     1       0.938   2.723  -1.097  0.00  0.00    -0.252 OA
ATOM     11  N   UNL     1       2.164   0.878  -0.943  0.00  0.00    -0.294 N 
ATOM     12  H   UNL     1      -0.100  -0.231  -0.392  0.00  0.00    +0.159 HD
ATOM     13  H   UNL     1       2.207  -0.204  -0.751  0.00  0.00    +0.151 HD
BRANCH  11  14
ATOM     14  C   UNL     1       3.390   1.614  -1.264  0.00  0.00    +0.028 C 
ATOM     15  C   UNL     1       3.620   2.704  -0.216  0.00  0.00    +0.031 C 
ATOM     16  C   UNL     1       4.578   0.649  -1.267  0.00  0.00    +0.031 C 
ATOM     17  C   UNL     1       3.252   2.256  -2.646  0.00  0.00    +0.031 C 
ENDBRANCH  11  14
ENDBRANCH   5   6
ENDBRANCH   1   5
BRANCH   1  18
ATOM     18  C   UNL     1      -4.815   1.161   0.633  0.00  0.00    -0.059 C 
BRANCH  18  19
ATOM     19  C   UNL     1      -5.923   2.212   0.719  0.00  0.00    +0.007 C 
ATOM     20  C   UNL     1      -7.093   1.654   1.533  0.00  0.00    +0.020 C 
ATOM     21  C   UNL     1      -7.635   0.397   0.851  0.00  0.00    +0.002 C 
ATOM     22  C   UNL     1      -8.116   0.748  -0.558  0.00  0.00    +0.000 C 
ATOM     23  C   UNL     1      -6.946   1.305  -1.372  0.00  0.00    +0.002 C 
ATOM     24  C   UNL     1      -6.404   2.563  -0.690  0.00  0.00    +0.020 C 
BRANCH  19  25
ATOM     25  N   UNL     1      -5.403   3.420   1.374  0.00  0.00    -0.294 NA
ATOM     26  C   UNL     1      -4.434   4.111   0.511  0.00  0.00    +0.113 C 
ATOM     27  C   UNL     1      -3.964   5.392   1.205  0.00  0.00    +0.175 C 
ATOM     28  O   UNL     1      -3.411   5.061   2.482  0.00  0.00    -0.377 OA
ATOM     29  C   UNL     1      -4.327   4.386   3.348  0.00  0.00    +0.175 C 
ATOM     30  C   UNL     1      -4.801   3.095   2.676  0.00  0.00    +0.113 C 
ENDBRANCH  19  25
ENDBRANCH  18  19
ENDBRANCH   1  18
TORSDOF 6
