REMARK  Name = ZINC16701250
REMARK  8 active torsions:
REMARK  status: ('A' for Active; 'I' for Inactive)
REMARK    1  A    between atoms: C_1  and  C_2
REMARK    2  A    between atoms: C_2  and  N_3
REMARK    3  A    between atoms: C_17  and  C_32
REMARK    4  A    between atoms: C_18  and  C_26
REMARK    5  A    between atoms: C_19  and  C_21
REMARK    6  A    between atoms: C_26  and  O_28
REMARK    7  A    between atoms: O_28  and  C_29
REMARK    8  A    between atoms: C_29  and  C_30
REMARK                            x       y       z     vdW  Elec       q    Type
REMARK                         _______ _______ _______ _____ _____    ______ ____
ROOT
ATOM      1  N   UNL     1       5.592   2.523   6.468  0.00  0.00    -0.267 N 
ATOM      2  C   UNL     1       4.516   1.660   6.640  0.00  0.00    +0.044 A 
ATOM      3  C   UNL     1       3.783   1.311   7.769  0.00  0.00    +0.024 A 
ATOM      4  C   UNL     1       2.740   0.412   7.668  0.00  0.00    +0.002 A 
ATOM      5  C   UNL     1       2.412  -0.155   6.447  0.00  0.00    +0.001 A 
ATOM      6  C   UNL     1       3.128   0.177   5.315  0.00  0.00    +0.010 A 
ATOM      7  C   UNL     1       4.181   1.084   5.406  0.00  0.00    +0.010 A 
ATOM      8  C   UNL     1       5.125   1.641   4.415  0.00  0.00    +0.065 C 
ATOM      9  C   UNL     1       5.182   1.367   3.062  0.00  0.00    +0.093 A 
ATOM     10  C   UNL     1       4.242   0.596   2.217  0.00  0.00    +0.269 A 
ATOM     11  O   UNL     1       3.243   0.089   2.688  0.00  0.00    -0.266 OA
ATOM     12  N   UNL     1       4.532   0.475   0.914  0.00  0.00    -0.274 N 
ATOM     13  C   UNL     1       5.676   1.068   0.434  0.00  0.00    +0.178 A 
ATOM     14  N   UNL     1       6.057   1.016  -0.815  0.00  0.00    -0.228 NA
ATOM     15  C   UNL     1       5.398   0.390  -1.784  0.00  0.00    +0.053 C 
ATOM     16  C   UNL     1       4.231  -0.266  -1.518  0.00  0.00    +0.085 C 
ATOM     17  C   UNL     1       3.718  -0.257  -0.097  0.00  0.00    +0.168 C 
ATOM     18  C   UNL     1       5.944   0.404  -3.189  0.00  0.00    +0.066 C 
ATOM     19  S   UNL     1       6.410   1.846   1.860  0.00  0.00    -0.045 S 
ATOM     20  C   UNL     1       5.998   2.550   5.186  0.00  0.00    +0.253 C 
ATOM     21  O   UNL     1       6.919   3.208   4.741  0.00  0.00    -0.270 OA
ENDROOT
BRANCH  17  22
ATOM     22  C   UNL     1       2.337   0.348  -0.106  0.00  0.00    +0.017 A 
ATOM     23  C   UNL     1       1.133  -0.273  -0.141  0.00  0.00    +0.013 A 
ATOM     24  C   UNL     1      -0.017   0.494  -0.143  0.00  0.00    +0.008 A 
ATOM     25  C   UNL     1       0.093   1.844  -0.109  0.00  0.00    +0.045 A 
ATOM     26  S   UNL     1       1.864   2.070  -0.074  0.00  0.00    -0.099 S 
ENDBRANCH  17  22
BRANCH   1  28
ATOM     27  C   UNL     1       7.338   2.482   8.180  0.00  0.00    +0.025 C 
ATOM     28  C   UNL     1       6.210   3.299   7.546  0.00  0.00    +0.110 C 
ENDBRANCH   1  28
BRANCH  16  29
ATOM     29  C   UNL     1       3.526  -0.932  -2.538  0.00  0.00    +0.340 C 
ATOM     30  O   UNL     1       3.900  -0.844  -3.694  0.00  0.00    -0.245 OA
BRANCH  29  31
ATOM     31  O   UNL     1       2.436  -1.669  -2.235  0.00  0.00    -0.457 OA
BRANCH  31  32
ATOM     32  C   UNL     1       1.770  -2.318  -3.320  0.00  0.00    +0.259 C 
BRANCH  32  33
ATOM     33  C   UNL     1       0.586  -3.088  -2.794  0.00  0.00    +0.006 C 
ATOM     34  C   UNL     1      -0.568  -3.018  -3.411  0.00  0.00    +0.007 C 
ENDBRANCH  32  33
ENDBRANCH  31  32
ENDBRANCH  29  31
ENDBRANCH  16  29
TORSDOF 6
