REMARK  Name = ZINC66906258
REMARK  6 active torsions:
REMARK  status: ('A' for Active; 'I' for Inactive)
REMARK    1  A    between atoms: C_10  and  C_11
REMARK    2  A    between atoms: C_10  and  O_30
REMARK    3  A    between atoms: C_11  and  N_12
REMARK    4  A    between atoms: N_12  and  C_13
REMARK    5  A    between atoms: C_13  and  C_14
REMARK    6  A    between atoms: C_19  and  C_20
REMARK                            x       y       z     vdW  Elec       q    Type
REMARK                         _______ _______ _______ _____ _____    ______ ____
ROOT
ATOM      1  C   UNL     1       5.527   2.241  -1.595  0.00  0.00    +0.120 C 
ENDROOT
BRANCH   1   2
ATOM      2  C   UNL     1       5.568   3.692  -1.186  0.00  0.00    +0.011 A 
ATOM      3  C   UNL     1       4.805   4.683  -1.695  0.00  0.00    +0.110 A 
ATOM      4  N   UNL     1       5.142   5.831  -1.069  0.00  0.00    -0.284 N 
ATOM      5  H   UNL     1       4.753   6.705  -1.234  0.00  0.00    +0.188 HD
ATOM      6  N   UNL     1       6.149   5.542  -0.139  0.00  0.00    -0.174 NA
ATOM      7  C   UNL     1       6.405   4.253  -0.202  0.00  0.00    +0.097 A 
BRANCH   7   8
ATOM      8  C   UNL     1       7.404   3.520   0.616  0.00  0.00    +0.006 A 
ATOM      9  C   UNL     1       7.150   2.210   1.019  0.00  0.00    +0.014 A 
ATOM     10  C   UNL     1       8.078   1.531   1.781  0.00  0.00    +0.050 A 
ATOM     11  C   UNL     1       9.267   2.148   2.148  0.00  0.00    +0.162 A 
ATOM     12  C   UNL     1       9.526   3.454   1.746  0.00  0.00    +0.163 A 
ATOM     13  C   UNL     1       8.598   4.138   0.978  0.00  0.00    +0.059 A 
ATOM     14  O   UNL     1      10.689   4.071   2.091  0.00  0.00    -0.485 OA
ATOM     15  C   UNL     1      11.433   3.488   3.166  0.00  0.00    +0.270 C 
ATOM     16  C   UNL     1      11.504   1.972   2.934  0.00  0.00    +0.270 C 
ATOM     17  O   UNL     1      10.167   1.461   2.903  0.00  0.00    -0.485 OA
ENDBRANCH   7   8
ENDBRANCH   1   2
BRANCH   1  18
ATOM     18  N   UNL     1       4.733   1.481  -0.621  0.00  0.00    -0.309 NA
ATOM     19  H   UNL     1       3.807   1.871  -0.525  0.00  0.00    +0.122 HD
BRANCH  18  20
ATOM     20  C   UNL     1       4.671   0.060  -0.987  0.00  0.00    +0.120 C 
BRANCH  20  30
ATOM     21  C   UNL     1       3.887  -4.847  -0.976  0.00  0.00    +0.000 A 
ATOM     22  C   UNL     1       3.794  -3.885  -1.963  0.00  0.00    +0.000 A 
ATOM     23  C   UNL     1       3.768  -2.549  -1.618  0.00  0.00    +0.007 A 
ATOM     24  C   UNL     1       3.837  -2.163  -0.285  0.00  0.00    -0.012 A 
ATOM     25  C   UNL     1       3.934  -3.122   0.698  0.00  0.00    -0.041 A 
ATOM     26  C   UNL     1       3.956  -4.466   0.348  0.00  0.00    +0.004 A 
ATOM     27  C   UNL     1       4.029  -2.776   2.161  0.00  0.00    +0.035 C 
ATOM     28  C   UNL     1       3.565  -1.341   2.405  0.00  0.00    +0.008 C 
ATOM     29  C   UNL     1       4.312  -0.420   1.433  0.00  0.00    +0.041 C 
ATOM     30  C   UNL     1       3.796  -0.689   0.021  0.00  0.00    +0.104 C 
BRANCH  30  31
ATOM     31  O   UNL     1       2.450  -0.222  -0.086  0.00  0.00    -0.383 OA
ATOM     32  H   UNL     1       2.060  -0.345  -0.963  0.00  0.00    +0.211 HD
ENDBRANCH  30  31
ENDBRANCH  20  30
ENDBRANCH  18  20
ENDBRANCH   1  18
TORSDOF 6
