REMARK  Name = ZINC17189304
REMARK  13 active torsions:
REMARK  status: ('A' for Active; 'I' for Inactive)
REMARK    1  A    between atoms: C_1  and  C_2
REMARK    2  A    between atoms: C_2  and  C_3
REMARK    3  A    between atoms: C_3  and  C_5
REMARK    4  A    between atoms: C_3  and  C_6
REMARK    5  A    between atoms: C_6  and  C_7
REMARK    6  A    between atoms: C_8  and  C_30
REMARK    7  A    between atoms: C_15  and  S_17
REMARK    8  A    between atoms: S_17  and  C_18
REMARK    9  A    between atoms: C_18  and  C_19
REMARK   10  A    between atoms: N_21  and  C_22
REMARK   11  A    between atoms: C_24  and  C_27
REMARK   12  A    between atoms: C_27  and  C_28
REMARK   13  A    between atoms: C_27  and  C_29
REMARK                            x       y       z     vdW  Elec       q    Type
REMARK                         _______ _______ _______ _____ _____    ______ ____
ROOT
ATOM      1  C   UNL     1      -2.824  -2.571   0.265  0.00  0.00    -0.023 A 
ATOM      2  C   UNL     1      -3.385  -2.707   1.476  0.00  0.00    -0.007 A 
ATOM      3  S   UNL     1      -5.014  -3.329   1.105  0.00  0.00    -0.075 S 
ATOM      4  C   UNL     1      -4.888  -3.386  -0.662  0.00  0.00    +0.092 A 
ATOM      5  C   UNL     1      -3.595  -2.918  -0.916  0.00  0.00    +0.075 A 
ATOM      6  C   UNL     1      -3.214  -2.853  -2.346  0.00  0.00    +0.282 A 
ATOM      7  O   UNL     1      -2.104  -2.462  -2.671  0.00  0.00    -0.265 OA
ATOM      8  N   UNL     1      -4.097  -3.228  -3.277  0.00  0.00    -0.185 NA
ATOM      9  C   UNL     1      -5.304  -3.656  -2.972  0.00  0.00    +0.171 A 
ATOM     10  N   UNL     1      -5.719  -3.751  -1.677  0.00  0.00    -0.328 N 
ATOM     11  C   UNL     1      -2.784  -2.407   2.825  0.00  0.00    +0.052 C 
ATOM     12  H   UNL     1      -6.613  -4.069  -1.479  0.00  0.00    +0.168 HD
ENDROOT
BRANCH   1  13
ATOM     13  C   UNL     1      -1.413  -2.059   0.130  0.00  0.00    +0.040 C 
BRANCH  13  14
ATOM     14  C   UNL     1      -1.433  -0.534   0.013  0.00  0.00    -0.010 C 
ATOM     15  C   UNL     1      -2.135  -0.131  -1.286  0.00  0.00    +0.008 C 
BRANCH  14  17
ATOM     16  C   UNL     1      -0.019   1.526   0.010  0.00  0.00    +0.004 C 
ATOM     17  C   UNL     1       0.002  -0.004   0.002  0.00  0.00    +0.000 C 
ENDBRANCH  14  17
ENDBRANCH  13  14
ENDBRANCH   1  13
BRANCH   9  18
ATOM     18  S   UNL     1      -6.402  -4.128  -4.266  0.00  0.00    -0.078 S 
BRANCH  18  19
ATOM     19  C   UNL     1      -5.441  -3.854  -5.780  0.00  0.00    +0.173 C 
BRANCH  19  20
ATOM     20  C   UNL     1      -6.276  -4.225  -6.979  0.00  0.00    +0.230 C 
ATOM     21  O   UNL     1      -7.407  -4.633  -6.827  0.00  0.00    -0.274 OA
ATOM     22  N   UNL     1      -5.764  -4.102  -8.220  0.00  0.00    -0.254 N 
ATOM     23  H   UNL     1      -4.859  -3.776  -8.341  0.00  0.00    +0.158 HD
BRANCH  22  24
ATOM     24  C   UNL     1      -6.532  -4.443  -9.323  0.00  0.00    +0.224 A 
ATOM     25  C   UNL     1      -6.142  -4.374 -10.622  0.00  0.00    +0.092 A 
ATOM     26  C   UNL     1      -7.210  -4.807 -11.420  0.00  0.00    +0.088 A 
ATOM     27  N   UNL     1      -8.203  -5.124 -10.636  0.00  0.00    -0.081 NA
ATOM     28  O   UNL     1      -7.793  -4.906  -9.298  0.00  0.00    -0.339 OA
BRANCH  26  29
ATOM     29  C   UNL     1      -7.211  -4.891 -12.925  0.00  0.00    +0.035 C 
ATOM     30  C   UNL     1      -7.584  -3.528 -13.511  0.00  0.00    +0.014 C 
ATOM     31  C   UNL     1      -5.819  -5.293 -13.414  0.00  0.00    +0.014 C 
ENDBRANCH  26  29
ENDBRANCH  22  24
ENDBRANCH  19  20
ENDBRANCH  18  19
ENDBRANCH   9  18
TORSDOF 8
