REMARK  Name = ZINC06728486
REMARK  9 active torsions:
REMARK  status: ('A' for Active; 'I' for Inactive)
REMARK    1  A    between atoms: C_1  and  C_2
REMARK    2  A    between atoms: C_4  and  C_32
REMARK    3  A    between atoms: C_5  and  C_17
REMARK    4  A    between atoms: C_7  and  C_8
REMARK    5  A    between atoms: C_8  and  O_9
REMARK    6  A    between atoms: O_9  and  C_10
REMARK    7  A    between atoms: C_20  and  C_31
REMARK    8  A    between atoms: C_26  and  N_30
REMARK    9  A    between atoms: C_27  and  C_28
REMARK                            x       y       z     vdW  Elec       q    Type
REMARK                         _______ _______ _______ _____ _____    ______ ____
ROOT
ATOM      1  C   UNL     1      -0.472   1.456   0.159  0.00  0.00    +0.044 C 
ATOM      2  C   UNL     1      -0.215  -0.027   0.073  0.00  0.00    -0.044 A 
ATOM      3  C   UNL     1      -0.077  -0.634  -1.161  0.00  0.00    +0.007 A 
ATOM      4  C   UNL     1       0.159  -1.993  -1.240  0.00  0.00    -0.046 A 
ATOM      5  C   UNL     1       0.257  -2.746  -0.085  0.00  0.00    -0.031 A 
ATOM      6  C   UNL     1       0.120  -2.139   1.149  0.00  0.00    +0.012 A 
ATOM      7  C   UNL     1      -0.112  -0.778   1.228  0.00  0.00    -0.007 A 
ATOM      8  C   UNL     1       0.309  -2.655  -2.586  0.00  0.00    +0.044 C 
ENDROOT
BRANCH   5   9
ATOM      9  C   UNL     1       0.513  -4.229  -0.171  0.00  0.00    +0.102 C 
ATOM     10  C   UNL     1      -0.580  -4.976   0.548  0.00  0.00    +0.049 A 
ATOM     11  C   UNL     1      -1.902  -5.173   0.175  0.00  0.00    +0.068 A 
ATOM     12  N   UNL     1      -2.488  -5.884   1.110  0.00  0.00    -0.176 NA
ATOM     13  N   UNL     1      -1.545  -6.162   2.112  0.00  0.00    -0.246 N 
ATOM     14  H   UNL     1      -1.705  -6.671   2.922  0.00  0.00    +0.192 HD
ATOM     15  C   UNL     1      -0.381  -5.598   1.750  0.00  0.00    +0.222 A 
ATOM     16  O   UNL     1       0.816  -5.593   2.388  0.00  0.00    -0.423 OA
ATOM     17  C   UNL     1       1.895  -5.193   1.686  0.00  0.00    +0.200 C 
ATOM     18  C   UNL     1       1.827  -4.558   0.494  0.00  0.00    +0.098 C 
ATOM     19  C   UNL     1      -2.553  -4.660  -1.083  0.00  0.00    +0.068 C 
BRANCH  17  20
ATOM     20  N   UNL     1       3.138  -5.444   2.213  0.00  0.00    -0.328 N 
ATOM     21  H   UNL     1       3.220  -5.897   3.067  0.00  0.00    +0.145 HD
ATOM     22  H   UNL     1       3.934  -5.168   1.732  0.00  0.00    +0.145 HD
ENDBRANCH  17  20
BRANCH  18  23
ATOM     23  C   UNL     1       3.044  -4.184  -0.161  0.00  0.00    +0.101 C 
ATOM     24  N   UNL     1       4.010  -3.888  -0.680  0.00  0.00    -0.191 NA
ENDBRANCH  18  23
ENDBRANCH   5   9
BRANCH   7  25
ATOM     25  C   UNL     1      -0.257  -0.116   2.574  0.00  0.00    +0.264 C 
BRANCH  25  26
ATOM     26  O   UNL     1      -0.112  -1.094   3.605  0.00  0.00    -0.486 OA
BRANCH  26  27
ATOM     27  C   UNL     1      -0.216  -0.659   4.889  0.00  0.00    +0.139 A 
ATOM     28  C   UNL     1      -0.458   0.682   5.150  0.00  0.00    +0.047 A 
ATOM     29  C   UNL     1      -0.564   1.122   6.455  0.00  0.00    +0.004 A 
ATOM     30  C   UNL     1      -0.428   0.228   7.501  0.00  0.00    +0.002 A 
ATOM     31  C   UNL     1      -0.186  -1.109   7.245  0.00  0.00    +0.023 A 
ATOM     32  C   UNL     1      -0.085  -1.556   5.940  0.00  0.00    +0.083 A 
ATOM     33 CL   UNL     1       0.212  -3.235   5.618  0.00  0.00    -0.080 Cl
ENDBRANCH  26  27
ENDBRANCH  25  26
ENDBRANCH   7  25
TORSDOF 6
