REMARK  Name = ZINC35734632
REMARK  7 active torsions:
REMARK  status: ('A' for Active; 'I' for Inactive)
REMARK    1  A    between atoms: C_1  and  C_2
REMARK    2  A    between atoms: C_2  and  C_4
REMARK    3  A    between atoms: C_2  and  N_10
REMARK    4  A    between atoms: N_10  and  C_11
REMARK    5  A    between atoms: C_14  and  S_18
REMARK    6  A    between atoms: C_16  and  N_17
REMARK    7  A    between atoms: S_18  and  N_21
REMARK                            x       y       z     vdW  Elec       q    Type
REMARK                         _______ _______ _______ _____ _____    ______ ____
ROOT
ATOM      1  C   UNL     1       0.026  -0.639   2.401  0.00  0.00    +0.048 A 
ATOM      2  C   UNL     1      -1.325  -0.334   2.478  0.00  0.00    +0.027 A 
ATOM      3  C   UNL     1      -2.000  -0.483   3.676  0.00  0.00    +0.030 A 
ATOM      4  C   UNL     1      -1.332  -0.936   4.799  0.00  0.00    +0.107 A 
ATOM      5  C   UNL     1       0.015  -1.242   4.730  0.00  0.00    +0.053 A 
ATOM      6  C   UNL     1       0.698  -1.101   3.532  0.00  0.00    +0.048 A 
ENDROOT
BRANCH   6   7
ATOM      7  N   UNL     1       2.061  -1.416   3.459  0.00  0.00    -0.356 N 
ATOM      8  H   UNL     1       2.538  -1.313   2.621  0.00  0.00    +0.142 HD
ATOM      9  H   UNL     1       2.527  -1.737   4.247  0.00  0.00    +0.142 HD
ENDBRANCH   6   7
BRANCH   4  10
ATOM     10  S   UNL     1      -2.199  -1.122   6.321  0.00  0.00    +0.056 S 
ATOM     11  O   UNL     1      -1.227  -1.041   7.355  0.00  0.00    -0.153 OA
ATOM     12  O   UNL     1      -3.320  -0.252   6.259  0.00  0.00    -0.153 OA
BRANCH  10  13
ATOM     13  N   UNL     1      -2.799  -2.665   6.357  0.00  0.00    -0.204 NA
ATOM     14  H   UNL     1      -2.637  -3.266   5.613  0.00  0.00    +0.144 HD
ATOM     15  H   UNL     1      -3.314  -2.968   7.122  0.00  0.00    +0.144 HD
ENDBRANCH  10  13
ENDBRANCH   4  10
BRANCH   1  16
ATOM     16  N   UNL     1       0.711  -0.489   1.189  0.00  0.00    -0.337 N 
ATOM     17  H   UNL     1       1.654  -0.707   1.135  0.00  0.00    +0.146 HD
BRANCH  16  19
ATOM     18  C   UNL     1      -0.019   1.526   0.010  0.00  0.00    +0.030 C 
ATOM     19  C   UNL     1       0.002  -0.004   0.002  0.00  0.00    +0.096 C 
BRANCH  19  20
ATOM     20  C   UNL     1       0.718  -0.497  -1.257  0.00  0.00    +0.138 C 
ATOM     21  C   UNL     1       0.748  -2.041  -1.271  0.00  0.00    +0.035 C 
ATOM     22  C   UNL     1       2.166  -2.338  -1.830  0.00  0.00    +0.031 C 
ATOM     23  C   UNL     1       2.972  -1.160  -1.228  0.00  0.00    +0.160 C 
ATOM     24  O   UNL     1       2.074  -0.037  -1.256  0.00  0.00    -0.375 OA
ENDBRANCH  19  20
ENDBRANCH  16  19
ENDBRANCH   1  16
TORSDOF 6
