REMARK  Name = ZINC15468187
REMARK  9 active torsions:
REMARK  status: ('A' for Active; 'I' for Inactive)
REMARK    1  A    between atoms: C_1  and  C_2
REMARK    2  A    between atoms: C_2  and  C_3
REMARK    3  A    between atoms: C_4  and  C_30
REMARK    4  A    between atoms: C_6  and  C_8
REMARK    5  A    between atoms: N_10  and  N_11
REMARK    6  A    between atoms: C_12  and  C_14
REMARK    7  A    between atoms: N_17  and  S_20
REMARK    8  A    between atoms: S_20  and  C_23
REMARK    9  A    between atoms: C_26  and  C_29
REMARK                            x       y       z     vdW  Elec       q    Type
REMARK                         _______ _______ _______ _____ _____    ______ ____
ROOT
ATOM      1  N   UNL     1      -0.011   0.966   0.007  0.00  0.00    -0.234 N 
ATOM      2  C   UNL     1      -1.187   1.624   0.017  0.00  0.00    +0.232 C 
ATOM      3  O   UNL     1      -1.204   2.837   0.023  0.00  0.00    -0.274 OA
ATOM      4  H   UNL     1       0.002  -0.004   0.002  0.00  0.00    +0.173 HD
ENDROOT
BRANCH   2   5
ATOM      5  C   UNL     1      -2.482   0.853   0.018  0.00  0.00    +0.079 C 
ATOM      6  C   UNL     1      -2.556  -0.023  -1.235  0.00  0.00    +0.030 C 
ATOM      7  C   UNL     1      -3.857  -0.831  -1.212  0.00  0.00    +0.110 C 
ATOM      8  N   UNL     1      -4.987   0.096  -1.056  0.00  0.00    -0.177 NA
ATOM      9  C   UNL     1      -4.972   1.044   0.066  0.00  0.00    +0.110 C 
ATOM     10  C   UNL     1      -3.658   1.831   0.029  0.00  0.00    +0.030 C 
BRANCH   8  11
ATOM     11  S   UNL     1      -6.253   0.071  -2.123  0.00  0.00    +0.061 S 
ATOM     12  O   UNL     1      -6.273  -1.228  -2.699  0.00  0.00    -0.153 OA
ATOM     13  O   UNL     1      -7.371   0.619  -1.439  0.00  0.00    -0.153 OA
BRANCH  11  14
ATOM     14  C   UNL     1      -5.859   1.192  -3.424  0.00  0.00    +0.105 A 
ATOM     15  C   UNL     1      -6.237   2.519  -3.331  0.00  0.00    +0.029 A 
ATOM     16  C   UNL     1      -5.925   3.400  -4.350  0.00  0.00    +0.005 A 
ATOM     17  C   UNL     1      -5.242   2.952  -5.465  0.00  0.00    -0.050 A 
ATOM     18  C   UNL     1      -4.868   1.625  -5.560  0.00  0.00    +0.005 A 
ATOM     19  C   UNL     1      -5.176   0.745  -4.540  0.00  0.00    +0.029 A 
ATOM     20  C   UNL     1      -4.905   3.911  -6.578  0.00  0.00    +0.044 C 
ENDBRANCH  11  14
ENDBRANCH   8  11
ENDBRANCH   2   5
BRANCH   1  23
ATOM     21  C   UNL     1       2.369   1.025  -0.015  0.00  0.00    +0.267 C 
ATOM     22  O   UNL     1       2.385  -0.192  -0.022  0.00  0.00    -0.268 OA
ATOM     23  N   UNL     1       1.193   1.683  -0.000  0.00  0.00    -0.230 N 
ATOM     24  H   UNL     1       1.179   2.653   0.005  0.00  0.00    +0.173 HD
BRANCH  21  28
ATOM     25  C   UNL     1       5.619   3.551  -0.033  0.00  0.00    -0.007 A 
ATOM     26  C   UNL     1       5.937   2.229  -0.043  0.00  0.00    -0.040 A 
ATOM     27  C   UNL     1       4.929   1.298  -0.038  0.00  0.00    +0.024 A 
ATOM     28  C   UNL     1       3.628   1.775  -0.023  0.00  0.00    +0.076 A 
ATOM     29  S   UNL     1       3.885   3.540  -0.024  0.00  0.00    -0.088 S 
ATOM     30  C   UNL     1       7.379   1.793  -0.058  0.00  0.00    +0.044 C 
BRANCH  25  32
ATOM     31  C   UNL     1       6.848   5.146  -1.479  0.00  0.00    +0.009 C 
ATOM     32  C   UNL     1       6.548   4.737  -0.036  0.00  0.00    +0.039 C 
ENDBRANCH  25  32
ENDBRANCH  21  28
ENDBRANCH   1  23
TORSDOF 6
