REMARK  Name = ZINC06131173
REMARK  13 active torsions:
REMARK  status: ('A' for Active; 'I' for Inactive)
REMARK    1  A    between atoms: C_1  and  C_2
REMARK    2  A    between atoms: C_2  and  C_3
REMARK    3  A    between atoms: C_3  and  C_4
REMARK    4  A    between atoms: C_4  and  C_5
REMARK    5  A    between atoms: C_5  and  C_6
REMARK    6  A    between atoms: C_17  and  C_39
REMARK    7  A    between atoms: C_18  and  C_20
REMARK    8  A    between atoms: C_20  and  C_21
REMARK    9  A    between atoms: N_23  and  C_24
REMARK   10  A    between atoms: C_32  and  O_38
REMARK   11  A    between atoms: C_34  and  C_35
REMARK   12  A    between atoms: C_34  and  C_36
REMARK   13  A    between atoms: C_36  and  O_37
REMARK                            x       y       z     vdW  Elec       q    Type
REMARK                         _______ _______ _______ _____ _____    ______ ____
ROOT
ATOM      1  C   UNL     1       3.864  -1.512  -5.257  0.00  0.00    +0.219 C 
ATOM      2  O   UNL     1       3.055  -2.288  -5.719  0.00  0.00    -0.275 OA
ATOM      3  N   UNL     1       3.671  -0.990  -4.029  0.00  0.00    -0.265 N 
ATOM      4  C   UNL     1       2.545  -1.340  -3.294  0.00  0.00    +0.165 A 
ATOM      5  N   UNL     1       2.184  -0.942  -2.092  0.00  0.00    -0.229 NA
ATOM      6  C   UNL     1       1.066  -1.368  -1.509  0.00  0.00    +0.058 A 
ATOM      7  C   UNL     1       0.315  -2.241  -2.229  0.00  0.00    +0.015 A 
ATOM      8  S   UNL     1       1.250  -2.417  -3.725  0.00  0.00    -0.057 S 
ATOM      9  C   UNL     1      -0.973  -2.874  -1.835  0.00  0.00    +0.049 C 
ATOM     10  C   UNL     1      -1.183  -2.682  -0.320  0.00  0.00    +0.011 C 
ATOM     11  C   UNL     1      -0.884  -1.226   0.043  0.00  0.00    -0.019 C 
ATOM     12  C   UNL     1       0.614  -0.935  -0.123  0.00  0.00    +0.054 C 
ATOM     13  C   UNL     1      -1.242  -0.964   1.510  0.00  0.00    +0.010 C 
ATOM     14  C   UNL     1      -2.715  -1.281   1.762  0.00  0.00    +0.032 C 
ATOM     15  C   UNL     1      -2.960  -2.761   1.453  0.00  0.00    +0.123 C 
ATOM     16  C   UNL     1      -2.649  -3.012  -0.021  0.00  0.00    +0.021 C 
ATOM     17  C   UNL     1      -2.914  -4.482  -0.352  0.00  0.00    +0.016 C 
ATOM     18  C   UNL     1      -1.691  -0.295  -0.864  0.00  0.00    +0.012 C 
ATOM     19  H   UNL     1       4.405  -0.286  -3.610  0.00  0.00    +0.157 HD
ENDROOT
BRANCH  15  20
ATOM     20  O   UNL     1      -4.327  -3.086   1.715  0.00  0.00    -0.391 OA
ATOM     21  H   UNL     1      -4.691  -4.110   1.550  0.00  0.00    +0.210 HD
ENDBRANCH  15  20
BRANCH   1  22
ATOM     22  C   UNL     1       5.085  -1.132  -6.054  0.00  0.00    +0.096 C 
BRANCH  22  23
ATOM     23  C   UNL     1       5.062  -1.859  -7.400  0.00  0.00    +0.009 C 
BRANCH  23  24
ATOM     24  C   UNL     1       6.302  -1.474  -8.209  0.00  0.00    +0.000 C 
BRANCH  24  26
ATOM     25  C   UNL     1       7.519  -1.815 -10.364  0.00  0.00    +0.004 C 
ATOM     26  C   UNL     1       6.279  -2.201  -9.555  0.00  0.00    -0.003 C 
ENDBRANCH  24  26
ENDBRANCH  23  24
ENDBRANCH  22  23
ENDBRANCH   1  22
BRANCH  12  27
ATOM     27  C   UNL     1       0.864   0.564   0.050  0.00  0.00    +0.106 C 
BRANCH  27  28
ATOM     28  C   UNL     1       2.348   0.826   0.077  0.00  0.00    +0.218 C 
ATOM     29  O   UNL     1       3.128  -0.096  -0.032  0.00  0.00    -0.275 OA
ATOM     30  N   UNL     1       2.807   2.084   0.221  0.00  0.00    -0.285 N 
ATOM     31  H   UNL     1       2.103   2.929   0.231  0.00  0.00    +0.155 HD
BRANCH  30  32
ATOM     32  C   UNL     1       4.180   2.316   0.360  0.00  0.00    +0.033 A 
ATOM     33  C   UNL     1       4.996   1.346   0.927  0.00  0.00    +0.023 A 
ATOM     34  C   UNL     1       6.352   1.575   1.056  0.00  0.00    +0.002 A 
ATOM     35  C   UNL     1       6.895   2.774   0.633  0.00  0.00    +0.000 A 
ATOM     36  C   UNL     1       6.085   3.745   0.073  0.00  0.00    +0.002 A 
ATOM     37  C   UNL     1       4.729   3.519  -0.065  0.00  0.00    +0.023 A 
ENDBRANCH  30  32
ENDBRANCH  27  28
ENDBRANCH  12  27
BRANCH  16  38
ATOM     38  C   UNL     1      -3.552  -2.131  -0.887  0.00  0.00    +0.165 C 
BRANCH  38  39
ATOM     39  O   UNL     1      -4.910  -2.552  -0.740  0.00  0.00    -0.394 OA
ATOM     40  H   UNL     1      -5.709  -2.033  -1.290  0.00  0.00    +0.209 HD
ENDBRANCH  38  39
ENDBRANCH  16  38
TORSDOF 10
