REMARK  Name = ZINC09554100
REMARK  7 active torsions:
REMARK  status: ('A' for Active; 'I' for Inactive)
REMARK    1  A    between atoms: C_1  and  C_2
REMARK    2  A    between atoms: C_9  and  N_31
REMARK    3  A    between atoms: C_10  and  C_29
REMARK    4  A    between atoms: C_11  and  C_13
REMARK    5  A    between atoms: C_16  and  O_19
REMARK    6  A    between atoms: O_19  and  C_20
REMARK    7  A    between atoms: C_20  and  C_21
REMARK                            x       y       z     vdW  Elec       q    Type
REMARK                         _______ _______ _______ _____ _____    ______ ____
ROOT
ATOM      1  C   UNL     1      -2.021   4.656   3.131  0.00  0.00    +0.068 C 
ATOM      2  C   UNL     1      -3.134   3.792   2.597  0.00  0.00    +0.068 A 
ATOM      3  C   UNL     1      -3.345   3.465   1.264  0.00  0.00    +0.049 A 
ATOM      4  C   UNL     1      -4.452   2.666   1.194  0.00  0.00    +0.222 A 
ATOM      5  N   UNL     1      -4.913   2.502   2.444  0.00  0.00    -0.246 N 
ATOM      6  H   UNL     1      -5.714   1.965   2.710  0.00  0.00    +0.192 HD
ATOM      7  N   UNL     1      -4.072   3.217   3.311  0.00  0.00    -0.176 NA
ATOM      8  O   UNL     1      -4.927   2.174   0.023  0.00  0.00    -0.423 OA
ATOM      9  C   UNL     1      -4.447   2.708  -1.119  0.00  0.00    +0.200 C 
ATOM     10  C   UNL     1      -3.355   3.501  -1.178  0.00  0.00    +0.098 C 
ATOM     11  C   UNL     1      -2.553   3.867   0.046  0.00  0.00    +0.101 C 
ENDROOT
BRANCH  11  12
ATOM     12  C   UNL     1      -1.237   3.133   0.030  0.00  0.00    -0.034 A 
ATOM     13  C   UNL     1      -1.218   1.751   0.017  0.00  0.00    +0.008 A 
ATOM     14  C   UNL     1      -0.013   1.076   0.008  0.00  0.00    +0.046 A 
ATOM     15  C   UNL     1       1.179   1.786   0.000  0.00  0.00    +0.121 A 
ATOM     16  C   UNL     1       1.157   3.174   0.008  0.00  0.00    +0.046 A 
ATOM     17  C   UNL     1      -0.051   3.844   0.023  0.00  0.00    +0.008 A 
BRANCH  15  18
ATOM     18  O   UNL     1       2.366   1.125  -0.015  0.00  0.00    -0.487 OA
BRANCH  18  19
ATOM     19  C   UNL     1       3.553   1.921  -0.022  0.00  0.00    +0.266 C 
BRANCH  19  20
ATOM     20  C   UNL     1       4.761   1.021  -0.039  0.00  0.00    +0.008 A 
ATOM     21  C   UNL     1       4.601  -0.352  -0.040  0.00  0.00    +0.010 A 
ATOM     22  C   UNL     1       5.708  -1.178  -0.061  0.00  0.00    +0.020 A 
ATOM     23  C   UNL     1       6.979  -0.631  -0.070  0.00  0.00    +0.042 A 
ATOM     24  C   UNL     1       7.141   0.743  -0.064  0.00  0.00    +0.040 A 
ATOM     25  C   UNL     1       6.031   1.569  -0.048  0.00  0.00    +0.049 A 
ATOM     26 CL   UNL     1       6.233   3.293  -0.040  0.00  0.00    -0.083 Cl
ATOM     27 CL   UNL     1       8.371  -1.668  -0.090  0.00  0.00    -0.083 Cl
ENDBRANCH  19  20
ENDBRANCH  18  19
ENDBRANCH  15  18
ENDBRANCH  11  12
BRANCH   9  28
ATOM     28  N   UNL     1      -5.107   2.429  -2.290  0.00  0.00    -0.328 N 
ATOM     29  H   UNL     1      -4.786   2.798  -3.127  0.00  0.00    +0.145 HD
ATOM     30  H   UNL     1      -5.894   1.862  -2.280  0.00  0.00    +0.145 HD
ENDBRANCH   9  28
BRANCH  10  31
ATOM     31  C   UNL     1      -2.943   4.014  -2.450  0.00  0.00    +0.101 C 
ATOM     32  N   UNL     1      -2.617   4.421  -3.459  0.00  0.00    -0.191 NA
ENDBRANCH  10  31
TORSDOF 6
