REMARK  Name = ZINC65674788
REMARK  10 active torsions:
REMARK  status: ('A' for Active; 'I' for Inactive)
REMARK    1  A    between atoms: C_1  and  C_2
REMARK    2  A    between atoms: N_6  and  C_8
REMARK    3  A    between atoms: C_8  and  C_9
REMARK    4  A    between atoms: C_9  and  C_10
REMARK    5  A    between atoms: C_9  and  N_11
REMARK    6  A    between atoms: C_12  and  C_14
REMARK    7  A    between atoms: C_14  and  C_15
REMARK    8  A    between atoms: C_15  and  C_16
REMARK    9  A    between atoms: C_16  and  C_17
REMARK   10  A    between atoms: C_17  and  C_18
REMARK                            x       y       z     vdW  Elec       q    Type
REMARK                         _______ _______ _______ _____ _____    ______ ____
ROOT
ATOM      1  N   UNL     1       2.250  -4.358   1.016  0.00  0.00    -0.315 N 
ATOM      2  C   UNL     1       2.013  -5.581   0.502  0.00  0.00    +0.213 C 
ATOM      3  O   UNL     1       1.323  -6.372   1.111  0.00  0.00    -0.276 OA
ATOM      4  H   UNL     1       2.802  -3.726   0.530  0.00  0.00    +0.149 HD
ENDROOT
BRANCH   1   5
ATOM      5  C   UNL     1       1.673  -3.983   2.310  0.00  0.00    +0.053 C 
ATOM      6  C   UNL     1       2.587  -4.472   3.436  0.00  0.00    +0.026 C 
BRANCH   5   7
ATOM      7  C   UNL     1       1.539  -2.461   2.387  0.00  0.00    -0.057 C 
BRANCH   7  13
ATOM      8  C   UNL     1      -0.019   1.526   0.010  0.00  0.00    +0.005 C 
ATOM      9  C   UNL     1       0.002  -0.004   0.002  0.00  0.00    -0.031 C 
ATOM     10  C   UNL     1      -1.434  -0.535   0.018  0.00  0.00    -0.001 C 
ATOM     11  C   UNL     1      -1.402  -2.064   0.089  0.00  0.00    -0.018 C 
ATOM     12  C   UNL     1      -0.610  -2.496   1.325  0.00  0.00    -0.079 C 
ATOM     13  N   UNL     1       0.761  -1.980   1.237  0.00  0.00    +0.381 N 
ATOM     14  C   UNL     1       0.742  -0.512   1.241  0.00  0.00    -0.076 C 
ATOM     15  H   UNL     1       1.189  -2.307   0.384  0.00  0.00    -0.082 HD
ENDBRANCH   7  13
ENDBRANCH   5   7
ENDBRANCH   1   5
BRANCH   2  16
ATOM     16  C   UNL     1       2.606  -5.967  -0.828  0.00  0.00    +0.096 C 
BRANCH  16  17
ATOM     17  C   UNL     1       2.187  -7.396  -1.179  0.00  0.00    +0.009 C 
BRANCH  17  18
ATOM     18  C   UNL     1       2.789  -7.788  -2.529  0.00  0.00    +0.002 C 
BRANCH  18  19
ATOM     19  C   UNL     1       2.370  -9.217  -2.880  0.00  0.00    +0.016 C 
BRANCH  19  20
ATOM     20  C   UNL     1       2.972  -9.608  -4.231  0.00  0.00    +0.069 C 
ATOM     21  C   UNL     1       2.607 -11.062  -4.600  0.00  0.00    +0.108 C 
ATOM     22  C   UNL     1       2.266 -11.254  -6.081  0.00  0.00    +0.105 C 
ATOM     23  C   UNL     1       2.347  -9.953  -6.909  0.00  0.00    +0.093 C 
ATOM     24  S   UNL     1       2.177  -8.671  -5.607  0.00  0.00    -0.154 S 
ATOM     25  N   UNL     1       0.871 -11.721  -6.069  0.00  0.00    -0.294 N 
ATOM     26  C   UNL     1       0.447 -11.797  -4.801  0.00  0.00    +0.300 C 
ATOM     27  O   UNL     1      -0.674 -12.158  -4.497  0.00  0.00    -0.253 OA
ATOM     28  N   UNL     1       1.365 -11.437  -3.905  0.00  0.00    -0.294 N 
ATOM     29  H   UNL     1       0.344 -11.939  -6.854  0.00  0.00    +0.151 HD
ATOM     30  H   UNL     1       1.231 -11.427  -2.945  0.00  0.00    +0.151 HD
ENDBRANCH  19  20
ENDBRANCH  18  19
ENDBRANCH  17  18
ENDBRANCH  16  17
ENDBRANCH   2  16
TORSDOF 8
