REMARK  Name = ZINC64646570
REMARK  5 active torsions:
REMARK  status: ('A' for Active; 'I' for Inactive)
REMARK    1  A    between atoms: C_7  and  C_10
REMARK    2  A    between atoms: C_10  and  C_11
REMARK    3  A    between atoms: C_11  and  C_12
REMARK    4  A    between atoms: C_20  and  C_22
REMARK    5  A    between atoms: C_25  and  C_28
REMARK                            x       y       z     vdW  Elec       q    Type
REMARK                         _______ _______ _______ _____ _____    ______ ____
ROOT
ATOM      1  C   UNL     1      -0.484  -4.830  -1.460  0.00  0.00    +0.216 C 
ATOM      2  O   UNL     1      -0.925  -5.254  -0.412  0.00  0.00    -0.276 OA
ATOM      3  N   UNL     1      -0.837  -5.413  -2.623  0.00  0.00    -0.298 N 
ATOM      4  C   UNL     1      -0.307  -4.915  -3.900  0.00  0.00    +0.126 C 
ATOM      5  C   UNL     1       0.368  -6.078  -4.638  0.00  0.00    +0.127 C 
ATOM      6  N   UNL     1      -0.553  -7.223  -4.652  0.00  0.00    -0.297 N 
ATOM      7  C   UNL     1      -1.083  -7.721  -3.375  0.00  0.00    +0.127 C 
ATOM      8  C   UNL     1      -1.754  -6.562  -2.637  0.00  0.00    +0.126 C 
ATOM      9  C   UNL     1      -0.905  -7.806  -5.815  0.00  0.00    +0.238 C 
ATOM     10  O   UNL     1      -0.461  -7.386  -6.862  0.00  0.00    -0.273 OA
ENDROOT
BRANCH   9  11
ATOM     11  C   UNL     1      -1.851  -8.979  -5.814  0.00  0.00    +0.183 C 
ATOM     12  C   UNL     1      -1.105 -10.258  -5.500  0.00  0.00    +0.027 C 
ATOM     13  C   UNL     1      -1.248 -11.054  -6.558  0.00  0.00    +0.047 C 
ATOM     14  N   UNL     1      -2.009 -10.446  -7.547  0.00  0.00    -0.279 N 
ATOM     15  N   UNL     1      -2.406  -9.195  -7.164  0.00  0.00    -0.227 NA
ATOM     16  H   UNL     1      -2.231 -10.855  -8.398  0.00  0.00    +0.166 HD
ATOM     17  H   UNL     1      -3.412  -9.119  -7.157  0.00  0.00    +0.145 HD
BRANCH  13  18
ATOM     18  C   UNL     1      -0.669 -12.413  -6.666  0.00  0.00    -0.000 A 
ATOM     19  C   UNL     1       0.084 -12.958  -5.621  0.00  0.00    +0.029 A 
ATOM     20  C   UNL     1       0.604 -14.228  -5.763  0.00  0.00    +0.111 A 
ATOM     21  N   UNL     1       0.400 -14.924  -6.865  0.00  0.00    -0.263 NA
ATOM     22  C   UNL     1      -0.303 -14.447  -7.874  0.00  0.00    +0.111 A 
ATOM     23  C   UNL     1      -0.865 -13.188  -7.813  0.00  0.00    +0.029 A 
ENDBRANCH  13  18
ENDBRANCH   9  11
BRANCH   1  24
ATOM     24  C   UNL     1       0.457  -3.653  -1.462  0.00  0.00    +0.100 C 
BRANCH  24  25
ATOM     25  C   UNL     1       0.691  -3.186  -0.024  0.00  0.00    +0.042 C 
BRANCH  25  32
ATOM     26  C   UNL     1      -0.016   1.348   0.009  0.00  0.00    +0.001 A 
ATOM     27  C   UNL     1       1.166   2.101   0.002  0.00  0.00    +0.002 A 
ATOM     28  C   UNL     1       2.391   1.535  -0.013  0.00  0.00    +0.026 A 
ATOM     29  C   UNL     1       2.529   0.120  -0.022  0.00  0.00    +0.043 A 
ATOM     30  N   UNL     1       3.587  -0.654  -0.037  0.00  0.00    -0.380 N 
ATOM     31  C   UNL     1       3.143  -2.053  -0.041  0.00  0.00    +0.144 C 
ATOM     32  C   UNL     1       1.631  -2.008  -0.025  0.00  0.00    -0.041 C 
ATOM     33  C   UNL     1       1.295  -0.698  -0.014  0.00  0.00    -0.001 A 
ATOM     34  C   UNL     1       0.002  -0.004   0.002  0.00  0.00    +0.010 A 
ATOM     35  H   UNL     1       4.509  -0.353  -0.045  0.00  0.00    +0.160 HD
ENDBRANCH  25  32
ENDBRANCH  24  25
ENDBRANCH   1  24
TORSDOF 5
