REMARK  Name = ZINC35746231
REMARK  14 active torsions:
REMARK  status: ('A' for Active; 'I' for Inactive)
REMARK    1  A    between atoms: C_1  and  C_2
REMARK    2  A    between atoms: C_2  and  C_3
REMARK    3  A    between atoms: C_2  and  O_4
REMARK    4  A    between atoms: O_4  and  C_5
REMARK    5  A    between atoms: C_5  and  C_6
REMARK    6  A    between atoms: C_6  and  C_8
REMARK    7  A    between atoms: C_6  and  O_36
REMARK    8  A    between atoms: C_8  and  N_9
REMARK    9  A    between atoms: N_9  and  C_10
REMARK   10  A    between atoms: N_9  and  C_30
REMARK   11  A    between atoms: C_10  and  C_11
REMARK   12  A    between atoms: C_17  and  C_22
REMARK   13  A    between atoms: C_26  and  O_28
REMARK   14  A    between atoms: O_28  and  C_29
REMARK                            x       y       z     vdW  Elec       q    Type
REMARK                         _______ _______ _______ _____ _____    ______ ____
ROOT
ATOM      1  C   UNL     1       0.613  -2.692   8.108  0.00  0.00    +0.094 A 
ATOM      2  N   UNL     1       0.041  -3.082   9.277  0.00  0.00    -0.312 N 
ATOM      3  H   UNL     1      -0.923  -3.177   9.325  0.00  0.00    +0.170 HD
ATOM      4  C   UNL     1       0.785  -3.338  10.368  0.00  0.00    +0.260 A 
ATOM      5  O   UNL     1       0.257  -3.687  11.410  0.00  0.00    -0.267 OA
ATOM      6  C   UNL     1       2.208  -3.195  10.287  0.00  0.00    +0.080 A 
ATOM      7  C   UNL     1       3.216  -3.411  11.318  0.00  0.00    +0.004 A 
ATOM      8  C   UNL     1       4.520  -3.211  11.005  0.00  0.00    +0.056 A 
ATOM      9  S   UNL     1       4.463  -2.715   9.294  0.00  0.00    -0.076 S 
ATOM     10  C   UNL     1       2.708  -2.788   9.040  0.00  0.00    +0.116 A 
ATOM     11  N   UNL     1       1.908  -2.558   8.002  0.00  0.00    -0.229 NA
ENDROOT
BRANCH   7  12
ATOM     12  C   UNL     1       2.824  -3.841  12.681  0.00  0.00    -0.013 A 
ATOM     13  C   UNL     1       1.816  -3.163  13.365  0.00  0.00    +0.009 A 
ATOM     14  C   UNL     1       1.452  -3.567  14.634  0.00  0.00    +0.004 A 
ATOM     15  C   UNL     1       2.085  -4.642  15.230  0.00  0.00    +0.045 A 
ATOM     16  C   UNL     1       3.090  -5.322  14.556  0.00  0.00    +0.121 A 
ATOM     17  C   UNL     1       3.457  -4.928  13.279  0.00  0.00    +0.054 A 
BRANCH  16  18
ATOM     18  O   UNL     1       3.710  -6.378  15.146  0.00  0.00    -0.495 OA
ATOM     19  C   UNL     1       3.276  -6.732  16.460  0.00  0.00    +0.277 C 
ENDBRANCH  16  18
ENDBRANCH   7  12
BRANCH   1  20
ATOM     20  C   UNL     1      -0.261  -2.417   6.912  0.00  0.00    -0.003 C 
BRANCH  20  21
ATOM     21  N   UNL     1       0.583  -2.196   5.730  0.00  0.00    +0.388 N 
ATOM     22  H   UNL     1       1.401  -1.667   5.994  0.00  0.00    -0.081 HD
BRANCH  21  23
ATOM     23  C   UNL     1       0.997  -3.491   5.174  0.00  0.00    -0.068 C 
ATOM     24  C   UNL     1       1.832  -4.247   6.210  0.00  0.00    -0.015 C 
ATOM     25  C   UNL     1       2.263  -5.596   5.631  0.00  0.00    -0.002 C 
ATOM     26  C   UNL     1       1.022  -6.419   5.277  0.00  0.00    -0.000 C 
ATOM     27  C   UNL     1       0.187  -5.663   4.242  0.00  0.00    -0.002 C 
ATOM     28  C   UNL     1      -0.243  -4.314   4.821  0.00  0.00    -0.015 C 
ENDBRANCH  21  23
BRANCH  21  29
ATOM     29  C   UNL     1      -0.177  -1.449   4.718  0.00  0.00    -0.044 C 
BRANCH  29  30
ATOM     30  C   UNL     1       0.742  -1.098   3.546  0.00  0.00    +0.124 C 
BRANCH  30  31
ATOM     31  O   UNL     1       1.772  -0.216   3.997  0.00  0.00    -0.391 OA
ATOM     32  H   UNL     1       1.445   0.617   4.362  0.00  0.00    +0.210 HD
ENDBRANCH  30  31
BRANCH  30  33
ATOM     33  C   UNL     1      -0.072  -0.412   2.448  0.00  0.00    +0.189 C 
BRANCH  33  34
ATOM     34  O   UNL     1       0.760  -0.189   1.307  0.00  0.00    -0.375 OA
BRANCH  34  36
ATOM     35  C   UNL     1       0.230   1.968   0.355  0.00  0.00    +0.037 C 
ATOM     36  C   UNL     1       0.093   0.451   0.217  0.00  0.00    +0.112 C 
ATOM     37  C   UNL     1       0.723  -0.001  -1.102  0.00  0.00    +0.037 C 
ENDBRANCH  34  36
ENDBRANCH  33  34
ENDBRANCH  30  33
ENDBRANCH  29  30
ENDBRANCH  21  29
ENDBRANCH  20  21
ENDBRANCH   1  20
TORSDOF 11
