REMARK  Name = ZINC40083825
REMARK  7 active torsions:
REMARK  status: ('A' for Active; 'I' for Inactive)
REMARK    1  A    between atoms: C_7  and  C_10
REMARK    2  A    between atoms: C_10  and  C_12
REMARK    3  A    between atoms: C_12  and  O_13
REMARK    4  A    between atoms: O_13  and  C_14
REMARK    5  A    between atoms: C_14  and  C_16
REMARK    6  A    between atoms: C_20  and  S_22
REMARK    7  A    between atoms: S_22  and  N_25
REMARK                            x       y       z     vdW  Elec       q    Type
REMARK                         _______ _______ _______ _____ _____    ______ ____
ROOT
ATOM      1  C   UNL     1       0.397  -6.779  -0.037  0.00  0.00    +0.340 C 
ATOM      2  O   UNL     1       1.559  -7.133  -0.050  0.00  0.00    -0.245 OA
ENDROOT
BRANCH   1   3
ATOM      3  C   UNL     1      -0.682  -7.787  -0.033  0.00  0.00    +0.061 A 
ATOM      4  C   UNL     1      -2.019  -7.383  -0.024  0.00  0.00    +0.016 A 
ATOM      5  C   UNL     1      -3.022  -8.329  -0.019  0.00  0.00    +0.023 A 
ATOM      6  C   UNL     1      -2.705  -9.678  -0.024  0.00  0.00    +0.067 A 
ATOM      7  C   UNL     1      -1.382 -10.085  -0.032  0.00  0.00    +0.124 A 
ATOM      8  C   UNL     1      -0.369  -9.148  -0.042  0.00  0.00    +0.045 A 
ATOM      9 CL   UNL     1      -3.974 -10.863  -0.017  0.00  0.00    -0.082 Cl
BRANCH   7  10
ATOM     10  S   UNL     1      -0.990 -11.803  -0.037  0.00  0.00    +0.057 S 
ATOM     11  O   UNL     1      -1.779 -12.396  -1.059  0.00  0.00    -0.153 OA
ATOM     12  O   UNL     1       0.428 -11.896  -0.019  0.00  0.00    -0.153 OA
BRANCH  10  13
ATOM     13  N   UNL     1      -1.524 -12.431   1.399  0.00  0.00    -0.203 NA
ATOM     14  H   UNL     1      -1.960 -11.856   2.047  0.00  0.00    +0.144 HD
ATOM     15  H   UNL     1      -1.401 -13.374   1.591  0.00  0.00    +0.144 HD
ENDBRANCH  10  13
ENDBRANCH   7  10
ENDBRANCH   1   3
BRANCH   1  16
ATOM     16  O   UNL     1       0.093  -5.467  -0.028  0.00  0.00    -0.453 OA
BRANCH  16  17
ATOM     17  C   UNL     1       1.187  -4.547  -0.033  0.00  0.00    +0.311 C 
BRANCH  17  18
ATOM     18  C   UNL     1       0.657  -3.136  -0.021  0.00  0.00    +0.199 C 
ATOM     19  O   UNL     1      -0.541  -2.938  -0.009  0.00  0.00    -0.289 OA
BRANCH  18  26
ATOM     20  C   UNL     1      -0.016   1.348   0.009  0.00  0.00    +0.001 A 
ATOM     21  C   UNL     1       1.158   2.117   0.002  0.00  0.00    +0.002 A 
ATOM     22  C   UNL     1       2.384   1.551  -0.012  0.00  0.00    +0.026 A 
ATOM     23  C   UNL     1       2.494   0.083  -0.021  0.00  0.00    +0.043 A 
ATOM     24  N   UNL     1       3.525  -0.712  -0.035  0.00  0.00    -0.380 N 
ATOM     25  C   UNL     1       3.065  -2.104  -0.039  0.00  0.00    +0.152 C 
ATOM     26  C   UNL     1       1.553  -2.046  -0.024  0.00  0.00    +0.026 C 
ATOM     27  C   UNL     1       1.234  -0.700  -0.013  0.00  0.00    +0.006 A 
ATOM     28  C   UNL     1       0.002  -0.004   0.002  0.00  0.00    +0.010 A 
ATOM     29  H   UNL     1       4.453  -0.428  -0.043  0.00  0.00    +0.160 HD
ENDBRANCH  18  26
ENDBRANCH  17  18
ENDBRANCH  16  17
ENDBRANCH   1  16
TORSDOF 7
