REMARK  Name = ZINC13536598
REMARK  3 active torsions:
REMARK  status: ('A' for Active; 'I' for Inactive)
REMARK    1  A    between atoms: N_10  and  N_11
REMARK    2  A    between atoms: C_12  and  C_13
REMARK    3  A    between atoms: C_14  and  C_29
REMARK                            x       y       z     vdW  Elec       q    Type
REMARK                         _______ _______ _______ _____ _____    ______ ____
ROOT
ATOM      1  C   UNL     1       6.175  -5.823  -0.090  0.00  0.00    +0.090 A 
ATOM      2  C   UNL     1       6.702  -7.085  -0.107  0.00  0.00    +0.150 A 
ATOM      3  N   UNL     1       8.060  -6.985  -0.118  0.00  0.00    -0.284 N 
ATOM      4  H   UNL     1       8.676  -7.735  -0.131  0.00  0.00    +0.187 HD
ATOM      5  N   UNL     1       8.431  -5.637  -0.108  0.00  0.00    -0.194 N 
ATOM      6  C   UNL     1       7.309  -4.888  -0.097  0.00  0.00    +0.283 A 
ATOM      7  O   UNL     1       7.248  -3.672  -0.090  0.00  0.00    -0.265 OA
ATOM      8  C   UNL     1       9.728  -5.153  -0.114  0.00  0.00    +0.196 A 
ATOM      9  N   UNL     1      10.857  -5.824  -0.136  0.00  0.00    -0.221 NA
ATOM     10  C   UNL     1      12.062  -5.215  -0.139  0.00  0.00    +0.081 A 
ATOM     11  C   UNL     1      13.343  -5.814  -0.161  0.00  0.00    +0.029 A 
ATOM     12  C   UNL     1      14.476  -5.045  -0.160  0.00  0.00    +0.002 A 
ATOM     13  C   UNL     1      14.412  -3.659  -0.138  0.00  0.00    +0.001 A 
ATOM     14  C   UNL     1      13.176  -3.039  -0.117  0.00  0.00    +0.017 A 
ATOM     15  C   UNL     1      12.035  -3.802  -0.117  0.00  0.00    +0.041 A 
ATOM     16  S   UNL     1      10.292  -3.458  -0.102  0.00  0.00    -0.048 S 
ENDROOT
BRANCH   2  17
ATOM     17  C   UNL     1       5.913  -8.369  -0.112  0.00  0.00    +0.434 C 
ATOM     18  F   UNL     1       4.545  -8.075  -0.097  0.00  0.00    -0.164 F 
ATOM     19  F   UNL     1       6.221  -9.100  -1.265  0.00  0.00    -0.164 F 
ATOM     20  F   UNL     1       6.241  -9.122   1.020  0.00  0.00    -0.164 F 
ENDBRANCH   2  17
BRANCH   1  22
ATOM     21  N   UNL     1       4.385  -4.216  -0.064  0.00  0.00    -0.154 NA
ATOM     22  C   UNL     1       4.748  -5.471  -0.074  0.00  0.00    +0.150 C 
BRANCH  21  32
ATOM     23  C   UNL     1      -0.017   1.370   0.010  0.00  0.00    +0.002 A 
ATOM     24  C   UNL     1       1.157   2.104   0.002  0.00  0.00    +0.001 A 
ATOM     25  C   UNL     1       2.369   1.436  -0.013  0.00  0.00    +0.017 A 
ATOM     26  C   UNL     1       2.388   0.062  -0.021  0.00  0.00    +0.039 A 
ATOM     27  C   UNL     1       1.217  -0.710  -0.013  0.00  0.00    +0.055 A 
ATOM     28  C   UNL     1       0.002  -0.004   0.002  0.00  0.00    +0.027 A 
ATOM     29  N   UNL     1       1.393  -2.083  -0.023  0.00  0.00    -0.332 N 
ATOM     30  C   UNL     1       2.660  -2.613  -0.038  0.00  0.00    +0.193 A 
ATOM     31  S   UNL     1       3.686  -1.152  -0.040  0.00  0.00    -0.048 S 
ATOM     32  N   UNL     1       3.025  -3.879  -0.048  0.00  0.00    -0.124 NA
ATOM     33  H   UNL     1       0.622  -2.671  -0.018  0.00  0.00    +0.168 HD
ENDBRANCH  21  32
ENDBRANCH   1  22
TORSDOF 3
