REMARK  Name = ZINC42869812
REMARK  7 active torsions:
REMARK  status: ('A' for Active; 'I' for Inactive)
REMARK    1  A    between atoms: C_1  and  C_2
REMARK    2  A    between atoms: C_8  and  C_10
REMARK    3  A    between atoms: C_10  and  N_11
REMARK    4  A    between atoms: N_11  and  S_12
REMARK    5  A    between atoms: S_12  and  C_15
REMARK    6  A    between atoms: C_20  and  N_21
REMARK    7  A    between atoms: N_21  and  N_22
REMARK                            x       y       z     vdW  Elec       q    Type
REMARK                         _______ _______ _______ _____ _____    ______ ____
ROOT
ATOM      1  S   UNL     1       4.555  -0.395   2.575  0.00  0.00    +0.062 S 
ATOM      2  O   UNL     1       5.018  -0.912   3.815  0.00  0.00    -0.153 OA
ATOM      3  O   UNL     1       4.910  -0.975   1.327  0.00  0.00    -0.153 OA
ENDROOT
BRANCH   1   4
ATOM      4  C   UNL     1       5.064   1.290   2.510  0.00  0.00    +0.147 A 
ATOM      5  C   UNL     1       5.717   1.783   1.395  0.00  0.00    +0.048 A 
ATOM      6  C   UNL     1       6.101   3.118   1.387  0.00  0.00    +0.038 A 
ATOM      7  C   UNL     1       5.821   3.908   2.485  0.00  0.00    +0.128 A 
ATOM      8  N   UNL     1       5.196   3.410   3.535  0.00  0.00    -0.236 NA
ATOM      9  C   UNL     1       4.809   2.145   3.578  0.00  0.00    +0.159 A 
ATOM     10 BR   UNL     1       6.998   3.845  -0.110  0.00  0.00    -0.049 Br
BRANCH   9  11
ATOM     11  N   UNL     1       4.148   1.664   4.702  0.00  0.00    -0.266 N 
ATOM     12  H   UNL     1       3.787   0.764   4.705  0.00  0.00    +0.167 HD
BRANCH  11  13
ATOM     13  N   UNL     1       4.007   2.460   5.804  0.00  0.00    -0.255 NA
ATOM     14  H   UNL     1       3.550   3.328   5.567  0.00  0.00    +0.140 HD
ATOM     15  H   UNL     1       3.508   1.977   6.537  0.00  0.00    +0.140 HD
ENDBRANCH  11  13
ENDBRANCH   9  11
ENDBRANCH   1   4
BRANCH   1  16
ATOM     16  N   UNL     1       2.900  -0.405   2.646  0.00  0.00    -0.190 NA
ATOM     17  H   UNL     1       2.451  -0.746   3.435  0.00  0.00    +0.148 HD
BRANCH  16  18
ATOM     18  C   UNL     1       2.115   0.104   1.519  0.00  0.00    +0.109 C 
BRANCH  18  25
ATOM     19  C   UNL     1      -0.119   1.797   0.668  0.00  0.00    +0.008 C 
ATOM     20  C   UNL     1      -0.181   0.272   0.550  0.00  0.00    -0.010 C 
ATOM     21  C   UNL     1      -1.633  -0.191   0.688  0.00  0.00    +0.003 C 
ATOM     22  C   UNL     1      -1.695  -1.715   0.570  0.00  0.00    +0.000 C 
ATOM     23  C   UNL     1      -0.850  -2.348   1.678  0.00  0.00    +0.000 C 
ATOM     24  C   UNL     1       0.602  -1.884   1.539  0.00  0.00    +0.005 C 
ATOM     25  C   UNL     1       0.664  -0.360   1.657  0.00  0.00    +0.007 C 
ENDBRANCH  18  25
ENDBRANCH  16  18
ENDBRANCH   1  16
TORSDOF 6
