REMARK  Name = ZINC24270787
REMARK  8 active torsions:
REMARK  status: ('A' for Active; 'I' for Inactive)
REMARK    1  A    between atoms: C_1  and  C_2
REMARK    2  A    between atoms: C_2  and  C_4
REMARK    3  A    between atoms: C_2  and  S_18
REMARK    4  A    between atoms: C_4  and  C_6
REMARK    5  A    between atoms: C_6  and  C_16
REMARK    6  A    between atoms: S_18  and  C_19
REMARK    7  A    between atoms: C_22  and  C_27
REMARK    8  A    between atoms: N_23  and  C_24
REMARK                            x       y       z     vdW  Elec       q    Type
REMARK                         _______ _______ _______ _____ _____    ______ ____
ROOT
ATOM      1  S   UNL     1       2.835   2.248   0.225  0.00  0.00    -0.075 S 
ENDROOT
BRANCH   1   2
ATOM      2  C   UNL     1       1.092   2.467   0.099  0.00  0.00    +0.193 A 
ATOM      3  N   UNL     1       0.465   3.592  -0.155  0.00  0.00    -0.122 NA
ATOM      4  N   UNL     1      -0.805   3.397  -0.176  0.00  0.00    -0.128 NA
ATOM      5  C   UNL     1      -1.068   2.131   0.057  0.00  0.00    +0.167 A 
ATOM      6  N   UNL     1       0.139   1.497   0.247  0.00  0.00    -0.299 N 
BRANCH   5   7
ATOM      7  C   UNL     1      -2.405   1.507   0.110  0.00  0.00    +0.044 A 
ATOM      8  C   UNL     1      -2.678   0.183   0.232  0.00  0.00    +0.095 A 
ATOM      9  N   UNL     1      -4.030  -0.009   0.246  0.00  0.00    -0.360 N 
ATOM     10  H   UNL     1      -4.440  -1.026   0.339  0.00  0.00    +0.165 HD
ATOM     11  C   UNL     1      -4.684   1.199   0.132  0.00  0.00    +0.047 A 
ATOM     12  C   UNL     1      -3.703   2.201   0.048  0.00  0.00    +0.010 A 
ATOM     13  C   UNL     1      -4.080   3.537  -0.083  0.00  0.00    +0.011 A 
ATOM     14  C   UNL     1      -5.416   3.868  -0.118  0.00  0.00    +0.001 A 
ATOM     15  C   UNL     1      -6.386   2.879  -0.030  0.00  0.00    +0.002 A 
ATOM     16  C   UNL     1      -6.028   1.554   0.094  0.00  0.00    +0.026 A 
ENDBRANCH   5   7
BRANCH   6  17
ATOM     17  C   UNL     1       0.357   0.078   0.539  0.00  0.00    +0.091 C 
ATOM     18  C   UNL     1       1.795  -0.376   0.798  0.00  0.00    +0.027 C 
ATOM     19  C   UNL     1       1.096  -0.754  -0.511  0.00  0.00    +0.027 C 
ENDBRANCH   6  17
ENDBRANCH   1   2
BRANCH   1  21
ATOM     20  C   UNL     1       2.905   4.853   1.044  0.00  0.00    +0.028 C 
ATOM     21  C   UNL     1       3.389   3.942  -0.086  0.00  0.00    +0.123 C 
BRANCH  21  22
ATOM     22  C   UNL     1       4.894   3.975  -0.148  0.00  0.00    +0.189 C 
ATOM     23  O   UNL     1       5.545   3.124   0.426  0.00  0.00    -0.290 OA
BRANCH  22  24
ATOM     24  C   UNL     1       5.546   4.991  -0.869  0.00  0.00    +0.131 C 
ATOM     25  C   UNL     1       6.951   5.022  -0.926  0.00  0.00    +0.114 C 
ATOM     26  N   UNL     1       7.782   4.133  -0.324  0.00  0.00    -0.300 N 
ATOM     27  C   UNL     1       9.092   4.495  -0.615  0.00  0.00    +0.054 A 
ATOM     28  C   UNL     1      10.324   3.955  -0.271  0.00  0.00    +0.025 A 
ATOM     29  C   UNL     1      11.486   4.554  -0.715  0.00  0.00    +0.002 A 
ATOM     30  C   UNL     1      11.428   5.692  -1.503  0.00  0.00    +0.002 A 
ATOM     31  C   UNL     1      10.209   6.237  -1.850  0.00  0.00    +0.025 A 
ATOM     32  C   UNL     1       9.035   5.643  -1.409  0.00  0.00    +0.054 A 
ATOM     33  N   UNL     1       7.690   5.949  -1.588  0.00  0.00    -0.300 N 
ATOM     34  H   UNL     1       7.366   3.305   0.270  0.00  0.00    +0.153 HD
ATOM     35  H   UNL     1       7.191   6.760  -2.138  0.00  0.00    +0.153 HD
BRANCH  24  36
ATOM     36  C   UNL     1       4.779   5.994  -1.544  0.00  0.00    +0.106 C 
ATOM     37  N   UNL     1       4.171   6.790  -2.080  0.00  0.00    -0.191 NA
ENDBRANCH  24  36
ENDBRANCH  22  24
ENDBRANCH  21  22
ENDBRANCH   1  21
TORSDOF 7
