REMARK  Name = ZINC57608333
REMARK  9 active torsions:
REMARK  status: ('A' for Active; 'I' for Inactive)
REMARK    1  A    between atoms: C_1  and  C_2
REMARK    2  A    between atoms: C_7  and  C_14
REMARK    3  A    between atoms: C_14  and  C_16
REMARK    4  A    between atoms: C_14  and  N_26
REMARK    5  A    between atoms: N_20  and  C_21
REMARK    6  A    between atoms: N_26  and  C_27
REMARK    7  A    between atoms: N_26  and  C_35
REMARK    8  A    between atoms: C_27  and  C_28
REMARK    9  A    between atoms: C_35  and  C_36
REMARK                            x       y       z     vdW  Elec       q    Type
REMARK                         _______ _______ _______ _____ _____    ______ ____
ROOT
ATOM      1  C   UNL     1       0.358  -6.121   1.278  0.00  0.00    +0.163 C 
ENDROOT
BRANCH   1   8
ATOM      2  C   UNL     1       0.021   1.419   3.859  0.00  0.00    +0.044 C 
ATOM      3  C   UNL     1      -0.139  -0.018   3.435  0.00  0.00    -0.048 A 
ATOM      4  C   UNL     1      -1.366  -0.649   3.597  0.00  0.00    +0.004 A 
ATOM      5  C   UNL     1      -1.533  -1.951   3.219  0.00  0.00    +0.010 A 
ATOM      6  C   UNL     1      -0.459  -2.656   2.664  0.00  0.00    -0.001 A 
ATOM      7  C   UNL     1      -0.603  -4.052   2.248  0.00  0.00    +0.021 A 
ATOM      8  C   UNL     1       0.472  -4.684   1.716  0.00  0.00    +0.042 A 
ATOM      9  C   UNL     1       1.698  -4.000   1.571  0.00  0.00    +0.254 A 
ATOM     10  O   UNL     1       2.653  -4.587   1.091  0.00  0.00    -0.268 OA
ATOM     11  N   UNL     1       1.841  -2.718   1.951  0.00  0.00    -0.322 N 
ATOM     12  H   UNL     1       2.697  -2.278   1.837  0.00  0.00    +0.169 HD
ATOM     13  C   UNL     1       0.786  -2.019   2.498  0.00  0.00    +0.049 A 
ATOM     14  C   UNL     1       0.930  -0.691   2.885  0.00  0.00    +0.029 A 
ENDBRANCH   1   8
BRANCH   1  15
ATOM     15  C   UNL     1      -1.003  -6.652   1.647  0.00  0.00    +0.173 A 
ATOM     16  N   UNL     1      -1.415  -6.984   2.847  0.00  0.00    -0.111 NA
ATOM     17  N   UNL     1      -2.633  -7.391   2.751  0.00  0.00    -0.023 NA
ATOM     18  N   UNL     1      -3.010  -7.328   1.521  0.00  0.00    -0.044 NA
ATOM     19  N   UNL     1      -2.034  -6.872   0.811  0.00  0.00    -0.224 N 
BRANCH  19  20
ATOM     20  C   UNL     1      -2.046  -6.640  -0.636  0.00  0.00    +0.111 C 
ATOM     21  C   UNL     1      -3.187  -5.670  -1.007  0.00  0.00    +0.027 C 
ATOM     22  C   UNL     1      -3.716  -6.207  -2.360  0.00  0.00    +0.002 C 
ATOM     23  C   UNL     1      -3.634  -7.742  -2.175  0.00  0.00    +0.002 C 
ATOM     24  C   UNL     1      -2.330  -7.958  -1.379  0.00  0.00    +0.027 C 
ENDBRANCH  19  20
ENDBRANCH   1  15
BRANCH   1  25
ATOM     25  N   UNL     1       1.393  -6.921   1.946  0.00  0.00    -0.277 NA
BRANCH  25  26
ATOM     26  C   UNL     1       1.359  -8.316   1.487  0.00  0.00    +0.121 C 
BRANCH  26  27
ATOM     27  C   UNL     1       1.982  -8.409   0.118  0.00  0.00    -0.033 A 
ATOM     28  C   UNL     1       1.205  -8.211  -1.009  0.00  0.00    +0.008 A 
ATOM     29  C   UNL     1       1.775  -8.296  -2.265  0.00  0.00    +0.038 A 
ATOM     30  C   UNL     1       3.124  -8.580  -2.395  0.00  0.00    +0.123 A 
ATOM     31  C   UNL     1       3.901  -8.778  -1.265  0.00  0.00    +0.038 A 
ATOM     32  C   UNL     1       3.330  -8.687  -0.010  0.00  0.00    +0.008 A 
ATOM     33  F   UNL     1       3.682  -8.664  -3.622  0.00  0.00    -0.205 F 
ENDBRANCH  26  27
ENDBRANCH  25  26
BRANCH  25  34
ATOM     34  C   UNL     1       1.256  -6.844   3.407  0.00  0.00    +0.160 C 
BRANCH  34  35
ATOM     35  C   UNL     1       2.530  -7.320   4.056  0.00  0.00    +0.119 A 
ATOM     36  C   UNL     1       3.554  -6.540   4.446  0.00  0.00    +0.046 A 
ATOM     37  C   UNL     1       4.534  -7.395   5.001  0.00  0.00    +0.041 A 
ATOM     38  C   UNL     1       4.049  -8.647   4.918  0.00  0.00    +0.195 A 
ATOM     39  O   UNL     1       2.833  -8.595   4.350  0.00  0.00    -0.467 OA
ENDBRANCH  34  35
ENDBRANCH  25  34
ENDBRANCH   1  25
TORSDOF 8
