REMARK  Name = ZINC50118705
REMARK  11 active torsions:
REMARK  status: ('A' for Active; 'I' for Inactive)
REMARK    1  A    between atoms: C_1  and  C_2
REMARK    2  A    between atoms: C_2  and  C_4
REMARK    3  A    between atoms: C_2  and  N_14
REMARK    4  A    between atoms: C_4  and  C_6
REMARK    5  A    between atoms: C_4  and  O_13
REMARK    6  A    between atoms: N_17  and  C_18
REMARK    7  A    between atoms: C_18  and  C_19
REMARK    8  A    between atoms: N_21  and  C_22
REMARK    9  A    between atoms: C_22  and  C_23
REMARK   10  A    between atoms: C_23  and  C_24
REMARK   11  A    between atoms: C_23  and  C_25
REMARK                            x       y       z     vdW  Elec       q    Type
REMARK                         _______ _______ _______ _____ _____    ______ ____
ROOT
ATOM      1  N   UNL     1       0.711  -0.489   1.189  0.00  0.00    -0.294 N 
ATOM      2  C   UNL     1       2.054  -0.600   1.174  0.00  0.00    +0.300 C 
ATOM      3  O   UNL     1       2.677  -0.297   0.175  0.00  0.00    -0.253 OA
ATOM      4  N   UNL     1       2.706  -1.046   2.266  0.00  0.00    -0.291 N 
ATOM      5  H   UNL     1       0.213  -0.731   1.986  0.00  0.00    +0.151 HD
ATOM      6  H   UNL     1       2.208  -1.288   3.062  0.00  0.00    +0.151 HD
ENDROOT
BRANCH   1   8
ATOM      7  C   UNL     1      -0.019   1.526   0.010  0.00  0.00    +0.031 C 
ATOM      8  C   UNL     1       0.002  -0.004   0.002  0.00  0.00    +0.104 C 
BRANCH   8   9
ATOM      9  C   UNL     1      -1.433  -0.534   0.013  0.00  0.00    +0.164 C 
BRANCH   9  10
ATOM     10  C   UNL     1      -1.414  -2.036   0.129  0.00  0.00    -0.017 A 
ATOM     11  C   UNL     1      -1.331  -2.632   1.373  0.00  0.00    +0.007 A 
ATOM     12  C   UNL     1      -1.313  -4.010   1.479  0.00  0.00    +0.015 A 
ATOM     13  C   UNL     1      -1.378  -4.793   0.341  0.00  0.00    +0.018 A 
ATOM     14  C   UNL     1      -1.461  -4.196  -0.904  0.00  0.00    +0.015 A 
ATOM     15  C   UNL     1      -1.484  -2.818  -1.010  0.00  0.00    +0.007 A 
ATOM     16 BR   UNL     1      -1.353  -6.678   0.486  0.00  0.00    -0.050 Br
ENDBRANCH   9  10
BRANCH   9  17
ATOM     17  O   UNL     1      -2.137   0.021   1.126  0.00  0.00    -0.385 OA
ATOM     18  H   UNL     1      -1.747  -0.195   1.985  0.00  0.00    +0.210 HD
ENDBRANCH   9  17
ENDBRANCH   8   9
ENDBRANCH   1   8
BRANCH   4  19
ATOM     19  C   UNL     1       4.166  -1.166   2.249  0.00  0.00    +0.201 C 
BRANCH  19  20
ATOM     20  C   UNL     1       4.642  -1.684   3.582  0.00  0.00    +0.230 C 
ATOM     21  O   UNL     1       3.841  -1.928   4.459  0.00  0.00    -0.274 OA
ATOM     22  N   UNL     1       5.959  -1.875   3.799  0.00  0.00    -0.314 N 
ATOM     23  H   UNL     1       6.599  -1.679   3.097  0.00  0.00    +0.149 HD
BRANCH  22  24
ATOM     24  C   UNL     1       6.422  -2.378   5.094  0.00  0.00    +0.107 C 
BRANCH  24  25
ATOM     25  C   UNL     1       7.947  -2.503   5.077  0.00  0.00    -0.000 C 
ATOM     26  C   UNL     1       8.571  -1.114   4.936  0.00  0.00    +0.009 C 
ATOM     27  C   UNL     1       8.421  -3.145   6.383  0.00  0.00    +0.009 C 
ENDBRANCH  24  25
ENDBRANCH  22  24
ENDBRANCH  19  20
ENDBRANCH   4  19
TORSDOF 8
