REMARK  Name = ZINC20618077
REMARK  7 active torsions:
REMARK  status: ('A' for Active; 'I' for Inactive)
REMARK    1  A    between atoms: C_4  and  C_7
REMARK    2  A    between atoms: C_7  and  C_8
REMARK    3  A    between atoms: N_11  and  C_14
REMARK    4  A    between atoms: C_14  and  C_15
REMARK    5  A    between atoms: C_15  and  N_16
REMARK    6  A    between atoms: C_17  and  C_19
REMARK    7  A    between atoms: C_22  and  N_25
REMARK                            x       y       z     vdW  Elec       q    Type
REMARK                         _______ _______ _______ _____ _____    ______ ____
ROOT
ATOM      1  N   UNL     1       5.773   4.139   0.255  0.00  0.00    -0.313 N 
ATOM      2  C   UNL     1       4.541   4.680   0.332  0.00  0.00    +0.244 C 
ATOM      3  O   UNL     1       4.412   5.881   0.470  0.00  0.00    -0.270 OA
ATOM      4  H   UNL     1       5.890   3.052   0.130  0.00  0.00    +0.149 HD
ENDROOT
BRANCH   2   5
ATOM      5  C   UNL     1       3.349   3.815   0.248  0.00  0.00    +0.037 A 
ATOM      6  C   UNL     1       2.070   4.375   0.328  0.00  0.00    +0.015 A 
ATOM      7  C   UNL     1       0.960   3.565   0.249  0.00  0.00    +0.028 A 
ATOM      8  C   UNL     1       1.109   2.190   0.089  0.00  0.00    +0.067 A 
ATOM      9  C   UNL     1       2.381   1.629   0.015  0.00  0.00    +0.028 A 
ATOM     10  C   UNL     1       3.495   2.434   0.088  0.00  0.00    +0.015 A 
BRANCH   8  11
ATOM     11  N   UNL     1      -0.017   1.374   0.010  0.00  0.00    -0.226 NA
ATOM     12  C   UNL     1       0.056   0.162  -0.642  0.00  0.00    +0.155 C 
ATOM     13  N   UNL     1       1.084  -0.326  -1.332  0.00  0.00    -0.318 N 
ATOM     14  C   UNL     1       0.963  -1.662  -1.812  0.00  0.00    +0.108 C 
ATOM     15  C   UNL     1       1.860  -2.311  -2.847  0.00  0.00    +0.189 C 
ATOM     16  S   UNL     1       0.900  -3.859  -3.186  0.00  0.00    -0.028 S 
ATOM     17  O   UNL     1       1.568  -4.960  -2.585  0.00  0.00    -0.174 OA
ATOM     18  O   UNL     1       0.571  -3.908  -4.567  0.00  0.00    -0.174 OA
ATOM     19  C   UNL     1      -0.632  -3.475  -2.211  0.00  0.00    +0.182 C 
ATOM     20  C   UNL     1      -0.530  -1.945  -2.216  0.00  0.00    +0.097 C 
ATOM     21  S   UNL     1      -1.222  -1.100  -0.751  0.00  0.00    -0.084 S 
ATOM     22  H   UNL     1       1.998   0.251  -1.538  0.00  0.00    +0.148 HD
ENDBRANCH   8  11
ENDBRANCH   2   5
BRANCH   1  23
ATOM     23  C   UNL     1       6.957   4.997   0.338  0.00  0.00    +0.086 C 
BRANCH  23  24
ATOM     24  C   UNL     1       8.219   4.139   0.225  0.00  0.00    -0.060 C 
BRANCH  24  28
ATOM     25  C   UNL     1      11.951   6.091  -0.511  0.00  0.00    -0.010 C 
ATOM     26  C   UNL     1      11.825   5.126   0.671  0.00  0.00    -0.015 C 
ATOM     27  C   UNL     1      10.629   4.199   0.441  0.00  0.00    -0.078 C 
ATOM     28  N   UNL     1       9.406   5.000   0.308  0.00  0.00    +0.381 N 
ATOM     29  C   UNL     1       9.485   5.902  -0.849  0.00  0.00    -0.078 C 
ATOM     30  C   UNL     1      10.646   6.879  -0.657  0.00  0.00    -0.015 C 
ATOM     31  H   UNL     1       9.312   5.622   1.211  0.00  0.00    -0.082 HD
BRANCH  25  32
ATOM     32  C   UNL     1      13.109   7.059  -0.259  0.00  0.00    +0.038 C 
BRANCH  32  36
ATOM     33  C   UNL     1      13.682   9.521  -3.703  0.00  0.00    +0.000 A 
ATOM     34  C   UNL     1      12.821   9.925  -2.699  0.00  0.00    +0.000 A 
ATOM     35  C   UNL     1      12.636   9.128  -1.585  0.00  0.00    +0.003 A 
ATOM     36  C   UNL     1      13.311   7.927  -1.474  0.00  0.00    -0.047 A 
ATOM     37  C   UNL     1      14.176   7.526  -2.475  0.00  0.00    +0.003 A 
ATOM     38  C   UNL     1      14.357   8.320  -3.591  0.00  0.00    +0.000 A 
ENDBRANCH  32  36
ENDBRANCH  25  32
ENDBRANCH  24  28
ENDBRANCH  23  24
ENDBRANCH   1  23
TORSDOF 7
