REMARK  Name = ZINC50809261
REMARK  10 active torsions:
REMARK  status: ('A' for Active; 'I' for Inactive)
REMARK    1  A    between atoms: C_1  and  C_2
REMARK    2  A    between atoms: C_2  and  C_3
REMARK    3  A    between atoms: C_3  and  C_4
REMARK    4  A    between atoms: C_4  and  C_6
REMARK    5  A    between atoms: C_4  and  N_21
REMARK    6  A    between atoms: N_8  and  C_9
REMARK    7  A    between atoms: C_9  and  C_10
REMARK    8  A    between atoms: C_10  and  C_11
REMARK    9  A    between atoms: C_10  and  C_12
REMARK   10  A    between atoms: C_10  and  C_13
REMARK                            x       y       z     vdW  Elec       q    Type
REMARK                         _______ _______ _______ _____ _____    ______ ____
ROOT
ATOM      1  C   UNL     1       1.334  -2.514  -2.561  0.00  0.00    +0.233 C 
ATOM      2  O   UNL     1       2.492  -2.873  -2.600  0.00  0.00    -0.274 OA
ATOM      3  N   UNL     1       0.579  -2.552  -3.677  0.00  0.00    -0.313 N 
ATOM      4  H   UNL     1      -0.347  -2.266  -3.646  0.00  0.00    +0.149 HD
ENDROOT
BRANCH   1   5
ATOM      5  C   UNL     1       0.739  -2.027  -1.265  0.00  0.00    +0.160 C 
BRANCH   5   6
ATOM      6  N   UNL     1       1.548  -2.511  -0.144  0.00  0.00    -0.288 N 
ATOM      7  C   UNL     1       2.849  -2.168  -0.055  0.00  0.00    +0.298 C 
ATOM      8  O   UNL     1       3.350  -1.458  -0.904  0.00  0.00    -0.253 OA
ATOM      9  N   UNL     1       3.594  -2.613   0.977  0.00  0.00    -0.313 N 
ATOM     10  H   UNL     1       1.149  -3.078   0.534  0.00  0.00    +0.151 HD
ATOM     11  H   UNL     1       3.194  -3.180   1.655  0.00  0.00    +0.146 HD
ATOM     12  H   UNL     1       4.529  -2.366   1.041  0.00  0.00    +0.146 HD
ENDBRANCH   5   6
BRANCH   5  13
ATOM     13  C   UNL     1       0.718  -0.497  -1.257  0.00  0.00    +0.031 C 
BRANCH  13  15
ATOM     14  C   UNL     1      -0.019   1.526   0.010  0.00  0.00    +0.004 C 
ATOM     15  C   UNL     1       0.002  -0.004   0.002  0.00  0.00    -0.001 C 
ENDBRANCH  13  15
ENDBRANCH   5  13
ENDBRANCH   1   5
BRANCH   3  16
ATOM     16  C   UNL     1       1.157  -3.026  -4.937  0.00  0.00    +0.115 C 
BRANCH  16  17
ATOM     17  C   UNL     1       0.097  -2.968  -6.039  0.00  0.00    +0.006 C 
ATOM     18  C   UNL     1      -1.087  -3.858  -5.654  0.00  0.00    +0.017 C 
ATOM     19  C   UNL     1      -0.384  -1.525  -6.208  0.00  0.00    +0.017 C 
BRANCH  17  20
ATOM     20  C   UNL     1       0.692  -3.455  -7.335  0.00  0.00    -0.039 A 
ATOM     21  C   UNL     1       2.010  -3.869  -7.377  0.00  0.00    +0.006 A 
ATOM     22  C   UNL     1       2.557  -4.315  -8.565  0.00  0.00    +0.022 A 
ATOM     23  C   UNL     1       1.785  -4.349  -9.713  0.00  0.00    +0.059 A 
ATOM     24  C   UNL     1       0.465  -3.935  -9.670  0.00  0.00    +0.060 A 
ATOM     25  C   UNL     1      -0.083  -3.494  -8.479  0.00  0.00    +0.025 A 
ATOM     26 CL   UNL     1      -0.505  -3.977 -11.109  0.00  0.00    -0.082 Cl
ATOM     27 CL   UNL     1       2.472  -4.910 -11.206  0.00  0.00    -0.082 Cl
ENDBRANCH  17  20
ENDBRANCH  16  17
ENDBRANCH   3  16
TORSDOF 7
