REMARK  Name = ZINC32863240
REMARK  5 active torsions:
REMARK  status: ('A' for Active; 'I' for Inactive)
REMARK    1  A    between atoms: C_1  and  C_2
REMARK    2  A    between atoms: C_8  and  N_10
REMARK    3  A    between atoms: N_13  and  C_14
REMARK    4  A    between atoms: C_14  and  C_15
REMARK    5  A    between atoms: C_15  and  C_16
REMARK                            x       y       z     vdW  Elec       q    Type
REMARK                         _______ _______ _______ _____ _____    ______ ____
ROOT
ATOM      1  N   UNL     1      -4.753  -2.801  -2.580  0.00  0.00    -0.296 N 
ATOM      2  C   UNL     1      -3.594  -2.113  -2.587  0.00  0.00    +0.300 C 
ATOM      3  O   UNL     1      -3.081  -1.797  -3.643  0.00  0.00    -0.253 OA
ATOM      4  N   UNL     1      -3.004  -1.775  -1.423  0.00  0.00    -0.299 N 
ATOM      5  H   UNL     1      -5.217  -3.087  -1.625  0.00  0.00    +0.151 HD
ATOM      6  H   UNL     1      -3.469  -2.061  -0.468  0.00  0.00    +0.150 HD
ENDROOT
BRANCH   1  13
ATOM      7  C   UNL     1      -7.500  -2.047  -3.104  0.00  0.00    +0.009 C 
ATOM      8  C   UNL     1      -6.896  -3.354  -3.621  0.00  0.00    +0.006 C 
ATOM      9  C   UNL     1      -7.124  -4.464  -2.592  0.00  0.00    +0.005 C 
ATOM     10  C   UNL     1      -6.521  -5.771  -3.109  0.00  0.00    +0.000 C 
ATOM     11  C   UNL     1      -5.019  -5.585  -3.334  0.00  0.00    +0.002 C 
ATOM     12  C   UNL     1      -4.790  -4.476  -4.362  0.00  0.00    +0.022 C 
ATOM     13  C   UNL     1      -5.394  -3.169  -3.845  0.00  0.00    +0.077 C 
ENDBRANCH   1  13
BRANCH   4  14
ATOM     14  C   UNL     1      -1.745  -1.027  -1.430  0.00  0.00    +0.110 C 
BRANCH  14  15
ATOM     15  C   UNL     1      -1.293  -0.774   0.009  0.00  0.00    +0.054 C 
BRANCH  15  16
ATOM     16  C   UNL     1       0.002  -0.004   0.002  0.00  0.00    -0.041 A 
ATOM     17  C   UNL     1       1.207  -0.681  -0.012  0.00  0.00    +0.053 A 
ATOM     18  C   UNL     1       2.401   0.024  -0.019  0.00  0.00    +0.164 A 
ATOM     19  C   UNL     1       2.383   1.413  -0.013  0.00  0.00    +0.180 A 
ATOM     20  C   UNL     1       1.171   2.088   0.002  0.00  0.00    +0.086 A 
ATOM     21  C   UNL     1      -0.017   1.378   0.010  0.00  0.00    +0.027 A 
ATOM     22 CL   UNL     1       1.143   3.824   0.011  0.00  0.00    -0.080 Cl
ATOM     23  O   UNL     1       3.543   2.125  -0.025  0.00  0.00    -0.483 OA
ATOM     24  C   UNL     1       4.735   1.419   0.338  0.00  0.00    +0.270 C 
ATOM     25  C   UNL     1       4.746   0.080  -0.411  0.00  0.00    +0.270 C 
ATOM     26  O   UNL     1       3.579  -0.657  -0.029  0.00  0.00    -0.485 OA
ENDBRANCH  15  16
ENDBRANCH  14  15
ENDBRANCH   4  14
TORSDOF 4
