REMARK  Name = ZINC39276507
REMARK  6 active torsions:
REMARK  status: ('A' for Active; 'I' for Inactive)
REMARK    1  A    between atoms: C_1  and  C_2
REMARK    2  A    between atoms: C_5  and  O_31
REMARK    3  A    between atoms: C_7  and  O_30
REMARK    4  A    between atoms: C_13  and  C_15
REMARK    5  A    between atoms: C_15  and  C_16
REMARK    6  A    between atoms: C_16  and  N_18
REMARK                            x       y       z     vdW  Elec       q    Type
REMARK                         _______ _______ _______ _____ _____    ______ ____
ROOT
ATOM      1  C   UNL     1      -0.012   1.481  -0.002  0.00  0.00    +0.013 C 
ATOM      2  C   UNL     1      -0.023  -0.049   0.013  0.00  0.00    +0.037 C 
ATOM      3  C   UNL     1      -1.442  -0.538   0.157  0.00  0.00    +0.040 A 
ATOM      4  C   UNL     1      -2.447   0.131  -0.536  0.00  0.00    +0.127 A 
ATOM      5  C   UNL     1      -3.763  -0.289  -0.439  0.00  0.00    +0.091 A 
ATOM      6  C   UNL     1      -4.083  -1.382   0.352  0.00  0.00    +0.124 A 
ATOM      7  C   UNL     1      -3.085  -2.048   1.045  0.00  0.00    +0.092 A 
ATOM      8  C   UNL     1      -1.764  -1.624   0.950  0.00  0.00    +0.142 A 
ATOM      9  O   UNL     1      -0.819  -2.297   1.663  0.00  0.00    -0.425 OA
ATOM     10  C   UNL     1       0.474  -2.011   1.409  0.00  0.00    +0.317 C 
ATOM     11  O   UNL     1       1.315  -2.877   1.361  0.00  0.00    -0.250 OA
ATOM     12  C   UNL     1       0.820  -0.553   1.188  0.00  0.00    +0.114 C 
ENDROOT
BRANCH   6  13
ATOM     13  O   UNL     1      -5.373  -1.799   0.448  0.00  0.00    -0.507 OA
ATOM     14  H   UNL     1      -5.625  -2.455  -0.215  0.00  0.00    +0.292 HD
ENDBRANCH   6  13
BRANCH   4  15
ATOM     15  O   UNL     1      -2.134   1.202  -1.312  0.00  0.00    -0.506 OA
ATOM     16  H   UNL     1      -1.924   0.975  -2.229  0.00  0.00    +0.292 HD
ENDBRANCH   4  15
BRANCH  12  17
ATOM     17  C   UNL     1       0.494   0.256   2.446  0.00  0.00    +0.113 C 
BRANCH  17  18
ATOM     18  C   UNL     1       1.413  -0.163   3.564  0.00  0.00    +0.240 C 
ATOM     19  O   UNL     1       2.249  -1.025   3.374  0.00  0.00    -0.274 OA
BRANCH  18  20
ATOM     20  N   UNL     1       1.310   0.411   4.759  0.00  0.00    -0.147 NA
ATOM     21  C   UNL     1       2.187   0.119   5.716  0.00  0.00    +0.198 A 
ATOM     22  N   UNL     1       3.299  -0.646   5.557  0.00  0.00    -0.326 N 
ATOM     23  H   UNL     1       3.585  -1.069   4.732  0.00  0.00    +0.169 HD
ATOM     24  C   UNL     1       3.956  -0.720   6.780  0.00  0.00    +0.065 A 
ATOM     25  C   UNL     1       5.120  -1.354   7.194  0.00  0.00    +0.028 A 
ATOM     26  C   UNL     1       5.532  -1.245   8.507  0.00  0.00    +0.002 A 
ATOM     27  C   UNL     1       4.791  -0.505   9.413  0.00  0.00    +0.002 A 
ATOM     28  C   UNL     1       3.633   0.130   9.012  0.00  0.00    +0.028 A 
ATOM     29  C   UNL     1       3.209   0.026   7.694  0.00  0.00    +0.065 A 
ATOM     30  N   UNL     1       2.116   0.542   7.005  0.00  0.00    -0.326 N 
ATOM     31  H   UNL     1       1.422   1.105   7.381  0.00  0.00    +0.169 HD
ENDBRANCH  18  20
ENDBRANCH  17  18
ENDBRANCH  12  17
TORSDOF 5
