REMARK  Name = ZINC01884684
REMARK  1 active torsions:
REMARK  status: ('A' for Active; 'I' for Inactive)
REMARK    1  A    between atoms: C_1  and  C_12
REMARK                            x       y       z     vdW  Elec       q    Type
REMARK                         _______ _______ _______ _____ _____    ______ ____
ROOT
ATOM      1  C   UNL     1      -0.017   1.393   0.010  0.00  0.00    +0.076 A 
ATOM      2  C   UNL     1       1.188   2.103   0.002  0.00  0.00    +0.074 A 
ATOM      3  C   UNL     1       2.388   1.419  -0.013  0.00  0.00    +0.080 A 
ATOM      4  C   UNL     1       2.400   0.034  -0.021  0.00  0.00    +0.080 A 
ATOM      5  C   UNL     1       1.209  -0.675  -0.013  0.00  0.00    +0.080 A 
ATOM      6  C   UNL     1       0.002  -0.004   0.002  0.00  0.00    +0.074 A 
ATOM      7 CL   UNL     1      -1.488  -0.894   0.011  0.00  0.00    -0.081 Cl
ATOM      8 CL   UNL     1       1.235  -2.411  -0.022  0.00  0.00    -0.080 Cl
ATOM      9 CL   UNL     1       3.913  -0.817  -0.039  0.00  0.00    -0.080 Cl
ATOM     10 CL   UNL     1       3.885   2.298  -0.022  0.00  0.00    -0.080 Cl
ATOM     11 CL   UNL     1       1.175   3.839   0.011  0.00  0.00    -0.081 Cl
ENDROOT
BRANCH   1  12
ATOM     12  C   UNL     1      -1.304   2.117   0.020  0.00  0.00    +0.244 C 
ATOM     13  O   UNL     1      -1.828   2.410   1.077  0.00  0.00    -0.270 OA
ATOM     14  N   UNL     1      -1.896   2.454  -1.143  0.00  0.00    -0.325 N 
ATOM     15  H   UNL     1      -1.478   2.221  -1.986  0.00  0.00    +0.145 HD
ATOM     16  H   UNL     1      -2.742   2.930  -1.136  0.00  0.00    +0.145 HD
ENDBRANCH   1  12
TORSDOF 1
