REMARK  Name = ZINC39667663
REMARK  11 active torsions:
REMARK  status: ('A' for Active; 'I' for Inactive)
REMARK    1  A    between atoms: C_1  and  C_2
REMARK    2  A    between atoms: C_6  and  C_9
REMARK    3  A    between atoms: C_7  and  C_8
REMARK    4  A    between atoms: C_9  and  N_10
REMARK    5  A    between atoms: C_11  and  C_13
REMARK    6  A    between atoms: C_24  and  C_26
REMARK    7  A    between atoms: C_26  and  C_28
REMARK    8  A    between atoms: C_26  and  O_31
REMARK    9  A    between atoms: C_28  and  C_29
REMARK   10  A    between atoms: C_28  and  C_30
REMARK   11  A    between atoms: O_31  and  C_32
REMARK                            x       y       z     vdW  Elec       q    Type
REMARK                         _______ _______ _______ _____ _____    ______ ____
ROOT
ATOM      1  C   UNL     1      -3.732  -2.980   4.028  0.00  0.00    +0.100 C 
ATOM      2  C   UNL     1      -4.426  -4.014   3.112  0.00  0.00    +0.121 C 
ATOM      3  N   UNL     1      -4.324  -5.295   3.850  0.00  0.00    -0.297 N 
ATOM      4  C   UNL     1      -4.558  -4.925   5.266  0.00  0.00    +0.115 C 
ATOM      5  C   UNL     1      -3.824  -3.580   5.441  0.00  0.00    -0.004 C 
ATOM      6  C   UNL     1      -2.427  -3.813   6.008  0.00  0.00    -0.010 C 
ATOM      7  C   UNL     1      -2.544  -4.356   7.435  0.00  0.00    -0.082 C 
ATOM      8  N   UNL     1      -3.278  -3.396   8.267  0.00  0.00    +0.379 N 
ATOM      9  C   UNL     1      -4.651  -3.248   7.769  0.00  0.00    -0.082 C 
ATOM     10  C   UNL     1      -4.623  -2.658   6.356  0.00  0.00    -0.010 C 
ATOM     11  C   UNL     1      -4.075  -6.521   3.346  0.00  0.00    +0.257 C 
ATOM     12  O   UNL     1      -4.108  -7.492   4.072  0.00  0.00    -0.272 OA
ATOM     13  H   UNL     1      -3.302  -3.727   9.220  0.00  0.00    -0.086 HD
ATOM     14  H   UNL     1      -2.813  -2.501   8.236  0.00  0.00    -0.086 HD
ENDROOT
BRANCH   1  16
ATOM     15  N   UNL     1      -1.746  -1.573   3.588  0.00  0.00    -0.311 N 
ATOM     16  C   UNL     1      -2.291  -2.806   3.624  0.00  0.00    +0.218 C 
ATOM     17  O   UNL     1      -1.621  -3.774   3.333  0.00  0.00    -0.275 OA
ATOM     18  H   UNL     1      -2.281  -0.799   3.821  0.00  0.00    +0.149 HD
BRANCH  15  19
ATOM     19  C   UNL     1      -0.344  -1.404   3.196  0.00  0.00    +0.139 C 
BRANCH  19  25
ATOM     20  C   UNL     1       0.969   2.666   5.795  0.00  0.00    +0.044 C 
ATOM     21  C   UNL     1       0.642   2.007   4.480  0.00  0.00    -0.047 A 
ATOM     22  C   UNL     1       0.672   2.744   3.311  0.00  0.00    +0.003 A 
ATOM     23  C   UNL     1       0.373   2.139   2.104  0.00  0.00    +0.001 A 
ATOM     24  C   UNL     1       0.044   0.796   2.067  0.00  0.00    +0.005 A 
ATOM     25  C   UNL     1       0.015   0.059   3.236  0.00  0.00    -0.027 A 
ATOM     26  C   UNL     1       0.318   0.663   4.442  0.00  0.00    -0.043 A 
ATOM     27  C   UNL     1       0.292  -0.141   5.716  0.00  0.00    +0.044 C 
ENDBRANCH  19  25
ENDBRANCH  15  19
ENDBRANCH   1  16
BRANCH  11  28
ATOM     28  C   UNL     1      -3.757  -6.683   1.882  0.00  0.00    +0.261 C 
BRANCH  28  29
ATOM     29  C   UNL     1      -2.332  -7.218   1.727  0.00  0.00    +0.033 C 
ATOM     30  C   UNL     1      -2.034  -7.454   0.245  0.00  0.00    +0.011 C 
ATOM     31  C   UNL     1      -1.340  -6.197   2.289  0.00  0.00    +0.011 C 
ENDBRANCH  28  29
BRANCH  28  32
ATOM     32  O   UNL     1      -4.677  -7.604   1.294  0.00  0.00    -0.479 OA
BRANCH  32  33
ATOM     33  C   UNL     1      -5.092  -7.339   0.028  0.00  0.00    +0.122 A 
ATOM     34  C   UNL     1      -5.970  -8.202  -0.612  0.00  0.00    +0.045 A 
ATOM     35  C   UNL     1      -6.390  -7.929  -1.899  0.00  0.00    +0.004 A 
ATOM     36  C   UNL     1      -5.936  -6.797  -2.551  0.00  0.00    +0.000 A 
ATOM     37  C   UNL     1      -5.060  -5.936  -1.916  0.00  0.00    +0.004 A 
ATOM     38  C   UNL     1      -4.642  -6.201  -0.626  0.00  0.00    +0.045 A 
ENDBRANCH  32  33
ENDBRANCH  28  32
ENDBRANCH  11  28
TORSDOF 7
