REMARK  Name = ZINC21782709
REMARK  7 active torsions:
REMARK  status: ('A' for Active; 'I' for Inactive)
REMARK    1  A    between atoms: C_1  and  C_2
REMARK    2  A    between atoms: C_9  and  C_14
REMARK    3  A    between atoms: C_12  and  C_13
REMARK    4  A    between atoms: N_16  and  C_17
REMARK    5  A    between atoms: C_18  and  C_25
REMARK    6  A    between atoms: N_27  and  C_28
REMARK    7  A    between atoms: C_28  and  C_29
REMARK                            x       y       z     vdW  Elec       q    Type
REMARK                         _______ _______ _______ _____ _____    ______ ____
ROOT
ATOM      1  C   UNL     1      -2.397   6.365  -1.602  0.00  0.00    +0.085 A 
ATOM      2  C   UNL     1      -1.364   5.665  -2.202  0.00  0.00    +0.069 A 
ATOM      3  C   UNL     1      -0.285   6.440  -2.813  0.00  0.00    -0.023 A 
ATOM      4  C   UNL     1      -0.424   7.776  -2.729  0.00  0.00    -0.004 A 
ATOM      5  S   UNL     1      -1.948   8.018  -1.849  0.00  0.00    -0.077 S 
ATOM      6  C   UNL     1       0.721   8.504  -3.380  0.00  0.00    +0.043 C 
ATOM      7  C   UNL     1       1.835   7.437  -3.510  0.00  0.00    +0.010 C 
ATOM      8  C   UNL     1       1.012   6.134  -3.562  0.00  0.00    +0.037 C 
ENDROOT
BRANCH   1  11
ATOM      9  C   UNL     1      -4.424   6.709  -0.431  0.00  0.00    +0.284 C 
ATOM     10  O   UNL     1      -4.259   7.910  -0.517  0.00  0.00    -0.266 OA
ATOM     11  N   UNL     1      -3.517   5.865  -0.960  0.00  0.00    -0.273 N 
ATOM     12  H   UNL     1      -3.666   4.778  -0.881  0.00  0.00    +0.156 HD
BRANCH   9  21
ATOM     13  C   UNL     1      -8.142   0.794   1.665  0.00  0.00    +0.044 C 
ATOM     14  C   UNL     1      -8.028   2.296   1.612  0.00  0.00    -0.044 A 
ATOM     15  C   UNL     1      -9.018   3.080   2.188  0.00  0.00    +0.004 A 
ATOM     16  C   UNL     1      -8.930   4.444   2.148  0.00  0.00    +0.015 A 
ATOM     17  C   UNL     1      -7.839   5.048   1.525  0.00  0.00    +0.064 A 
ATOM     18  C   UNL     1      -7.707   6.516   1.460  0.00  0.00    +0.193 A 
ATOM     19  O   UNL     1      -8.545   7.254   1.948  0.00  0.00    -0.287 OA
ATOM     20  C   UNL     1      -6.518   7.046   0.779  0.00  0.00    +0.103 A 
ATOM     21  C   UNL     1      -5.622   6.174   0.256  0.00  0.00    +0.194 A 
ATOM     22  O   UNL     1      -5.781   4.844   0.332  0.00  0.00    -0.450 OA
ATOM     23  C   UNL     1      -6.832   4.261   0.939  0.00  0.00    +0.143 A 
ATOM     24  C   UNL     1      -6.942   2.875   0.992  0.00  0.00    -0.005 A 
ATOM     25  C   UNL     1      -5.876   2.009   0.371  0.00  0.00    +0.048 C 
ENDBRANCH   9  21
ENDBRANCH   1  11
BRANCH   2  26
ATOM     26  C   UNL     1      -1.349   4.199  -2.219  0.00  0.00    +0.247 C 
ATOM     27  O   UNL     1      -1.870   3.596  -3.139  0.00  0.00    -0.270 OA
ATOM     28  N   UNL     1      -0.759   3.519  -1.216  0.00  0.00    -0.309 N 
ATOM     29  H   UNL     1      -0.289   4.064  -0.384  0.00  0.00    +0.149 HD
BRANCH  28  30
ATOM     30  C   UNL     1      -0.745   2.054  -1.233  0.00  0.00    +0.136 C 
BRANCH  30  31
ATOM     31  C   UNL     1      -0.019   1.537   0.011  0.00  0.00    +0.135 C 
ATOM     32  C   UNL     1       0.002  -0.004   0.002  0.00  0.00    +0.035 C 
ATOM     33  C   UNL     1       1.508  -0.363   0.039  0.00  0.00    +0.031 C 
ATOM     34  C   UNL     1       2.138   0.935   0.603  0.00  0.00    +0.160 C 
ATOM     35  O   UNL     1       1.348   1.983  -0.000  0.00  0.00    -0.375 OA
ENDBRANCH  30  31
ENDBRANCH  28  30
ENDBRANCH   2  26
TORSDOF 5
