REMARK  Name = ZINC39689255
REMARK  8 active torsions:
REMARK  status: ('A' for Active; 'I' for Inactive)
REMARK    1  A    between atoms: C_1  and  C_2
REMARK    2  A    between atoms: C_2  and  O_3
REMARK    3  A    between atoms: O_3  and  C_4
REMARK    4  A    between atoms: C_8  and  C_10
REMARK    5  A    between atoms: C_14  and  C_23
REMARK    6  A    between atoms: N_25  and  C_26
REMARK    7  A    between atoms: C_26  and  C_27
REMARK    8  A    between atoms: N_30  and  C_33
REMARK                            x       y       z     vdW  Elec       q    Type
REMARK                         _______ _______ _______ _____ _____    ______ ____
ROOT
ATOM      1  C   UNL     1      -4.293  -4.372   0.009  0.00  0.00    +0.247 C 
ATOM      2  O   UNL     1      -5.269  -3.658   0.127  0.00  0.00    -0.270 OA
ATOM      3  N   UNL     1      -4.444  -5.707  -0.101  0.00  0.00    -0.296 N 
ATOM      4  C   UNL     1      -3.383  -6.742  -0.123  0.00  0.00    +0.121 C 
ATOM      5  C   UNL     1      -3.959  -7.909   0.710  0.00  0.00    +0.100 C 
ATOM      6  C   UNL     1      -5.485  -7.727   0.637  0.00  0.00    -0.004 C 
ATOM      7  C   UNL     1      -5.708  -6.472  -0.219  0.00  0.00    +0.115 C 
ATOM      8  C   UNL     1      -6.130  -8.941  -0.025  0.00  0.00    -0.010 C 
ATOM      9  C   UNL     1      -7.651  -8.763  -0.033  0.00  0.00    -0.082 C 
ATOM     10  N   UNL     1      -8.136  -8.616   1.345  0.00  0.00    +0.379 N 
ATOM     11  C   UNL     1      -7.582  -7.395   1.943  0.00  0.00    -0.082 C 
ATOM     12  C   UNL     1      -6.059  -7.515   2.034  0.00  0.00    -0.010 C 
ATOM     13  H   UNL     1      -9.144  -8.559   1.341  0.00  0.00    -0.086 HD
ATOM     14  H   UNL     1      -7.849  -9.415   1.888  0.00  0.00    -0.086 HD
ENDROOT
BRANCH   1  19
ATOM     15  C   UNL     1      -0.624  -3.887  -0.654  0.00  0.00    +0.121 A 
ATOM     16  C   UNL     1      -0.405  -2.654  -0.055  0.00  0.00    +0.046 A 
ATOM     17  C   UNL     1      -1.445  -1.984   0.561  0.00  0.00    +0.004 A 
ATOM     18  C   UNL     1      -2.709  -2.537   0.585  0.00  0.00    +0.013 A 
ATOM     19  C   UNL     1      -2.940  -3.776  -0.015  0.00  0.00    +0.040 A 
ATOM     20  C   UNL     1      -1.890  -4.448  -0.642  0.00  0.00    +0.058 A 
BRANCH  15  21
ATOM     21  O   UNL     1       0.403  -4.541  -1.258  0.00  0.00    -0.492 OA
BRANCH  21  23
ATOM     22  C   UNL     1       2.704  -4.784  -1.957  0.00  0.00    +0.048 C 
ATOM     23  C   UNL     1       1.682  -3.904  -1.234  0.00  0.00    +0.225 C 
ENDBRANCH  21  23
ENDBRANCH  15  21
ENDBRANCH   1  19
BRANCH   5  24
ATOM     24  C   UNL     1      -3.485  -7.819   2.137  0.00  0.00    +0.218 C 
ATOM     25  O   UNL     1      -3.330  -6.735   2.658  0.00  0.00    -0.275 OA
ATOM     26  N   UNL     1      -3.234  -8.944   2.836  0.00  0.00    -0.315 N 
ATOM     27  H   UNL     1      -3.358  -9.812   2.419  0.00  0.00    +0.149 HD
BRANCH  26  28
ATOM     28  C   UNL     1      -2.773  -8.857   4.223  0.00  0.00    +0.107 C 
BRANCH  28  29
ATOM     29  C   UNL     1      -2.564 -10.267   4.781  0.00  0.00    +0.003 C 
ATOM     30  C   UNL     1      -3.910 -10.993   4.855  0.00  0.00    -0.014 C 
ATOM     31  C   UNL     1      -3.705 -12.372   5.487  0.00  0.00    -0.078 C 
ATOM     32  N   UNL     1      -3.155 -12.218   6.839  0.00  0.00    +0.382 N 
ATOM     33  C   UNL     1      -1.832 -11.586   6.769  0.00  0.00    -0.078 C 
ATOM     34  C   UNL     1      -1.964 -10.178   6.187  0.00  0.00    -0.014 C 
ATOM     35  H   UNL     1      -3.773 -11.640   7.389  0.00  0.00    -0.081 HD
BRANCH  32  36
ATOM     36  C   UNL     1      -3.033 -13.539   7.470  0.00  0.00    -0.069 C 
ATOM     37  C   UNL     1      -4.427 -14.181   7.623  0.00  0.00    -0.015 C 
ATOM     38  C   UNL     1      -4.356 -14.922   8.982  0.00  0.00    -0.002 C 
ATOM     39  C   UNL     1      -3.521 -13.954   9.856  0.00  0.00    -0.002 C 
ATOM     40  C   UNL     1      -2.457 -13.394   8.889  0.00  0.00    -0.015 C 
ENDBRANCH  32  36
ENDBRANCH  28  29
ENDBRANCH  26  28
ENDBRANCH   5  24
TORSDOF 7
