REMARK  Name = ZINC40371682
REMARK  11 active torsions:
REMARK  status: ('A' for Active; 'I' for Inactive)
REMARK    1  A    between atoms: C_3  and  C_10
REMARK    2  A    between atoms: C_5  and  N_7
REMARK    3  A    between atoms: N_12  and  C_13
REMARK    4  A    between atoms: N_12  and  C_20
REMARK    5  A    between atoms: C_13  and  C_14
REMARK    6  A    between atoms: C_14  and  N_15
REMARK    7  A    between atoms: C_20  and  C_21
REMARK    8  A    between atoms: N_23  and  C_24
REMARK    9  A    between atoms: N_23  and  C_32
REMARK   10  A    between atoms: C_24  and  C_25
REMARK   11  A    between atoms: C_32  and  C_33
REMARK                            x       y       z     vdW  Elec       q    Type
REMARK                         _______ _______ _______ _____ _____    ______ ____
ROOT
ATOM      1  C   UNL     1       3.665   2.168   0.266  0.00  0.00    +0.247 C 
ATOM      2  O   UNL     1       2.623   1.546   0.340  0.00  0.00    -0.270 OA
ATOM      3  N   UNL     1       3.641   3.504   0.087  0.00  0.00    -0.290 N 
ENDROOT
BRANCH   1   6
ATOM      4  C   UNL     1       7.120   0.929  -0.532  0.00  0.00    +0.003 A 
ATOM      5  C   UNL     1       5.915   1.593  -0.637  0.00  0.00    +0.013 A 
ATOM      6  C   UNL     1       4.958   1.459   0.370  0.00  0.00    +0.039 A 
ATOM      7  C   UNL     1       5.227   0.652   1.478  0.00  0.00    +0.045 A 
ATOM      8  C   UNL     1       6.436  -0.006   1.569  0.00  0.00    +0.127 A 
ATOM      9  C   UNL     1       7.380   0.132   0.567  0.00  0.00    +0.033 A 
BRANCH   8  10
ATOM     10  N   UNL     1       6.723  -0.861   2.743  0.00  0.00    +0.056 N 
ATOM     11  O   UNL     1       5.899  -0.983   3.619  0.00  0.00    -0.126 OA
ATOM     12  O   UNL     1       7.782  -1.439   2.825  0.00  0.00    -0.126 OA
ENDBRANCH   8  10
ENDBRANCH   1   6
BRANCH   3  13
ATOM     13  C   UNL     1       2.362   4.218   0.072  0.00  0.00    +0.090 C 
BRANCH  13  14
ATOM     14  C   UNL     1       1.974   4.599   1.502  0.00  0.00    -0.060 C 
BRANCH  14  15
ATOM     15  N   UNL     1       0.692   5.316   1.487  0.00  0.00    +0.381 N 
ATOM     16  C   UNL     1      -0.407   4.391   1.105  0.00  0.00    -0.079 C 
ATOM     17  C   UNL     1      -1.670   5.090   1.668  0.00  0.00    -0.020 C 
ATOM     18  C   UNL     1      -1.168   5.688   3.003  0.00  0.00    -0.020 C 
ATOM     19  C   UNL     1       0.360   5.797   2.845  0.00  0.00    -0.079 C 
ATOM     20  H   UNL     1       0.734   6.092   0.844  0.00  0.00    -0.082 HD
ENDBRANCH  14  15
ENDBRANCH  13  14
ENDBRANCH   3  13
BRANCH   3  21
ATOM     21  C   UNL     1       4.894   4.241  -0.092  0.00  0.00    +0.203 C 
BRANCH  21  22
ATOM     22  C   UNL     1       5.217   4.334  -1.561  0.00  0.00    +0.234 C 
ATOM     23  O   UNL     1       4.473   3.833  -2.378  0.00  0.00    -0.274 OA
ATOM     24  N   UNL     1       6.332   4.973  -1.967  0.00  0.00    -0.291 N 
BRANCH  24  25
ATOM     25  C   UNL     1       6.645   5.064  -3.395  0.00  0.00    +0.143 C 
BRANCH  25  26
ATOM     26  C   UNL     1       6.024   6.312  -3.968  0.00  0.00    -0.030 A 
ATOM     27  C   UNL     1       4.742   6.272  -4.483  0.00  0.00    +0.008 A 
ATOM     28  C   UNL     1       4.172   7.416  -5.008  0.00  0.00    +0.038 A 
ATOM     29  C   UNL     1       4.885   8.603  -5.018  0.00  0.00    +0.123 A 
ATOM     30  C   UNL     1       6.170   8.641  -4.502  0.00  0.00    +0.038 A 
ATOM     31  C   UNL     1       6.736   7.497  -3.973  0.00  0.00    +0.008 A 
ATOM     32  F   UNL     1       4.329   9.722  -5.531  0.00  0.00    -0.205 F 
ENDBRANCH  25  26
ENDBRANCH  24  25
BRANCH  24  33
ATOM     33  C   UNL     1       7.230   5.578  -0.980  0.00  0.00    +0.150 C 
BRANCH  33  34
ATOM     34  C   UNL     1       8.266   4.568  -0.559  0.00  0.00    +0.007 A 
ATOM     35  C   UNL     1       9.488   4.325  -1.093  0.00  0.00    +0.013 A 
ATOM     36  C   UNL     1      10.279   3.338  -0.535  0.00  0.00    +0.008 A 
ATOM     37  C   UNL     1       9.809   2.642   0.528  0.00  0.00    +0.045 A 
ATOM     38  S   UNL     1       8.205   3.386   0.777  0.00  0.00    -0.100 S 
ENDBRANCH  33  34
ENDBRANCH  24  33
ENDBRANCH  21  22
ENDBRANCH   3  21
TORSDOF 11
