REMARK  Name = ZINC06300723
REMARK  13 active torsions:
REMARK  status: ('A' for Active; 'I' for Inactive)
REMARK    1  A    between atoms: C_1  and  C_2
REMARK    2  A    between atoms: C_4  and  C_40
REMARK    3  A    between atoms: C_9  and  C_14
REMARK    4  A    between atoms: C_14  and  C_16
REMARK    5  A    between atoms: C_14  and  N_70
REMARK    6  A    between atoms: N_20  and  C_21
REMARK    7  A    between atoms: C_21  and  C_22
REMARK    8  A    between atoms: C_22  and  O_23
REMARK    9  A    between atoms: O_23  and  C_24
REMARK   10  A    between atoms: C_25  and  C_26
REMARK   11  A    between atoms: C_25  and  N_70
REMARK   12  A    between atoms: C_32  and  C_33
REMARK   13  A    between atoms: C_32  and  N_70
REMARK                            x       y       z     vdW  Elec       q    Type
REMARK                         _______ _______ _______ _____ _____    ______ ____
ROOT
ATOM      1  C   UNL     1       3.052  -1.918  -2.030  0.00  0.00    +0.039 C 
ENDROOT
BRANCH   1  10
ATOM      2  C   UNL     1      -4.275  -1.636  -0.668  0.00  0.00    +0.044 C 
ATOM      3  C   UNL     1      -3.008  -1.002  -1.183  0.00  0.00    -0.050 A 
ATOM      4  C   UNL     1      -3.045   0.286  -1.700  0.00  0.00    +0.008 A 
ATOM      5  C   UNL     1      -1.899   0.886  -2.175  0.00  0.00    -0.026 A 
ATOM      6  C   UNL     1      -0.692   0.196  -2.137  0.00  0.00    +0.052 A 
ATOM      7  C   UNL     1      -0.659  -1.110  -1.612  0.00  0.00    -0.001 A 
ATOM      8  C   UNL     1      -1.835  -1.699  -1.135  0.00  0.00    +0.013 A 
ATOM      9  C   UNL     1       0.617  -1.828  -1.576  0.00  0.00    +0.017 A 
ATOM     10  C   UNL     1       1.724  -1.207  -2.052  0.00  0.00    +0.011 A 
ATOM     11  C   UNL     1       1.637   0.106  -2.563  0.00  0.00    +0.251 A 
ATOM     12  O   UNL     1       2.646   0.648  -2.982  0.00  0.00    -0.268 OA
ATOM     13  N   UNL     1       0.470   0.771  -2.606  0.00  0.00    -0.322 N 
ATOM     14  H   UNL     1       0.446   1.671  -2.967  0.00  0.00    +0.169 HD
ATOM     15  C   UNL     1      -1.953   2.285  -2.733  0.00  0.00    +0.046 C 
ENDBRANCH   1  10
BRANCH   1  16
ATOM     16  C   UNL     1       3.445  -2.292  -3.435  0.00  0.00    +0.143 A 
ATOM     17  N   UNL     1       3.899  -1.485  -4.362  0.00  0.00    -0.115 NA
ATOM     18  N   UNL     1       4.120  -2.181  -5.424  0.00  0.00    -0.023 NA
ATOM     19  N   UNL     1       3.819  -3.412  -5.197  0.00  0.00    -0.044 NA
ATOM     20  N   UNL     1       3.405  -3.522  -3.981  0.00  0.00    -0.228 N 
BRANCH  20  21
ATOM     21  C   UNL     1       2.968  -4.754  -3.318  0.00  0.00    +0.175 C 
BRANCH  21  22
ATOM     22  C   UNL     1       1.464  -4.941  -3.531  0.00  0.00    +0.183 C 
BRANCH  22  23
ATOM     23  O   UNL     1       1.038  -6.143  -2.885  0.00  0.00    -0.381 OA
ATOM     24  C   UNL     1      -0.358  -6.413  -3.023  0.00  0.00    +0.194 C 
ENDBRANCH  22  23
ENDBRANCH  21  22
ENDBRANCH  20  21
ENDBRANCH   1  16
BRANCH   1  25
ATOM     25  N   UNL     1       4.068  -1.005  -1.465  0.00  0.00    +0.395 N 
ATOM     26  H   UNL     1       3.904  -0.059  -1.828  0.00  0.00    -0.079 HD
BRANCH  25  27
ATOM     27  C   UNL     1       3.961  -0.979   0.009  0.00  0.00    -0.041 C 
BRANCH  27  28
ATOM     28  C   UNL     1       2.767  -0.144   0.392  0.00  0.00    -0.064 A 
ATOM     29  C   UNL     1       1.572  -0.757   0.720  0.00  0.00    +0.002 A 
ATOM     30  C   UNL     1       0.476   0.009   1.071  0.00  0.00    +0.000 A 
ATOM     31  C   UNL     1       0.575   1.387   1.094  0.00  0.00    +0.000 A 
ATOM     32  C   UNL     1       1.770   2.000   0.767  0.00  0.00    +0.000 A 
ATOM     33  C   UNL     1       2.865   1.234   0.415  0.00  0.00    +0.002 A 
ENDBRANCH  27  28
ENDBRANCH  25  27
BRANCH  25  34
ATOM     34  C   UNL     1       5.421  -1.445  -1.866  0.00  0.00    -0.041 C 
BRANCH  34  35
ATOM     35  C   UNL     1       6.415  -0.384  -1.469  0.00  0.00    -0.064 A 
ATOM     36  C   UNL     1       6.719   0.641  -2.345  0.00  0.00    +0.004 A 
ATOM     37  C   UNL     1       7.626   1.617  -1.980  0.00  0.00    +0.038 A 
ATOM     38  C   UNL     1       8.239   1.562  -0.740  0.00  0.00    +0.123 A 
ATOM     39  C   UNL     1       7.938   0.532   0.136  0.00  0.00    +0.038 A 
ATOM     40  C   UNL     1       7.026  -0.440  -0.230  0.00  0.00    +0.004 A 
ATOM     41  F   UNL     1       9.130   2.513  -0.383  0.00  0.00    -0.205 F 
ENDBRANCH  34  35
ENDBRANCH  25  34
ENDBRANCH   1  25
TORSDOF 10
