REMARK  Name = ZINC41019567
REMARK  11 active torsions:
REMARK  status: ('A' for Active; 'I' for Inactive)
REMARK    1  A    between atoms: C_1  and  C_2
REMARK    2  A    between atoms: C_2  and  C_3
REMARK    3  A    between atoms: C_3  and  S_4
REMARK    4  A    between atoms: S_4  and  C_5
REMARK    5  A    between atoms: C_10  and  C_27
REMARK    6  A    between atoms: C_12  and  C_16
REMARK    7  A    between atoms: C_13  and  C_15
REMARK    8  A    between atoms: N_18  and  C_19
REMARK    9  A    between atoms: C_23  and  C_26
REMARK   10  A    between atoms: C_24  and  C_25
REMARK   11  A    between atoms: C_31  and  O_33
REMARK                            x       y       z     vdW  Elec       q    Type
REMARK                         _______ _______ _______ _____ _____    ______ ____
ROOT
ATOM      1  C   UNL     1       1.785  -2.775   2.602  0.00  0.00    +0.210 A 
ATOM      2  N   UNL     1       2.258  -1.913   3.515  0.00  0.00    -0.187 NA
ATOM      3  C   UNL     1       2.816  -2.575   4.492  0.00  0.00    +0.219 A 
ATOM      4  N   UNL     1       2.705  -3.899   4.221  0.00  0.00    -0.220 N 
ATOM      5  N   UNL     1       2.036  -4.003   3.002  0.00  0.00    -0.141 NA
ATOM      6  C   UNL     1       3.209  -4.949   5.102  0.00  0.00    +0.177 C 
ATOM      7  C   UNL     1       4.100  -4.339   6.150  0.00  0.00    +0.060 C 
ATOM      8  C   UNL     1       4.173  -3.018   6.371  0.00  0.00    +0.018 C 
ATOM      9  N   UNL     1       3.440  -2.113   5.642  0.00  0.00    -0.287 N 
ATOM     10  C   UNL     1       5.088  -2.510   7.455  0.00  0.00    +0.061 C 
ATOM     11  H   UNL     1       3.362  -1.187   5.920  0.00  0.00    +0.155 HD
ENDROOT
BRANCH   6  12
ATOM     12  C   UNL     1       2.051  -5.645   5.769  0.00  0.00    -0.015 A 
ATOM     13  C   UNL     1       1.179  -4.925   6.565  0.00  0.00    +0.006 A 
ATOM     14  C   UNL     1       0.115  -5.560   7.179  0.00  0.00    +0.004 A 
ATOM     15  C   UNL     1      -0.078  -6.916   7.000  0.00  0.00    +0.045 A 
ATOM     16  C   UNL     1       0.795  -7.640   6.202  0.00  0.00    +0.117 A 
ATOM     17  C   UNL     1       1.858  -6.999   5.582  0.00  0.00    +0.051 A 
BRANCH  16  18
ATOM     18  O   UNL     1       0.607  -8.974   6.023  0.00  0.00    -0.507 OA
ATOM     19  H   UNL     1       0.046  -9.194   5.267  0.00  0.00    +0.292 HD
ENDBRANCH  16  18
ENDBRANCH   6  12
BRANCH   7  20
ATOM     20  C   UNL     1       4.899  -5.199   6.940  0.00  0.00    +0.248 C 
ATOM     21  O   UNL     1       5.900  -5.705   6.467  0.00  0.00    -0.270 OA
ATOM     22  N   UNL     1       4.552  -5.458   8.216  0.00  0.00    -0.281 N 
ATOM     23  H   UNL     1       3.722  -5.105   8.574  0.00  0.00    +0.155 HD
BRANCH  22  24
ATOM     24  C   UNL     1       5.387  -6.235   9.025  0.00  0.00    +0.037 A 
ATOM     25  C   UNL     1       6.112  -7.283   8.472  0.00  0.00    +0.023 A 
ATOM     26  C   UNL     1       6.936  -8.049   9.273  0.00  0.00    +0.002 A 
ATOM     27  C   UNL     1       7.040  -7.773  10.624  0.00  0.00    +0.004 A 
ATOM     28  C   UNL     1       6.320  -6.731  11.178  0.00  0.00    -0.046 A 
ATOM     29  C   UNL     1       5.498  -5.958  10.381  0.00  0.00    -0.026 A 
ATOM     30  C   UNL     1       4.718  -4.818  10.984  0.00  0.00    +0.046 C 
ATOM     31  C   UNL     1       6.436  -6.434  12.650  0.00  0.00    +0.044 C 
ENDBRANCH  22  24
ENDBRANCH   7  20
BRANCH   1  32
ATOM     32  S   UNL     1       0.954  -2.334   1.112  0.00  0.00    -0.084 S 
BRANCH  32  33
ATOM     33  C   UNL     1       0.926  -0.520   1.146  0.00  0.00    +0.077 C 
BRANCH  33  35
ATOM     34  C   UNL     1       0.199   1.532  -0.080  0.00  0.00    +0.004 C 
ATOM     35  C   UNL     1       0.223   0.002  -0.108  0.00  0.00    +0.008 C 
ENDBRANCH  33  35
ENDBRANCH  32  33
ENDBRANCH   1  32
TORSDOF 7
