REMARK  Name = ZINC36019060
REMARK  12 active torsions:
REMARK  status: ('A' for Active; 'I' for Inactive)
REMARK    1  A    between atoms: C_1  and  C_2
REMARK    2  A    between atoms: C_2  and  O_3
REMARK    3  A    between atoms: O_3  and  C_4
REMARK    4  A    between atoms: C_4  and  C_6
REMARK    5  A    between atoms: C_7  and  C_24
REMARK    6  A    between atoms: N_8  and  C_21
REMARK    7  A    between atoms: C_12  and  C_14
REMARK    8  A    between atoms: C_17  and  C_20
REMARK    9  A    between atoms: C_21  and  C_22
REMARK   10  A    between atoms: C_24  and  N_25
REMARK   11  A    between atoms: C_29  and  C_32
REMARK   12  A    between atoms: C_33  and  C_35
REMARK                            x       y       z     vdW  Elec       q    Type
REMARK                         _______ _______ _______ _____ _____    ______ ____
ROOT
ATOM      1  C   UNL     1      -0.474  -2.048  -0.616  0.00  0.00    +0.080 C 
ATOM      2  C   UNL     1      -1.119  -3.229  -0.731  0.00  0.00    +0.041 C 
ATOM      3  N   UNL     1      -2.476  -3.281  -0.868  0.00  0.00    -0.254 N 
ATOM      4  C   UNL     1      -3.261  -2.197  -0.899  0.00  0.00    +0.307 C 
ATOM      5  O   UNL     1      -4.462  -2.344  -1.025  0.00  0.00    -0.252 OA
ATOM      6  N   UNL     1      -2.765  -0.949  -0.797  0.00  0.00    -0.288 N 
ATOM      7  C   UNL     1      -1.310  -0.784  -0.639  0.00  0.00    +0.144 C 
ATOM      8  H   UNL     1      -3.352  -0.177  -0.822  0.00  0.00    +0.151 HD
ENDROOT
BRANCH   7   9
ATOM      9  C   UNL     1      -0.819   0.077  -1.774  0.00  0.00    -0.022 A 
ATOM     10  C   UNL     1      -1.223  -0.189  -3.068  0.00  0.00    +0.006 A 
ATOM     11  C   UNL     1      -0.773   0.601  -4.109  0.00  0.00    +0.004 A 
ATOM     12  C   UNL     1       0.082   1.657  -3.856  0.00  0.00    -0.050 A 
ATOM     13  C   UNL     1       0.486   1.924  -2.561  0.00  0.00    +0.004 A 
ATOM     14  C   UNL     1       0.032   1.137  -1.519  0.00  0.00    +0.006 A 
ATOM     15  C   UNL     1       0.574   2.518  -4.991  0.00  0.00    +0.044 C 
ENDBRANCH   7   9
BRANCH   1  16
ATOM     16  C   UNL     1       0.932  -1.992  -0.473  0.00  0.00    +0.339 C 
ATOM     17  O   UNL     1       1.424  -1.750   0.613  0.00  0.00    -0.245 OA
BRANCH  16  18
ATOM     18  O   UNL     1       1.727  -2.209  -1.542  0.00  0.00    -0.462 OA
BRANCH  18  20
ATOM     19  C   UNL     1       3.870  -2.409  -2.641  0.00  0.00    +0.048 C 
ATOM     20  C   UNL     1       3.138  -2.138  -1.325  0.00  0.00    +0.229 C 
ENDBRANCH  18  20
ENDBRANCH  16  18
ENDBRANCH   1  16
BRANCH   3  21
ATOM     21  C   UNL     1      -3.109  -4.597  -0.987  0.00  0.00    +0.141 C 
BRANCH  21  22
ATOM     22  C   UNL     1      -3.466  -5.109   0.385  0.00  0.00    -0.015 C 
ATOM     23  C   UNL     1      -4.699  -5.466   0.650  0.00  0.00    +0.005 C 
ENDBRANCH  21  22
ENDBRANCH   3  21
BRANCH   2  24
ATOM     24  C   UNL     1      -0.326  -4.511  -0.707  0.00  0.00    +0.136 C 
BRANCH  24  25
ATOM     25  N   UNL     1      -0.636  -5.256   0.520  0.00  0.00    -0.294 NA
ATOM     26  C   UNL     1      -0.172  -4.529   1.709  0.00  0.00    +0.104 C 
ATOM     27  C   UNL     1      -0.672  -5.244   2.969  0.00  0.00    +0.124 C 
ATOM     28  N   UNL     1      -0.256  -6.654   2.901  0.00  0.00    -0.292 N 
ATOM     29  C   UNL     1      -0.566  -7.412   1.679  0.00  0.00    +0.087 C 
ATOM     30  C   UNL     1      -0.071  -6.611   0.470  0.00  0.00    +0.107 C 
ATOM     31  C   UNL     1       0.139  -8.770   1.725  0.00  0.00    +0.029 C 
ATOM     32  C   UNL     1       0.390  -7.235   3.931  0.00  0.00    +0.247 C 
ATOM     33  O   UNL     1       0.818  -8.367   3.818  0.00  0.00    -0.270 OA
BRANCH  32  34
ATOM     34  C   UNL     1       0.579  -6.495   5.197  0.00  0.00    +0.037 A 
ATOM     35  C   UNL     1      -0.335  -5.510   5.576  0.00  0.00    +0.013 A 
ATOM     36  C   UNL     1      -0.153  -4.824   6.759  0.00  0.00    +0.001 A 
ATOM     37  C   UNL     1       0.931  -5.111   7.569  0.00  0.00    +0.000 A 
ATOM     38  C   UNL     1       1.840  -6.086   7.199  0.00  0.00    +0.001 A 
ATOM     39  C   UNL     1       1.667  -6.783   6.021  0.00  0.00    +0.013 A 
ENDBRANCH  32  34
ENDBRANCH  24  25
ENDBRANCH   2  24
TORSDOF 9
