REMARK  Name = ZINC21232091
REMARK  7 active torsions:
REMARK  status: ('A' for Active; 'I' for Inactive)
REMARK    1  A    between atoms: C_1  and  O_2
REMARK    2  A    between atoms: O_2  and  C_3
REMARK    3  A    between atoms: C_8  and  C_9
REMARK    4  A    between atoms: C_14  and  C_24
REMARK    5  A    between atoms: C_27  and  O_31
REMARK    6  A    between atoms: C_28  and  O_30
REMARK    7  A    between atoms: O_31  and  C_32
REMARK                            x       y       z     vdW  Elec       q    Type
REMARK                         _______ _______ _______ _____ _____    ______ ____
ROOT
ATOM      1  C   UNL     1      -0.488  -2.711  -0.149  0.00  0.00    +0.035 C 
ATOM      2  C   UNL     1       0.712  -3.527   0.328  0.00  0.00    +0.060 C 
ATOM      3  C   UNL     1       0.298  -4.426   1.482  0.00  0.00    +0.017 C 
ATOM      4  C   UNL     1      -0.940  -4.944   1.526  0.00  0.00    +0.036 C 
ATOM      5  C   UNL     1      -1.476  -5.872   2.592  0.00  0.00    +0.136 C 
ATOM      6  N   UNL     1      -0.630  -5.985   3.762  0.00  0.00    -0.331 N 
ATOM      7  C   UNL     1       0.645  -6.537   3.675  0.00  0.00    +0.049 A 
ATOM      8  C   UNL     1       0.957  -7.734   4.302  0.00  0.00    +0.025 A 
ATOM      9  C   UNL     1       2.222  -8.273   4.151  0.00  0.00    +0.002 A 
ATOM     10  C   UNL     1       3.171  -7.628   3.379  0.00  0.00    +0.002 A 
ATOM     11  C   UNL     1       2.869  -6.424   2.765  0.00  0.00    +0.025 A 
ATOM     12  C   UNL     1       1.611  -5.874   2.934  0.00  0.00    +0.052 A 
ATOM     13  N   UNL     1       1.266  -4.632   2.412  0.00  0.00    -0.316 N 
ATOM     14  C   UNL     1      -1.883  -4.627   0.520  0.00  0.00    +0.163 C 
ATOM     15  O   UNL     1      -2.989  -5.127   0.577  0.00  0.00    -0.292 OA
ATOM     16  C   UNL     1      -1.568  -3.695  -0.611  0.00  0.00    +0.088 C 
ATOM     17  H   UNL     1      -0.993  -5.633   4.739  0.00  0.00    +0.147 HD
ATOM     18  H   UNL     1       1.842  -3.780   2.804  0.00  0.00    +0.152 HD
ENDROOT
BRANCH   1  24
ATOM     19  C   UNL     1      -0.203  -0.448  -1.192  0.00  0.00    +0.124 A 
ATOM     20  C   UNL     1       0.170   0.364  -2.253  0.00  0.00    +0.046 A 
ATOM     21  C   UNL     1       0.673  -0.200  -3.409  0.00  0.00    +0.004 A 
ATOM     22  C   UNL     1       0.796  -1.573  -3.513  0.00  0.00    +0.001 A 
ATOM     23  C   UNL     1       0.420  -2.385  -2.459  0.00  0.00    +0.007 A 
ATOM     24  C   UNL     1      -0.079  -1.825  -1.298  0.00  0.00    -0.002 A 
BRANCH  19  26
ATOM     25  C   UNL     1      -0.793   1.530  -0.012  0.00  0.00    +0.277 C 
ATOM     26  O   UNL     1      -0.693   0.105  -0.051  0.00  0.00    -0.495 OA
ENDBRANCH  19  26
ENDBRANCH   1  24
BRANCH   5  27
ATOM     27  C   UNL     1      -1.645  -7.244   1.992  0.00  0.00    -0.019 A 
ATOM     28  C   UNL     1      -2.904  -7.808   1.907  0.00  0.00    +0.009 A 
ATOM     29  C   UNL     1      -3.065  -9.065   1.353  0.00  0.00    +0.050 A 
ATOM     30  C   UNL     1      -1.962  -9.765   0.892  0.00  0.00    +0.161 A 
ATOM     31  C   UNL     1      -0.695  -9.199   0.983  0.00  0.00    +0.159 A 
ATOM     32  C   UNL     1      -0.541  -7.937   1.534  0.00  0.00    +0.055 A 
BRANCH  31  33
ATOM     33  O   UNL     1       0.391  -9.883   0.532  0.00  0.00    -0.503 OA
ATOM     34  H   UNL     1       1.393  -9.434   0.604  0.00  0.00    +0.292 HD
ENDBRANCH  31  33
BRANCH  30  35
ATOM     35  O   UNL     1      -2.119 -11.003   0.351  0.00  0.00    -0.491 OA
ATOM     36  C   UNL     1      -3.449 -11.521   0.291  0.00  0.00    +0.277 C 
ENDBRANCH  30  35
ENDBRANCH   5  27
TORSDOF 5
