REMARK  Name = ZINC36499005
REMARK  13 active torsions:
REMARK  status: ('A' for Active; 'I' for Inactive)
REMARK    1  A    between atoms: C_1  and  C_2
REMARK    2  A    between atoms: C_2  and  C_3
REMARK    3  A    between atoms: C_2  and  C_4
REMARK    4  A    between atoms: C_2  and  N_5
REMARK    5  A    between atoms: C_6  and  C_8
REMARK    6  A    between atoms: C_8  and  C_10
REMARK    7  A    between atoms: C_8  and  N_19
REMARK    8  A    between atoms: C_11  and  O_18
REMARK    9  A    between atoms: C_13  and  O_17
REMARK   10  A    between atoms: C_15  and  O_16
REMARK   11  A    between atoms: N_19  and  C_20
REMARK   12  A    between atoms: C_20  and  C_21
REMARK   13  A    between atoms: C_26  and  C_28
REMARK                            x       y       z     vdW  Elec       q    Type
REMARK                         _______ _______ _______ _____ _____    ______ ____
ROOT
ATOM      1  C   UNL     1       4.561  -1.392  -3.321  0.00  0.00    +0.200 C 
ENDROOT
BRANCH   1   2
ATOM      2  C   UNL     1       4.982  -1.594  -4.754  0.00  0.00    +0.065 A 
ATOM      3  C   UNL     1       6.288  -1.955  -5.049  0.00  0.00    +0.129 A 
ATOM      4  C   UNL     1       6.675  -2.141  -6.368  0.00  0.00    +0.091 A 
ATOM      5  C   UNL     1       5.756  -1.967  -7.391  0.00  0.00    +0.124 A 
ATOM      6  C   UNL     1       4.449  -1.607  -7.096  0.00  0.00    +0.091 A 
ATOM      7  C   UNL     1       4.061  -1.425  -5.777  0.00  0.00    +0.129 A 
BRANCH   7   8
ATOM      8  O   UNL     1       2.780  -1.077  -5.488  0.00  0.00    -0.506 OA
ATOM      9  H   UNL     1       2.628  -0.123  -5.460  0.00  0.00    +0.292 HD
ENDBRANCH   7   8
BRANCH   5  10
ATOM     10  O   UNL     1       6.135  -2.148  -8.684  0.00  0.00    -0.507 OA
ATOM     11  H   UNL     1       6.023  -3.054  -9.003  0.00  0.00    +0.292 HD
ENDBRANCH   5  10
BRANCH   3  12
ATOM     12  O   UNL     1       7.189  -2.125  -4.046  0.00  0.00    -0.506 OA
ATOM     13  H   UNL     1       7.175  -3.007  -3.651  0.00  0.00    +0.292 HD
ENDBRANCH   3  12
ENDBRANCH   1   2
BRANCH   1  15
ATOM     14  N   UNL     1       2.403  -2.579  -3.099  0.00  0.00    -0.309 N 
ATOM     15  C   UNL     1       3.057  -1.408  -3.232  0.00  0.00    +0.239 C 
ATOM     16  O   UNL     1       2.436  -0.368  -3.280  0.00  0.00    -0.273 OA
ATOM     17  H   UNL     1       2.900  -3.411  -3.061  0.00  0.00    +0.149 HD
BRANCH  14  19
ATOM     18  C   UNL     1       0.347  -1.982  -4.283  0.00  0.00    +0.031 C 
ATOM     19  C   UNL     1       0.940  -2.595  -3.013  0.00  0.00    +0.026 C 
ATOM     20  C   UNL     1       0.493  -1.781  -1.797  0.00  0.00    +0.031 C 
ATOM     21  C   UNL     1       0.454  -4.038  -2.867  0.00  0.00    +0.031 C 
ENDBRANCH  14  19
ENDBRANCH   1  15
BRANCH   1  22
ATOM     22  N   UNL     1       5.065  -0.102  -2.842  0.00  0.00    -0.274 N 
ATOM     23  C   UNL     1       5.154   0.137  -1.518  0.00  0.00    +0.248 C 
ATOM     24  O   UNL     1       5.155   1.280  -1.106  0.00  0.00    -0.270 OA
BRANCH  23  25
ATOM     25  C   UNL     1       5.249  -0.992  -0.568  0.00  0.00    +0.038 A 
ATOM     26  C   UNL     1       4.407  -2.097  -0.705  0.00  0.00    +0.013 A 
ATOM     27  C   UNL     1       4.501  -3.147   0.184  0.00  0.00    +0.002 A 
ATOM     28  C   UNL     1       5.428  -3.108   1.211  0.00  0.00    +0.020 A 
ATOM     29  C   UNL     1       6.266  -2.015   1.353  0.00  0.00    +0.042 A 
ATOM     30  C   UNL     1       6.186  -0.960   0.466  0.00  0.00    +0.033 A 
ATOM     31 CL   UNL     1       7.426  -1.975   2.644  0.00  0.00    -0.084 Cl
ENDBRANCH  23  25
BRANCH  22  32
ATOM     32  C   UNL     1       5.473   0.927  -3.801  0.00  0.00    +0.183 C 
BRANCH  32  33
ATOM     33  C   UNL     1       4.512   2.086  -3.732  0.00  0.00    +0.122 A 
ATOM     34  C   UNL     1       4.575   3.110  -2.861  0.00  0.00    +0.046 A 
ATOM     35  C   UNL     1       3.485   3.962  -3.151  0.00  0.00    +0.041 A 
ATOM     36  C   UNL     1       2.821   3.409  -4.182  0.00  0.00    +0.195 A 
ATOM     37  O   UNL     1       3.451   2.276  -4.533  0.00  0.00    -0.466 OA
ENDBRANCH  32  33
ENDBRANCH  22  32
ENDBRANCH   1  22
TORSDOF 10
