REMARK  Name = ZINC06431012
REMARK  8 active torsions:
REMARK  status: ('A' for Active; 'I' for Inactive)
REMARK    1  A    between atoms: C_1  and  C_2
REMARK    2  A    between atoms: C_5  and  C_8
REMARK    3  A    between atoms: C_8  and  O_10
REMARK    4  A    between atoms: O_10  and  C_11
REMARK    5  A    between atoms: C_11  and  C_12
REMARK    6  A    between atoms: N_14  and  C_15
REMARK    7  A    between atoms: C_16  and  C_26
REMARK    8  A    between atoms: C_21  and  C_25
REMARK                            x       y       z     vdW  Elec       q    Type
REMARK                         _______ _______ _______ _____ _____    ______ ____
ROOT
ATOM      1  C   UNL     1      -2.439   5.605   0.044  0.00  0.00    +0.255 C 
ATOM      2  O   UNL     1      -1.323   6.080   0.041  0.00  0.00    -0.272 OA
ATOM      3  N   UNL     1      -3.517   6.414   0.054  0.00  0.00    -0.277 N 
ATOM      4  H   UNL     1      -4.409   6.033   0.056  0.00  0.00    +0.155 HD
ENDROOT
BRANCH   3   5
ATOM      5  C   UNL     1      -3.350   7.790   0.060  0.00  0.00    +0.084 A 
ATOM      6  C   UNL     1      -4.326   8.777   0.070  0.00  0.00    +0.068 A 
ATOM      7  C   UNL     1      -3.882  10.160   0.076  0.00  0.00    -0.023 A 
ATOM      8  C   UNL     1      -2.542  10.335   0.071  0.00  0.00    -0.004 A 
ATOM      9  S   UNL     1      -1.873   8.696   0.066  0.00  0.00    -0.077 S 
ATOM     10  C   UNL     1      -1.801  11.636   0.075  0.00  0.00    +0.046 C 
ATOM     11  C   UNL     1      -2.786  12.755  -0.292  0.00  0.00    -0.009 C 
ATOM     12  C   UNL     1      -4.055  12.591   0.549  0.00  0.00    +0.008 C 
ATOM     13  C   UNL     1      -4.829  11.354   0.088  0.00  0.00    +0.037 C 
ATOM     14  C   UNL     1      -2.148  14.115  -0.004  0.00  0.00    +0.008 C 
BRANCH   6  15
ATOM     15  C   UNL     1      -5.752   8.436   0.075  0.00  0.00    +0.244 C 
ATOM     16  O   UNL     1      -6.339   8.288   1.131  0.00  0.00    -0.270 OA
ATOM     17  N   UNL     1      -6.413   8.286  -1.090  0.00  0.00    -0.325 N 
ATOM     18  H   UNL     1      -5.945   8.404  -1.932  0.00  0.00    +0.145 HD
ATOM     19  H   UNL     1      -7.356   8.060  -1.087  0.00  0.00    +0.145 HD
ENDBRANCH   6  15
ENDBRANCH   3   5
BRANCH   1  20
ATOM     20  C   UNL     1      -2.620   4.109   0.037  0.00  0.00    +0.328 C 
BRANCH  20  21
ATOM     21  O   UNL     1      -1.319   3.464   0.027  0.00  0.00    -0.452 OA
BRANCH  21  22
ATOM     22  C   UNL     1      -1.304   2.117   0.020  0.00  0.00    +0.340 C 
ATOM     23  O   UNL     1      -2.349   1.498   0.021  0.00  0.00    -0.245 OA
BRANCH  22  28
ATOM     24  C   UNL     1       3.710  -0.705  -0.037  0.00  0.00    +0.044 C 
ATOM     25  C   UNL     1       2.396   0.034  -0.021  0.00  0.00    -0.050 A 
ATOM     26  C   UNL     1       1.208  -0.674  -0.013  0.00  0.00    +0.004 A 
ATOM     27  C   UNL     1       0.002  -0.004   0.002  0.00  0.00    +0.015 A 
ATOM     28  C   UNL     1      -0.017   1.392   0.010  0.00  0.00    +0.059 A 
ATOM     29  C   UNL     1       1.186   2.100   0.002  0.00  0.00    +0.015 A 
ATOM     30  C   UNL     1       2.385   1.417  -0.013  0.00  0.00    +0.004 A 
ENDBRANCH  22  28
ENDBRANCH  21  22
ENDBRANCH  20  21
ENDBRANCH   1  20
TORSDOF 6
