REMARK  Name = ZINC00238709
REMARK  4 active torsions:
REMARK  status: ('A' for Active; 'I' for Inactive)
REMARK    1  A    between atoms: C_1  and  C_2
REMARK    2  A    between atoms: N_4  and  C_15
REMARK    3  A    between atoms: C_5  and  C_8
REMARK    4  A    between atoms: C_11  and  O_14
REMARK                            x       y       z     vdW  Elec       q    Type
REMARK                         _______ _______ _______ _____ _____    ______ ____
ROOT
ATOM      1  C   UNL     1      -1.858  -3.841   2.307  0.00  0.00    +0.062 C 
ATOM      2  C   UNL     1      -1.608  -2.826   1.221  0.00  0.00    +0.036 C 
ATOM      3  N   UNL     1      -1.382  -3.101   0.002  0.00  0.00    -0.188 NA
ATOM      4  N   UNL     1      -1.181  -1.989  -0.813  0.00  0.00    -0.217 N 
ATOM      5  C   UNL     1      -1.293  -0.774   0.010  0.00  0.00    +0.134 C 
ATOM      6  C   UNL     1      -1.591  -1.324   1.420  0.00  0.00    +0.081 C 
ENDROOT
BRANCH   5   7
ATOM      7  C   UNL     1       0.002  -0.004   0.002  0.00  0.00    -0.025 A 
ATOM      8  C   UNL     1      -0.017   1.378   0.010  0.00  0.00    +0.009 A 
ATOM      9  C   UNL     1       1.169   2.087   0.002  0.00  0.00    +0.046 A 
ATOM     10  C   UNL     1       2.380   1.409  -0.013  0.00  0.00    +0.117 A 
ATOM     11  C   UNL     1       2.396   0.022  -0.020  0.00  0.00    +0.046 A 
ATOM     12  C   UNL     1       1.207  -0.681  -0.013  0.00  0.00    +0.009 A 
BRANCH  10  13
ATOM     13  O   UNL     1       3.548   2.104  -0.021  0.00  0.00    -0.507 OA
ATOM     14  H   UNL     1       3.878   2.309  -0.907  0.00  0.00    +0.292 HD
ENDBRANCH  10  13
ENDBRANCH   5   7
BRANCH   4  15
ATOM     15  C   UNL     1      -0.915  -2.022  -2.183  0.00  0.00    +0.052 A 
ATOM     16  C   UNL     1      -0.738  -0.837  -2.887  0.00  0.00    +0.025 A 
ATOM     17  C   UNL     1      -0.471  -0.874  -4.241  0.00  0.00    +0.002 A 
ATOM     18  C   UNL     1      -0.390  -2.087  -4.899  0.00  0.00    +0.000 A 
ATOM     19  C   UNL     1      -0.572  -3.269  -4.203  0.00  0.00    +0.002 A 
ATOM     20  C   UNL     1      -0.834  -3.240  -2.848  0.00  0.00    +0.025 A 
ENDBRANCH   4  15
TORSDOF 3
