REMARK  Name = ZINC09664926
REMARK  11 active torsions:
REMARK  status: ('A' for Active; 'I' for Inactive)
REMARK    1  A    between atoms: C_1  and  C_2
REMARK    2  A    between atoms: C_2  and  N_63
REMARK    3  A    between atoms: C_3  and  N_4
REMARK    4  A    between atoms: C_3  and  N_63
REMARK    5  A    between atoms: C_7  and  C_11
REMARK    6  A    between atoms: C_7  and  C_19
REMARK    7  A    between atoms: C_14  and  O_17
REMARK    8  A    between atoms: O_17  and  C_18
REMARK    9  A    between atoms: C_22  and  O_25
REMARK   10  A    between atoms: O_25  and  C_26
REMARK   11  A    between atoms: C_27  and  N_63
REMARK                            x       y       z     vdW  Elec       q    Type
REMARK                         _______ _______ _______ _____ _____    ______ ____
ROOT
ATOM      1  N   UNL     1      -2.237   1.488   2.493  0.00  0.00    -0.241 N 
ATOM      2  C   UNL     1      -3.032   2.247   3.272  0.00  0.00    +0.254 C 
ATOM      3  O   UNL     1      -3.304   3.418   3.120  0.00  0.00    -0.272 OA
ATOM      4  C   UNL     1      -3.514   1.331   4.380  0.00  0.00    +0.164 C 
ATOM      5  N   UNL     1      -2.874   0.042   4.067  0.00  0.00    -0.278 N 
ATOM      6  C   UNL     1      -2.154   0.232   2.947  0.00  0.00    +0.308 C 
ATOM      7  O   UNL     1      -1.499  -0.639   2.409  0.00  0.00    -0.252 OA
ATOM      8  H   UNL     1      -2.958  -0.784   4.569  0.00  0.00    +0.152 HD
ENDROOT
BRANCH   4   9
ATOM      9  C   UNL     1      -3.056   1.838   5.724  0.00  0.00    -0.011 A 
ATOM     10  C   UNL     1      -2.503   0.962   6.640  0.00  0.00    +0.010 A 
ATOM     11  C   UNL     1      -2.077   1.425   7.870  0.00  0.00    +0.046 A 
ATOM     12  C   UNL     1      -2.214   2.768   8.189  0.00  0.00    +0.120 A 
ATOM     13  C   UNL     1      -2.775   3.644   7.271  0.00  0.00    +0.046 A 
ATOM     14  C   UNL     1      -3.194   3.177   6.040  0.00  0.00    +0.010 A 
BRANCH  12  15
ATOM     15  O   UNL     1      -1.801   3.225   9.401  0.00  0.00    -0.495 OA
ATOM     16  C   UNL     1      -1.233   2.267  10.296  0.00  0.00    +0.277 C 
ENDBRANCH  12  15
ENDBRANCH   4   9
BRANCH   4  17
ATOM     17  C   UNL     1      -5.015   1.201   4.345  0.00  0.00    -0.011 A 
ATOM     18  C   UNL     1      -5.807   2.333   4.397  0.00  0.00    +0.010 A 
ATOM     19  C   UNL     1      -7.183   2.216   4.359  0.00  0.00    +0.046 A 
ATOM     20  C   UNL     1      -7.770   0.962   4.281  0.00  0.00    +0.120 A 
ATOM     21  C   UNL     1      -6.973  -0.173   4.234  0.00  0.00    +0.046 A 
ATOM     22  C   UNL     1      -5.597  -0.051   4.267  0.00  0.00    +0.010 A 
BRANCH  20  23
ATOM     23  O   UNL     1      -9.124   0.844   4.248  0.00  0.00    -0.495 OA
ATOM     24  C   UNL     1      -9.881   2.055   4.300  0.00  0.00    +0.277 C 
ENDBRANCH  20  23
ENDBRANCH   4  17
BRANCH   1  25
ATOM     25  C   UNL     1      -1.552   1.976   1.293  0.00  0.00    +0.043 C 
BRANCH  25  26
ATOM     26  N   UNL     1      -0.288   2.624   1.702  0.00  0.00    +0.393 N 
ATOM     27  H   UNL     1      -0.424   3.071   2.617  0.00  0.00    -0.079 HD
BRANCH  26  28
ATOM     28  C   UNL     1       0.784   1.613   1.817  0.00  0.00    -0.044 C 
ATOM     29  C   UNL     1       1.162   1.074   0.427  0.00  0.00    +0.009 C 
ATOM     30  C   UNL     1       2.486   0.269   0.564  0.00  0.00    +0.164 C 
ATOM     31  S   UNL     1       3.421   1.353   1.724  0.00  0.00    -0.033 S 
ATOM     32  O   UNL     1       4.214   2.260   0.972  0.00  0.00    -0.174 OA
ATOM     33  O   UNL     1       4.035   0.545   2.719  0.00  0.00    -0.174 OA
ATOM     34  C   UNL     1       2.018   2.271   2.481  0.00  0.00    +0.151 C 
ENDBRANCH  26  28
BRANCH  26  36
ATOM     35  C   UNL     1      -0.834   4.861   0.881  0.00  0.00    -0.017 C 
ATOM     36  C   UNL     1       0.093   3.656   0.715  0.00  0.00    -0.080 C 
ENDBRANCH  26  36
ENDBRANCH  25  26
ENDBRANCH   1  25
TORSDOF 8
