REMARK  Name = ZINC37643656
REMARK  7 active torsions:
REMARK  status: ('A' for Active; 'I' for Inactive)
REMARK    1  A    between atoms: C_1  and  C_2
REMARK    2  A    between atoms: C_2  and  N_3
REMARK    3  A    between atoms: C_6  and  C_9
REMARK    4  A    between atoms: C_9  and  N_10
REMARK    5  A    between atoms: N_10  and  S_11
REMARK    6  A    between atoms: S_11  and  C_14
REMARK    7  A    between atoms: C_17  and  N_21
REMARK                            x       y       z     vdW  Elec       q    Type
REMARK                         _______ _______ _______ _____ _____    ______ ____
ROOT
ATOM      1  S   UNL     1      -4.267  -5.516  -2.427  0.00  0.00    +0.061 S 
ATOM      2  O   UNL     1      -5.651  -5.594  -2.742  0.00  0.00    -0.153 OA
ATOM      3  O   UNL     1      -3.261  -5.448  -3.428  0.00  0.00    -0.153 OA
ENDROOT
BRANCH   1   4
ATOM      4  C   UNL     1      -3.896  -6.923  -1.434  0.00  0.00    +0.133 A 
ATOM      5  C   UNL     1      -2.599  -7.401  -1.370  0.00  0.00    +0.047 A 
ATOM      6  C   UNL     1      -2.305  -8.504  -0.592  0.00  0.00    +0.040 A 
ATOM      7  C   UNL     1      -3.313  -9.134   0.127  0.00  0.00    +0.027 A 
ATOM      8  C   UNL     1      -4.614  -8.652   0.061  0.00  0.00    +0.040 A 
ATOM      9  C   UNL     1      -4.901  -7.545  -0.715  0.00  0.00    +0.047 A 
ATOM     10 BR   UNL     1      -6.671  -6.883  -0.799  0.00  0.00    -0.048 Br
ATOM     11 BR   UNL     1      -1.228  -6.543  -2.349  0.00  0.00    -0.048 Br
BRANCH   7  12
ATOM     12  N   UNL     1      -3.019 -10.250   0.913  0.00  0.00    -0.358 N 
ATOM     13  H   UNL     1      -2.110 -10.586   0.958  0.00  0.00    +0.142 HD
ATOM     14  H   UNL     1      -3.724 -10.689   1.415  0.00  0.00    +0.142 HD
ENDBRANCH   7  12
ENDBRANCH   1   4
BRANCH   1  15
ATOM     15  N   UNL     1      -4.075  -4.177  -1.471  0.00  0.00    -0.190 NA
ATOM     16  H   UNL     1      -4.840  -3.622  -1.255  0.00  0.00    +0.148 HD
BRANCH  15  17
ATOM     17  C   UNL     1      -2.749  -3.832  -0.953  0.00  0.00    +0.107 C 
BRANCH  17  21
ATOM     18  N   UNL     1      -1.376  -0.512   0.012  0.00  0.00    +0.380 N 
ATOM     19  C   UNL     1      -2.042  -0.207  -1.272  0.00  0.00    -0.079 C 
ATOM     20  C   UNL     1      -2.971  -1.393  -1.593  0.00  0.00    -0.016 C 
ATOM     21  C   UNL     1      -2.764  -2.393  -0.432  0.00  0.00    -0.014 C 
ATOM     22  C   UNL     1      -1.375  -1.994   0.126  0.00  0.00    -0.074 C 
ATOM     23  H   UNL     1      -1.892  -0.105   0.778  0.00  0.00    -0.082 HD
BRANCH  18  25
ATOM     24  C   UNL     1      -0.019   1.526   0.010  0.00  0.00    -0.017 C 
ATOM     25  C   UNL     1       0.002  -0.004   0.002  0.00  0.00    -0.082 C 
ENDBRANCH  18  25
ENDBRANCH  17  21
ENDBRANCH  15  17
ENDBRANCH   1  15
TORSDOF 6
