REMARK  Name = ZINC36246128
REMARK  13 active torsions:
REMARK  status: ('A' for Active; 'I' for Inactive)
REMARK    1  A    between atoms: C_2  and  C_3
REMARK    2  A    between atoms: C_3  and  O_4
REMARK    3  A    between atoms: O_4  and  C_5
REMARK    4  A    between atoms: C_5  and  C_6
REMARK    5  A    between atoms: C_6  and  C_8
REMARK    6  A    between atoms: C_6  and  O_39
REMARK    7  A    between atoms: C_8  and  N_9
REMARK    8  A    between atoms: N_9  and  C_10
REMARK    9  A    between atoms: N_9  and  C_32
REMARK   10  A    between atoms: C_10  and  C_11
REMARK   11  A    between atoms: C_12  and  C_26
REMARK   12  A    between atoms: C_15  and  N_16
REMARK   13  A    between atoms: C_32  and  C_33
REMARK                            x       y       z     vdW  Elec       q    Type
REMARK                         _______ _______ _______ _____ _____    ______ ____
ROOT
ATOM      1  C   UNL     1       6.087   8.032  -0.573  0.00  0.00    +0.025 A 
ATOM      2  C   UNL     1       6.750   8.251   0.653  0.00  0.00    +0.117 A 
ATOM      3  N   UNL     1       7.882   8.865   0.396  0.00  0.00    -0.076 NA
ATOM      4  O   UNL     1       7.971   9.053  -1.004  0.00  0.00    -0.339 OA
ATOM      5  C   UNL     1       6.866   8.531  -1.565  0.00  0.00    +0.223 A 
ENDROOT
BRANCH   5   6
ATOM      6  N   UNL     1       6.574   8.509  -2.917  0.00  0.00    -0.295 N 
ATOM      7  C   UNL     1       5.930   9.655  -3.580  0.00  0.00    +0.113 C 
ATOM      8  C   UNL     1       6.914  10.219  -4.604  0.00  0.00    +0.054 C 
ATOM      9  C   UNL     1       7.506   9.117  -5.442  0.00  0.00    -0.041 A 
ATOM     10  C   UNL     1       8.067   9.467  -6.664  0.00  0.00    +0.004 A 
ATOM     11  C   UNL     1       8.635   8.507  -7.476  0.00  0.00    +0.000 A 
ATOM     12  C   UNL     1       8.648   7.185  -7.072  0.00  0.00    +0.000 A 
ATOM     13  C   UNL     1       8.088   6.834  -5.861  0.00  0.00    +0.005 A 
ATOM     14  C   UNL     1       7.511   7.798  -5.046  0.00  0.00    -0.027 A 
ATOM     15  C   UNL     1       6.899   7.345  -3.749  0.00  0.00    +0.143 C 
ENDBRANCH   5   6
BRANCH   2  16
ATOM     16  C   UNL     1       6.255   7.858   1.996  0.00  0.00    +0.004 A 
ATOM     17  C   UNL     1       4.910   8.021   2.321  0.00  0.00    +0.010 A 
ATOM     18  C   UNL     1       4.455   7.654   3.571  0.00  0.00    +0.001 A 
ATOM     19  C   UNL     1       5.331   7.124   4.500  0.00  0.00    +0.000 A 
ATOM     20  C   UNL     1       6.667   6.960   4.183  0.00  0.00    +0.001 A 
ATOM     21  C   UNL     1       7.132   7.319   2.934  0.00  0.00    +0.010 A 
ENDBRANCH   2  16
BRANCH   1  22
ATOM     22  C   UNL     1       4.751   7.356  -0.749  0.00  0.00    -0.035 C 
BRANCH  22  23
ATOM     23  N   UNL     1       4.959   5.942  -1.090  0.00  0.00    +0.386 N 
ATOM     24  H   UNL     1       5.580   5.875  -1.883  0.00  0.00    -0.081 HD
BRANCH  23  25
ATOM     25  C   UNL     1       3.669   5.325  -1.424  0.00  0.00    -0.044 C 
BRANCH  25  26
ATOM     26  C   UNL     1       2.715   5.463  -0.236  0.00  0.00    +0.124 C 
BRANCH  26  27
ATOM     27  O   UNL     1       2.376   6.840  -0.055  0.00  0.00    -0.391 OA
ATOM     28  H   UNL     1       1.872   7.220  -0.787  0.00  0.00    +0.210 HD
ENDBRANCH  26  27
BRANCH  26  29
ATOM     29  C   UNL     1       1.443   4.657  -0.507  0.00  0.00    +0.190 C 
BRANCH  29  30
ATOM     30  O   UNL     1       0.602   4.691   0.648  0.00  0.00    -0.365 OA
BRANCH  30  31
ATOM     31  C   UNL     1      -0.619   3.964   0.500  0.00  0.00    +0.248 C 
BRANCH  31  33
ATOM     32  C   UNL     1      -2.030   4.145   2.731  0.00  0.00    +0.006 C 
ATOM     33  C   UNL     1      -1.404   4.065   1.741  0.00  0.00    -0.077 C 
ENDBRANCH  31  33
ENDBRANCH  30  31
ENDBRANCH  29  30
ENDBRANCH  26  29
ENDBRANCH  25  26
ENDBRANCH  23  25
BRANCH  23  34
ATOM     34  C   UNL     1       5.554   5.245   0.058  0.00  0.00    -0.046 C 
BRANCH  34  35
ATOM     35  C   UNL     1       5.908   3.812  -0.344  0.00  0.00    +0.102 C 
ATOM     36  C   UNL     1       6.506   3.061   0.865  0.00  0.00    +0.032 C 
ATOM     37  C   UNL     1       7.636   2.223   0.207  0.00  0.00    +0.030 C 
ATOM     38  C   UNL     1       8.099   3.184  -0.917  0.00  0.00    +0.160 C 
ATOM     39  O   UNL     1       6.898   3.828  -1.379  0.00  0.00    -0.378 OA
ENDBRANCH  34  35
ENDBRANCH  23  34
ENDBRANCH  22  23
ENDBRANCH   1  22
TORSDOF 13
