REMARK  Name = ZINC39597582
REMARK  6 active torsions:
REMARK  status: ('A' for Active; 'I' for Inactive)
REMARK    1  A    between atoms: C_7  and  C_10
REMARK    2  A    between atoms: C_10  and  C_11
REMARK    3  A    between atoms: C_11  and  N_12
REMARK    4  A    between atoms: C_13  and  C_15
REMARK    5  A    between atoms: C_26  and  C_28
REMARK    6  A    between atoms: C_34  and  C_36
REMARK                            x       y       z     vdW  Elec       q    Type
REMARK                         _______ _______ _______ _____ _____    ______ ____
ROOT
ATOM      1  C   UNL     1      -5.660   7.126  -2.507  0.00  0.00    +0.100 C 
ATOM      2  C   UNL     1      -7.142   7.129  -2.069  0.00  0.00    +0.121 C 
ATOM      3  N   UNL     1      -7.777   8.176  -2.904  0.00  0.00    -0.299 N 
ATOM      4  C   UNL     1      -7.147   8.018  -4.236  0.00  0.00    +0.115 C 
ATOM      5  C   UNL     1      -5.668   7.709  -3.930  0.00  0.00    -0.004 C 
ATOM      6  C   UNL     1      -4.840   8.990  -3.980  0.00  0.00    -0.010 C 
ATOM      7  C   UNL     1      -4.816   9.520  -5.417  0.00  0.00    -0.082 C 
ATOM      8  N   UNL     1      -4.238   8.505  -6.305  0.00  0.00    +0.379 N 
ATOM      9  C   UNL     1      -5.090   7.310  -6.322  0.00  0.00    -0.082 C 
ATOM     10  C   UNL     1      -5.126   6.686  -4.924  0.00  0.00    -0.010 C 
ATOM     11  C   UNL     1      -8.715   9.070  -2.535  0.00  0.00    +0.236 C 
ATOM     12  O   UNL     1      -9.140   9.871  -3.341  0.00  0.00    -0.274 OA
ATOM     13  H   UNL     1      -4.167   8.879  -7.240  0.00  0.00    -0.086 HD
ATOM     14  H   UNL     1      -3.318   8.255  -5.975  0.00  0.00    -0.086 HD
ENDROOT
BRANCH  11  15
ATOM     15  C   UNL     1      -9.237   9.075  -1.121  0.00  0.00    +0.162 C 
ATOM     16  C   UNL     1     -10.298   7.968  -0.949  0.00  0.00    +0.033 C 
ATOM     17  C   UNL     1     -11.351   8.636  -0.025  0.00  0.00    +0.021 C 
ATOM     18  C   UNL     1     -11.312  10.103  -0.521  0.00  0.00    +0.109 C 
ATOM     19  N   UNL     1      -9.892  10.360  -0.834  0.00  0.00    -0.283 N 
ATOM     20  C   UNL     1      -9.294  11.568  -0.854  0.00  0.00    +0.320 C 
ATOM     21  O   UNL     1      -8.116  11.657  -1.126  0.00  0.00    -0.266 OA
BRANCH  20  22
ATOM     22  C   UNL     1     -10.091  12.808  -0.538  0.00  0.00    +0.470 C 
ATOM     23  F   UNL     1      -9.259  13.930  -0.622  0.00  0.00    -0.162 F 
ATOM     24  F   UNL     1     -11.140  12.934  -1.455  0.00  0.00    -0.162 F 
ATOM     25  F   UNL     1     -10.612  12.710   0.757  0.00  0.00    -0.162 F 
ENDBRANCH  20  22
ENDBRANCH  11  15
BRANCH   1  27
ATOM     26  N   UNL     1      -3.808   5.499  -2.300  0.00  0.00    -0.315 N 
ATOM     27  C   UNL     1      -5.120   5.719  -2.519  0.00  0.00    +0.218 C 
ATOM     28  O   UNL     1      -5.865   4.785  -2.727  0.00  0.00    -0.275 OA
ATOM     29  H   UNL     1      -3.212   6.246  -2.135  0.00  0.00    +0.149 HD
BRANCH  26  30
ATOM     30  C   UNL     1      -3.283   4.132  -2.313  0.00  0.00    +0.109 C 
BRANCH  30  31
ATOM     31  C   UNL     1      -1.778   4.161  -2.039  0.00  0.00    +0.056 C 
BRANCH  31  38
ATOM     32  C   UNL     1      -0.300   1.323  -5.465  0.00  0.00    +0.001 A 
ATOM     33  C   UNL     1       0.121   0.086  -4.999  0.00  0.00    +0.002 A 
ATOM     34  C   UNL     1       0.080  -0.209  -3.653  0.00  0.00    +0.026 A 
ATOM     35  C   UNL     1      -0.386   0.742  -2.752  0.00  0.00    +0.047 A 
ATOM     36  N   UNL     1      -0.547   0.753  -1.384  0.00  0.00    -0.360 N 
ATOM     37  C   UNL     1      -1.055   1.960  -0.986  0.00  0.00    +0.087 A 
ATOM     38  C   UNL     1      -1.237   2.755  -2.052  0.00  0.00    -0.021 A 
ATOM     39  C   UNL     1      -0.811   1.995  -3.230  0.00  0.00    +0.003 A 
ATOM     40  C   UNL     1      -0.757   2.274  -4.596  0.00  0.00    +0.010 A 
ATOM     41  H   UNL     1      -0.333   0.016  -0.792  0.00  0.00    +0.165 HD
ENDBRANCH  31  38
ENDBRANCH  30  31
ENDBRANCH  26  30
ENDBRANCH   1  27
TORSDOF 6
