REMARK  Name = ZINC14730364
REMARK  10 active torsions:
REMARK  status: ('A' for Active; 'I' for Inactive)
REMARK    1  A    between atoms: C_1  and  C_2
REMARK    2  A    between atoms: C_6  and  C_35
REMARK    3  A    between atoms: C_7  and  N_8
REMARK    4  A    between atoms: N_8  and  C_9
REMARK    5  A    between atoms: C_9  and  N_11
REMARK    6  A    between atoms: N_13  and  C_14
REMARK    7  A    between atoms: C_14  and  C_15
REMARK    8  A    between atoms: C_15  and  C_16
REMARK    9  A    between atoms: C_29  and  C_34
REMARK   10  A    between atoms: C_31  and  C_33
REMARK                            x       y       z     vdW  Elec       q    Type
REMARK                         _______ _______ _______ _____ _____    ______ ____
ROOT
ATOM      1  N   UNL     1      -1.095  -0.390   4.280  0.00  0.00    -0.159 NA
ATOM      2  C   UNL     1      -1.531  -0.890   5.424  0.00  0.00    +0.195 C 
ATOM      3  N   UNL     1      -1.559  -2.242   5.611  0.00  0.00    -0.357 N 
ATOM      4  N   UNL     1      -1.954  -0.052   6.420  0.00  0.00    -0.297 N 
ATOM      5  C   UNL     1      -2.030   1.315   6.191  0.00  0.00    +0.231 A 
ATOM      6  N   UNL     1      -1.796   1.781   4.974  0.00  0.00    -0.217 NA
ATOM      7  C   UNL     1      -1.861   3.078   4.722  0.00  0.00    +0.044 A 
ATOM      8  C   UNL     1      -2.178   3.951   5.750  0.00  0.00    +0.046 A 
ATOM      9  C   UNL     1      -2.417   3.430   7.012  0.00  0.00    +0.044 A 
ATOM     10  N   UNL     1      -2.340   2.122   7.195  0.00  0.00    -0.217 NA
ATOM     11  C   UNL     1      -2.764   4.341   8.161  0.00  0.00    +0.066 C 
ATOM     12  C   UNL     1      -1.593   3.599   3.333  0.00  0.00    +0.066 C 
ATOM     13  H   UNL     1      -1.190  -2.833   4.936  0.00  0.00    +0.162 HD
ATOM     14  H   UNL     1      -2.200  -0.414   7.286  0.00  0.00    +0.171 HD
ENDROOT
BRANCH   1  15
ATOM     15  C   UNL     1      -0.797  -1.209   3.261  0.00  0.00    +0.161 C 
ATOM     16  S   UNL     1      -1.968  -2.314   2.680  0.00  0.00    -0.016 S 
BRANCH  15  17
ATOM     17  N   UNL     1       0.425  -1.162   2.693  0.00  0.00    -0.295 N 
ATOM     18  H   UNL     1       1.117  -0.601   3.078  0.00  0.00    +0.154 HD
BRANCH  17  25
ATOM     19  C   UNL     1       2.272  -3.314   2.916  0.00  0.00    +0.045 C 
ATOM     20  C   UNL     1       1.590  -2.981   1.615  0.00  0.00    -0.029 A 
ATOM     21  C   UNL     1       1.850  -3.732   0.485  0.00  0.00    +0.005 A 
ATOM     22  C   UNL     1       1.224  -3.427  -0.709  0.00  0.00    +0.001 A 
ATOM     23  C   UNL     1       0.336  -2.369  -0.778  0.00  0.00    +0.005 A 
ATOM     24  C   UNL     1       0.072  -1.613   0.348  0.00  0.00    -0.029 A 
ATOM     25  C   UNL     1       0.695  -1.921   1.551  0.00  0.00    +0.039 A 
ATOM     26  C   UNL     1      -0.896  -0.461   0.272  0.00  0.00    +0.045 C 
ENDBRANCH  17  25
ENDBRANCH  15  17
ENDBRANCH   1  15
BRANCH   3  27
ATOM     27  C   UNL     1      -2.147  -2.800   6.831  0.00  0.00    +0.120 C 
BRANCH  27  28
ATOM     28  C   UNL     1      -1.944  -4.317   6.847  0.00  0.00    +0.058 C 
BRANCH  28  29
ATOM     29  C   UNL     1      -2.654  -4.906   8.039  0.00  0.00    -0.021 A 
ATOM     30  C   UNL     1      -2.116  -5.159   9.243  0.00  0.00    +0.087 A 
ATOM     31  N   UNL     1      -3.063  -5.693  10.074  0.00  0.00    -0.360 N 
ATOM     32  H   UNL     1      -2.912  -5.957  10.995  0.00  0.00    +0.165 HD
ATOM     33  C   UNL     1      -4.264  -5.799   9.408  0.00  0.00    +0.047 A 
ATOM     34  C   UNL     1      -4.062  -5.304   8.107  0.00  0.00    +0.003 A 
ATOM     35  C   UNL     1      -5.120  -5.283   7.197  0.00  0.00    +0.010 A 
ATOM     36  C   UNL     1      -6.351  -5.740   7.578  0.00  0.00    +0.001 A 
ATOM     37  C   UNL     1      -6.557  -6.225   8.862  0.00  0.00    +0.002 A 
ATOM     38  C   UNL     1      -5.523  -6.263   9.773  0.00  0.00    +0.026 A 
ENDBRANCH  28  29
ENDBRANCH  27  28
ENDBRANCH   3  27
TORSDOF 6
