REMARK  Name = ZINC21011845
REMARK  7 active torsions:
REMARK  status: ('A' for Active; 'I' for Inactive)
REMARK    1  A    between atoms: C_1  and  C_2
REMARK    2  A    between atoms: C_2  and  C_3
REMARK    3  A    between atoms: C_8  and  N_9
REMARK    4  A    between atoms: N_9  and  S_10
REMARK    5  A    between atoms: S_10  and  C_13
REMARK    6  A    between atoms: C_16  and  O_20
REMARK    7  A    between atoms: C_17  and  N_19
REMARK                            x       y       z     vdW  Elec       q    Type
REMARK                         _______ _______ _______ _____ _____    ______ ____
ROOT
ATOM      1  S   UNL     1       3.729   2.213   0.696  0.00  0.00    +0.072 S 
ATOM      2  O   UNL     1       4.816   1.336   0.437  0.00  0.00    -0.150 OA
ATOM      3  O   UNL     1       3.744   3.580   0.307  0.00  0.00    -0.150 OA
ENDROOT
BRANCH   1   4
ATOM      4  C   UNL     1       3.464   2.188   2.437  0.00  0.00    +0.110 A 
ATOM      5  C   UNL     1       2.850   3.260   3.057  0.00  0.00    +0.032 A 
ATOM      6  C   UNL     1       2.635   3.244   4.423  0.00  0.00    +0.049 A 
ATOM      7  C   UNL     1       3.045   2.156   5.176  0.00  0.00    +0.137 A 
ATOM      8  C   UNL     1       3.669   1.078   4.553  0.00  0.00    +0.068 A 
ATOM      9  C   UNL     1       3.876   1.099   3.182  0.00  0.00    +0.055 A 
BRANCH   8  10
ATOM     10  N   UNL     1       4.085  -0.025   5.309  0.00  0.00    -0.355 N 
ATOM     11  H   UNL     1       4.577  -0.876   4.815  0.00  0.00    +0.142 HD
ATOM     12  H   UNL     1       3.919  -0.040   6.396  0.00  0.00    +0.142 HD
ENDBRANCH   8  10
BRANCH   7  13
ATOM     13  O   UNL     1       2.839   2.142   6.520  0.00  0.00    -0.505 OA
ATOM     14  H   UNL     1       3.166   1.277   7.117  0.00  0.00    +0.292 HD
ENDBRANCH   7  13
ENDBRANCH   1   4
BRANCH   1  15
ATOM     15  N   UNL     1       2.395   1.535  -0.013  0.00  0.00    -0.216 N 
ATOM     16  H   UNL     1       2.499   0.629  -0.628  0.00  0.00    +0.174 HD
BRANCH  15  22
ATOM     17  C   UNL     1       0.009   1.308   0.272  0.00  0.00    -0.025 A 
ATOM     18  C   UNL     1      -1.234   1.883   0.449  0.00  0.00    +0.005 A 
ATOM     19  C   UNL     1      -1.356   3.257   0.536  0.00  0.00    +0.000 A 
ATOM     20  C   UNL     1      -0.236   4.061   0.437  0.00  0.00    +0.002 A 
ATOM     21  C   UNL     1       1.010   3.494   0.255  0.00  0.00    +0.025 A 
ATOM     22  C   UNL     1       1.136   2.112   0.172  0.00  0.00    +0.051 A 
BRANCH  17  24
ATOM     23  C   UNL     1       0.487  -0.756   1.561  0.00  0.00    +0.009 C 
ATOM     24  C   UNL     1       0.141  -0.191   0.182  0.00  0.00    +0.033 C 
ENDBRANCH  17  24
ENDBRANCH  15  22
ENDBRANCH   1  15
TORSDOF 6
