REMARK  Name = ZINC13064353
REMARK  12 active torsions:
REMARK  status: ('A' for Active; 'I' for Inactive)
REMARK    1  A    between atoms: C_1  and  C_2
REMARK    2  A    between atoms: C_2  and  C_3
REMARK    3  A    between atoms: C_3  and  C_5
REMARK    4  A    between atoms: C_3  and  N_73
REMARK    5  A    between atoms: N_9  and  C_10
REMARK    6  A    between atoms: C_10  and  C_11
REMARK    7  A    between atoms: C_11  and  C_12
REMARK    8  A    between atoms: C_18  and  C_19
REMARK    9  A    between atoms: C_18  and  N_73
REMARK   10  A    between atoms: C_24  and  O_31
REMARK   11  A    between atoms: O_31  and  C_32
REMARK   12  A    between atoms: C_33  and  N_73
REMARK                            x       y       z     vdW  Elec       q    Type
REMARK                         _______ _______ _______ _____ _____    ______ ____
ROOT
ATOM      1  N   UNL     1       3.576   1.935   0.753  0.00  0.00    +0.391 N 
ATOM      2  H   UNL     1       3.126   2.851   0.636  0.00  0.00    -0.080 HD
ENDROOT
BRANCH   1   3
ATOM      3  C   UNL     1       2.807   1.145   1.739  0.00  0.00    -0.067 C 
ATOM      4  C   UNL     1       1.676   0.404   1.025  0.00  0.00    -0.015 C 
ATOM      5  C   UNL     1       0.862  -0.392   2.047  0.00  0.00    -0.002 C 
ATOM      6  C   UNL     1       0.271   0.565   3.084  0.00  0.00    -0.000 C 
ATOM      7  C   UNL     1       1.402   1.307   3.798  0.00  0.00    -0.002 C 
ATOM      8  C   UNL     1       2.216   2.102   2.776  0.00  0.00    -0.015 C 
ENDBRANCH   1   3
BRANCH   1   9
ATOM      9  C   UNL     1       3.592   1.238  -0.550  0.00  0.00    +0.003 C 
BRANCH   9  10
ATOM     10  C   UNL     1       3.849   2.252  -1.635  0.00  0.00    +0.138 A 
ATOM     11  N   UNL     1       4.728   3.224  -1.606  0.00  0.00    -0.115 NA
ATOM     12  N   UNL     1       4.643   3.871  -2.717  0.00  0.00    -0.023 NA
ATOM     13  N   UNL     1       3.733   3.337  -3.454  0.00  0.00    -0.044 NA
ATOM     14  N   UNL     1       3.220   2.336  -2.822  0.00  0.00    -0.231 N 
BRANCH  14  15
ATOM     15  C   UNL     1       2.152   1.456  -3.305  0.00  0.00    +0.152 C 
BRANCH  15  16
ATOM     16  C   UNL     1       2.767   0.275  -4.058  0.00  0.00    +0.058 C 
BRANCH  16  17
ATOM     17  C   UNL     1       1.670  -0.630  -4.555  0.00  0.00    -0.046 A 
ATOM     18  C   UNL     1       1.222  -1.672  -3.764  0.00  0.00    +0.004 A 
ATOM     19  C   UNL     1       0.211  -2.499  -4.218  0.00  0.00    +0.000 A 
ATOM     20  C   UNL     1      -0.344  -2.291  -5.466  0.00  0.00    +0.000 A 
ATOM     21  C   UNL     1       0.108  -1.252  -6.259  0.00  0.00    +0.000 A 
ATOM     22  C   UNL     1       1.114  -0.422  -5.803  0.00  0.00    +0.004 A 
ENDBRANCH  16  17
ENDBRANCH  15  16
ENDBRANCH  14  15
ENDBRANCH   9  10
BRANCH   9  24
ATOM     23  C   UNL     1       4.366  -0.921   0.441  0.00  0.00    +0.002 C 
ATOM     24  C   UNL     1       4.693   0.176  -0.574  0.00  0.00    -0.011 C 
ENDBRANCH   9  24
ENDBRANCH   1   9
BRANCH   1  25
ATOM     25  C   UNL     1       4.958   2.137   1.236  0.00  0.00    -0.036 C 
BRANCH  25  26
ATOM     26  C   UNL     1       4.941   3.168   2.335  0.00  0.00    +0.001 A 
ATOM     27  C   UNL     1       5.027   2.775   3.631  0.00  0.00    +0.017 A 
ATOM     28  C   UNL     1       5.013   3.800   4.675  0.00  0.00    -0.001 A 
ATOM     29  C   UNL     1       5.103   3.454   6.029  0.00  0.00    +0.013 A 
ATOM     30  C   UNL     1       5.081   4.431   6.980  0.00  0.00    +0.046 A 
ATOM     31  C   UNL     1       4.969   5.772   6.616  0.00  0.00    +0.122 A 
ATOM     32  C   UNL     1       4.880   6.134   5.283  0.00  0.00    +0.072 A 
ATOM     33  C   UNL     1       4.900   5.153   4.300  0.00  0.00    +0.053 A 
ATOM     34  N   UNL     1       4.811   5.485   2.965  0.00  0.00    -0.322 N 
ATOM     35  H   UNL     1       4.734   6.418   2.708  0.00  0.00    +0.169 HD
ATOM     36  C   UNL     1       4.830   4.536   2.013  0.00  0.00    +0.251 A 
ATOM     37  O   UNL     1       4.749   4.866   0.843  0.00  0.00    -0.268 OA
BRANCH  31  38
ATOM     38  O   UNL     1       4.948   6.731   7.576  0.00  0.00    -0.495 OA
ATOM     39  C   UNL     1       5.045   6.293   8.933  0.00  0.00    +0.277 C 
ENDBRANCH  31  38
ENDBRANCH  25  26
ENDBRANCH   1  25
TORSDOF 10
