REMARK  Name = ZINC22486267
REMARK  7 active torsions:
REMARK  status: ('A' for Active; 'I' for Inactive)
REMARK    1  A    between atoms: C_3  and  C_6
REMARK    2  A    between atoms: C_16  and  C_19
REMARK    3  A    between atoms: N_21  and  C_22
REMARK    4  A    between atoms: C_22  and  C_23
REMARK    5  A    between atoms: C_23  and  C_24
REMARK    6  A    between atoms: C_27  and  S_30
REMARK    7  A    between atoms: S_30  and  N_33
REMARK                            x       y       z     vdW  Elec       q    Type
REMARK                         _______ _______ _______ _____ _____    ______ ____
ROOT
ATOM      1  C   UNL     1       1.401   1.608  -0.003  0.00  0.00    +0.218 C 
ATOM      2  O   UNL     1       1.779   2.316  -0.912  0.00  0.00    -0.275 OA
ATOM      3  N   UNL     1       2.245   1.289   0.998  0.00  0.00    -0.315 N 
ATOM      4  H   UNL     1       1.902   0.647   1.823  0.00  0.00    +0.149 HD
ENDROOT
BRANCH   1  15
ATOM      5  C   UNL     1      -3.918   2.074   4.798  0.00  0.00    +0.100 A 
ATOM      6  C   UNL     1      -4.683   1.369   3.859  0.00  0.00    +0.034 A 
ATOM      7  C   UNL     1      -4.085   1.028   2.660  0.00  0.00    +0.047 A 
ATOM      8  C   UNL     1      -2.756   1.409   2.458  0.00  0.00    +0.144 A 
ATOM      9  N   UNL     1      -2.107   2.070   3.404  0.00  0.00    -0.134 NA
ATOM     10  N   UNL     1      -2.660   2.393   4.517  0.00  0.00    -0.147 NA
ATOM     11  N   UNL     1      -2.114   1.088   1.267  0.00  0.00    -0.313 N 
ATOM     12  C   UNL     1      -2.861   1.601   0.111  0.00  0.00    +0.106 C 
ATOM     13  C   UNL     1      -2.207   1.108  -1.181  0.00  0.00    +0.020 C 
ATOM     14  C   UNL     1      -0.755   1.594  -1.231  0.00  0.00    +0.016 C 
ATOM     15  C   UNL     1      -0.013   1.086   0.008  0.00  0.00    +0.092 C 
ATOM     16  C   UNL     1      -0.731   1.580   1.266  0.00  0.00    +0.119 C 
BRANCH   5  19
ATOM     17  C   UNL     1      -4.691   3.394   8.259  0.00  0.00    +0.008 A 
ATOM     18  C   UNL     1      -3.934   3.140   7.137  0.00  0.00    +0.018 A 
ATOM     19  C   UNL     1      -4.509   2.462   6.095  0.00  0.00    +0.039 A 
ATOM     20  S   UNL     1      -6.155   2.160   6.716  0.00  0.00    -0.095 S 
ATOM     21  C   UNL     1      -5.976   2.957   8.303  0.00  0.00    +0.046 A 
ENDBRANCH   5  19
ENDBRANCH   1  15
BRANCH   3  22
ATOM     22  C   UNL     1       3.619   1.797   0.988  0.00  0.00    +0.109 C 
BRANCH  22  23
ATOM     23  C   UNL     1       4.359   1.290   2.228  0.00  0.00    +0.054 C 
BRANCH  23  24
ATOM     24  C   UNL     1       5.773   1.813   2.217  0.00  0.00    -0.046 A 
ATOM     25  C   UNL     1       6.776   1.081   1.610  0.00  0.00    +0.005 A 
ATOM     26  C   UNL     1       8.072   1.562   1.596  0.00  0.00    +0.029 A 
ATOM     27  C   UNL     1       8.366   2.771   2.198  0.00  0.00    +0.105 A 
ATOM     28  C   UNL     1       7.364   3.501   2.809  0.00  0.00    +0.029 A 
ATOM     29  C   UNL     1       6.067   3.022   2.819  0.00  0.00    +0.005 A 
BRANCH  27  30
ATOM     30  S   UNL     1      10.018   3.382   2.184  0.00  0.00    +0.056 S 
ATOM     31  O   UNL     1      10.667   2.775   1.075  0.00  0.00    -0.153 OA
ATOM     32  O   UNL     1       9.931   4.793   2.337  0.00  0.00    -0.153 OA
BRANCH  30  33
ATOM     33  N   UNL     1      10.766   2.804   3.544  0.00  0.00    -0.204 NA
ATOM     34  H   UNL     1      11.804   3.165   3.573  0.00  0.00    +0.144 HD
ATOM     35  H   UNL     1      10.760   1.705   3.526  0.00  0.00    +0.144 HD
ENDBRANCH  30  33
ENDBRANCH  27  30
ENDBRANCH  23  24
ENDBRANCH  22  23
ENDBRANCH   3  22
TORSDOF 7
