REMARK  Name = ZINC24892503
REMARK  15 active torsions:
REMARK  status: ('A' for Active; 'I' for Inactive)
REMARK    1  A    between atoms: C_1  and  C_2
REMARK    2  A    between atoms: C_2  and  C_3
REMARK    3  A    between atoms: C_3  and  N_4
REMARK    4  A    between atoms: C_5  and  N_35
REMARK    5  A    between atoms: C_6  and  C_13
REMARK    6  A    between atoms: C_13  and  C_15
REMARK    7  A    between atoms: C_15  and  N_16
REMARK    8  A    between atoms: N_16  and  C_17
REMARK    9  A    between atoms: N_16  and  C_26
REMARK   10  A    between atoms: C_17  and  C_18
REMARK   11  A    between atoms: C_21  and  O_24
REMARK   12  A    between atoms: O_24  and  C_25
REMARK   13  A    between atoms: C_26  and  C_28
REMARK   14  A    between atoms: C_26  and  C_29
REMARK   15  A    between atoms: C_29  and  C_30
REMARK                            x       y       z     vdW  Elec       q    Type
REMARK                         _______ _______ _______ _____ _____    ______ ____
ROOT
ATOM      1  N   UNL     1      -1.910  -0.574   0.571  0.00  0.00    +0.389 N 
ATOM      2  H   UNL     1      -2.396  -0.230  -0.354  0.00  0.00    -0.080 HD
ENDROOT
BRANCH   1   3
ATOM      3  C   UNL     1      -0.601   0.087   0.666  0.00  0.00    -0.066 C 
ATOM      4  C   UNL     1      -0.706   1.509   0.111  0.00  0.00    -0.013 C 
BRANCH   3   5
ATOM      5  C   UNL     1      -0.162   0.142   2.130  0.00  0.00    +0.027 C 
BRANCH   5   6
ATOM      6  C   UNL     1       0.020  -1.260   2.653  0.00  0.00    -0.012 A 
ATOM      7  C   UNL     1       1.089  -2.084   2.531  0.00  0.00    +0.011 A 
ATOM      8  C   UNL     1       1.035  -3.342   3.102  0.00  0.00    +0.008 A 
ATOM      9  C   UNL     1      -0.091  -3.718   3.758  0.00  0.00    +0.045 A 
ATOM     10  S   UNL     1      -1.119  -2.269   3.587  0.00  0.00    -0.102 S 
ENDBRANCH   5   6
ENDBRANCH   3   5
ENDBRANCH   1   3
BRANCH   1  11
ATOM     11  C   UNL     1      -1.758  -2.032   0.486  0.00  0.00    +0.003 C 
BRANCH  11  12
ATOM     12  C   UNL     1      -1.333  -2.413  -0.908  0.00  0.00    +0.155 C 
ATOM     13  O   UNL     1      -1.171  -1.552  -1.750  0.00  0.00    -0.294 OA
BRANCH  12  16
ATOM     14  N   UNL     1      -0.413  -5.466  -2.759  0.00  0.00    -0.281 N 
ATOM     15  C   UNL     1      -0.605  -4.141  -2.490  0.00  0.00    +0.116 A 
ATOM     16  C   UNL     1      -1.122  -3.769  -1.236  0.00  0.00    +0.118 A 
ATOM     17  C   UNL     1      -1.442  -4.838  -0.282  0.00  0.00    +0.266 A 
ATOM     18  O   UNL     1      -1.896  -4.575   0.816  0.00  0.00    -0.267 OA
ATOM     19  N   UNL     1      -1.220  -6.118  -0.647  0.00  0.00    -0.274 N 
ATOM     20  H   UNL     1      -1.452  -6.937   0.050  0.00  0.00    +0.173 HD
ATOM     21  C   UNL     1      -0.718  -6.412  -1.857  0.00  0.00    +0.331 A 
ATOM     22  O   UNL     1      -0.533  -7.578  -2.147  0.00  0.00    -0.246 OA
BRANCH  15  23
ATOM     23  N   UNL     1      -0.295  -3.195  -3.417  0.00  0.00    -0.344 N 
ATOM     24  H   UNL     1      -0.453  -2.130  -3.191  0.00  0.00    +0.144 HD
ATOM     25  H   UNL     1       0.114  -3.495  -4.394  0.00  0.00    +0.144 HD
ENDBRANCH  15  23
BRANCH  14  26
ATOM     26  C   UNL     1       0.132  -5.863  -4.060  0.00  0.00    +0.128 C 
BRANCH  26  28
ATOM     27  C   UNL     1      -0.448  -6.494  -6.407  0.00  0.00    +0.005 C 
ATOM     28  C   UNL     1      -1.016  -6.079  -5.048  0.00  0.00    +0.018 C 
ENDBRANCH  26  28
ENDBRANCH  14  26
ENDBRANCH  12  16
ENDBRANCH  11  12
ENDBRANCH   1  11
BRANCH   1  29
ATOM     29  C   UNL     1      -2.771  -0.199   1.700  0.00  0.00    -0.042 C 
BRANCH  29  30
ATOM     30  C   UNL     1      -3.314   1.190   1.478  0.00  0.00    -0.064 A 
ATOM     31  C   UNL     1      -2.710   2.273   2.088  0.00  0.00    +0.005 A 
ATOM     32  C   UNL     1      -3.202   3.547   1.882  0.00  0.00    +0.046 A 
ATOM     33  C   UNL     1      -4.311   3.738   1.071  0.00  0.00    +0.120 A 
ATOM     34  C   UNL     1      -4.919   2.648   0.464  0.00  0.00    +0.046 A 
ATOM     35  C   UNL     1      -4.420   1.377   0.669  0.00  0.00    +0.005 A 
BRANCH  33  36
ATOM     36  O   UNL     1      -4.801   4.990   0.870  0.00  0.00    -0.495 OA
ATOM     37  C   UNL     1      -4.124   6.064   1.526  0.00  0.00    +0.277 C 
ENDBRANCH  33  36
ENDBRANCH  29  30
ENDBRANCH   1  29
TORSDOF 12
