REMARK  Name = ZINC13064067
REMARK  11 active torsions:
REMARK  status: ('A' for Active; 'I' for Inactive)
REMARK    1  A    between atoms: C_1  and  C_2
REMARK    2  A    between atoms: C_2  and  C_3
REMARK    3  A    between atoms: C_3  and  C_5
REMARK    4  A    between atoms: C_3  and  N_67
REMARK    5  A    between atoms: N_9  and  C_10
REMARK    6  A    between atoms: C_16  and  C_17
REMARK    7  A    between atoms: C_16  and  N_67
REMARK    8  A    between atoms: C_22  and  C_23
REMARK    9  A    between atoms: C_22  and  N_67
REMARK   10  A    between atoms: C_27  and  O_35
REMARK   11  A    between atoms: O_35  and  C_36
REMARK                            x       y       z     vdW  Elec       q    Type
REMARK                         _______ _______ _______ _____ _____    ______ ____
ROOT
ATOM      1  N   UNL     1      -0.886   1.446  -1.287  0.00  0.00    +0.392 N 
ATOM      2  H   UNL     1      -1.860   1.345  -1.597  0.00  0.00    -0.080 HD
ENDROOT
BRANCH   1   3
ATOM      3  C   UNL     1      -0.030   0.553  -2.096  0.00  0.00    +0.003 C 
BRANCH   3   4
ATOM      4  C   UNL     1       1.341   0.437  -1.483  0.00  0.00    +0.138 A 
ATOM      5  N   UNL     1       1.619   0.257  -0.214  0.00  0.00    -0.115 NA
ATOM      6  N   UNL     1       2.900   0.210  -0.090  0.00  0.00    -0.023 NA
ATOM      7  N   UNL     1       3.448   0.356  -1.246  0.00  0.00    -0.044 NA
ATOM      8  N   UNL     1       2.519   0.494  -2.131  0.00  0.00    -0.228 N 
BRANCH   8   9
ATOM      9  C   UNL     1       2.711   0.680  -3.572  0.00  0.00    +0.111 C 
ATOM     10  C   UNL     1       3.462  -0.523  -4.146  0.00  0.00    +0.027 C 
ATOM     11  C   UNL     1       3.662  -0.329  -5.650  0.00  0.00    +0.002 C 
ATOM     12  C   UNL     1       4.475   0.944  -5.896  0.00  0.00    +0.000 C 
ATOM     13  C   UNL     1       3.725   2.147  -5.322  0.00  0.00    +0.002 C 
ATOM     14  C   UNL     1       3.524   1.953  -3.818  0.00  0.00    +0.027 C 
ENDBRANCH   8   9
ENDBRANCH   3   4
BRANCH   3  16
ATOM     15  C   UNL     1      -2.042  -0.726  -2.846  0.00  0.00    +0.002 C 
ATOM     16  C   UNL     1      -0.680  -0.831  -2.156  0.00  0.00    -0.011 C 
ENDBRANCH   3  16
ENDBRANCH   1   3
BRANCH   1  17
ATOM     17  C   UNL     1      -0.796   1.074   0.141  0.00  0.00    -0.034 C 
BRANCH  17  18
ATOM     18  C   UNL     1      -1.993   1.636   0.863  0.00  0.00    -0.027 A 
ATOM     19  C   UNL     1      -3.193   1.054   1.108  0.00  0.00    +0.009 A 
ATOM     20  C   UNL     1      -4.155   1.767   1.798  0.00  0.00    +0.008 A 
ATOM     21  C   UNL     1      -3.871   3.028   2.208  0.00  0.00    +0.045 A 
ATOM     22  S   UNL     1      -2.198   3.239   1.623  0.00  0.00    -0.103 S 
ENDBRANCH  17  18
ENDBRANCH   1  17
BRANCH   1  23
ATOM     23  C   UNL     1      -0.466   2.851  -1.470  0.00  0.00    -0.036 C 
BRANCH  23  24
ATOM     24  C   UNL     1      -0.997   3.344  -2.792  0.00  0.00    +0.001 A 
ATOM     25  C   UNL     1      -2.185   3.994  -2.842  0.00  0.00    +0.017 A 
ATOM     26  C   UNL     1      -2.673   4.462  -4.141  0.00  0.00    +0.002 A 
ATOM     27  C   UNL     1      -3.892   5.138  -4.253  0.00  0.00    +0.055 A 
ATOM     28  C   UNL     1      -4.322   5.565  -5.494  0.00  0.00    +0.121 A 
ATOM     29  C   UNL     1      -3.549   5.325  -6.627  0.00  0.00    +0.047 A 
ATOM     30  C   UNL     1      -2.347   4.660  -6.529  0.00  0.00    +0.030 A 
ATOM     31  C   UNL     1      -1.895   4.221  -5.289  0.00  0.00    +0.049 A 
ATOM     32  N   UNL     1      -0.693   3.553  -5.170  0.00  0.00    -0.322 N 
ATOM     33  H   UNL     1      -0.158   3.388  -5.962  0.00  0.00    +0.169 HD
ATOM     34  C   UNL     1      -0.251   3.133  -3.971  0.00  0.00    +0.251 A 
ATOM     35  O   UNL     1       0.818   2.551  -3.903  0.00  0.00    -0.268 OA
BRANCH  28  36
ATOM     36  O   UNL     1      -5.507   6.223  -5.609  0.00  0.00    -0.495 OA
ATOM     37  C   UNL     1      -5.893   6.638  -6.921  0.00  0.00    +0.277 C 
ENDBRANCH  28  36
ENDBRANCH  23  24
ENDBRANCH   1  23
TORSDOF 9
