REMARK  Name = ZINC01051669
REMARK  9 active torsions:
REMARK  status: ('A' for Active; 'I' for Inactive)
REMARK    1  A    between atoms: C_1  and  O_2
REMARK    2  A    between atoms: O_2  and  C_3
REMARK    3  A    between atoms: C_5  and  C_10
REMARK    4  A    between atoms: C_8  and  O_9
REMARK    5  A    between atoms: N_11  and  C_12
REMARK    6  A    between atoms: C_13  and  C_21
REMARK    7  A    between atoms: C_24  and  O_29
REMARK    8  A    between atoms: C_25  and  O_27
REMARK    9  A    between atoms: O_27  and  C_28
REMARK                            x       y       z     vdW  Elec       q    Type
REMARK                         _______ _______ _______ _____ _____    ______ ____
ROOT
ATOM      1  C   UNL     1       3.615   0.433   6.170  0.00  0.00    +0.163 A 
ATOM      2  C   UNL     1       4.923   0.910   6.212  0.00  0.00    +0.091 A 
ATOM      3  N   UNL     1       5.078   1.588   7.355  0.00  0.00    -0.338 N 
ATOM      4  C   UNL     1       3.943   1.568   8.042  0.00  0.00    +0.117 A 
ATOM      5  N   UNL     1       3.007   0.861   7.330  0.00  0.00    -0.286 N 
ATOM      6  C   UNL     1       1.744   0.696   7.819  0.00  0.00    +0.094 A 
ATOM      7  C   UNL     1       1.392   1.228   9.009  0.00  0.00    +0.018 A 
ATOM      8  C   UNL     1       2.326   1.960   9.760  0.00  0.00    +0.005 A 
ATOM      9  C   UNL     1       3.592   2.125   9.288  0.00  0.00    +0.045 A 
ATOM     10  H   UNL     1       5.896   2.026   7.638  0.00  0.00    +0.167 HD
ENDROOT
BRANCH   2  11
ATOM     11  C   UNL     1       5.959   0.704   5.174  0.00  0.00    +0.006 A 
ATOM     12  C   UNL     1       6.137  -0.557   4.605  0.00  0.00    +0.014 A 
ATOM     13  C   UNL     1       7.102  -0.748   3.638  0.00  0.00    +0.050 A 
ATOM     14  C   UNL     1       7.899   0.311   3.230  0.00  0.00    +0.158 A 
ATOM     15  C   UNL     1       7.726   1.573   3.795  0.00  0.00    +0.162 A 
ATOM     16  C   UNL     1       6.756   1.772   4.759  0.00  0.00    +0.059 A 
BRANCH  15  17
ATOM     17  O   UNL     1       8.509   2.610   3.393  0.00  0.00    -0.491 OA
ATOM     18  C   UNL     1       8.278   3.876   4.015  0.00  0.00    +0.277 C 
ENDBRANCH  15  17
BRANCH  14  19
ATOM     19  O   UNL     1       8.849   0.118   2.277  0.00  0.00    -0.503 OA
ATOM     20  H   UNL     1       8.536   0.263   1.374  0.00  0.00    +0.292 HD
ENDBRANCH  14  19
ENDBRANCH   2  11
BRANCH   1  22
ATOM     21  C   UNL     1       2.454   0.297   4.188  0.00  0.00    +0.121 C 
ATOM     22  N   UNL     1       3.052  -0.299   5.186  0.00  0.00    -0.235 NA
BRANCH  21  25
ATOM     23  C   UNL     1       0.626  -0.619   1.042  0.00  0.00    +0.162 A 
ATOM     24  C   UNL     1       1.200   0.136   2.047  0.00  0.00    +0.058 A 
ATOM     25  C   UNL     1       1.841  -0.500   3.116  0.00  0.00    -0.003 A 
ATOM     26  C   UNL     1       1.897  -1.898   3.161  0.00  0.00    +0.013 A 
ATOM     27  C   UNL     1       1.322  -2.643   2.154  0.00  0.00    +0.050 A 
ATOM     28  C   UNL     1       0.682  -2.010   1.097  0.00  0.00    +0.158 A 
BRANCH  23  30
ATOM     29  C   UNL     1      -0.017   1.425   0.010  0.00  0.00    +0.277 C 
ATOM     30  O   UNL     1       0.002  -0.004   0.002  0.00  0.00    -0.491 OA
ENDBRANCH  23  30
BRANCH  28  31
ATOM     31  O   UNL     1       0.112  -2.751   0.110  0.00  0.00    -0.503 OA
ATOM     32  H   UNL     1       0.708  -2.952  -0.625  0.00  0.00    +0.292 HD
ENDBRANCH  28  31
ENDBRANCH  21  25
ENDBRANCH   1  22
TORSDOF 7
