REMARK  Name = ZINC36055627
REMARK  18 active torsions:
REMARK  status: ('A' for Active; 'I' for Inactive)
REMARK    1  A    between atoms: C_1  and  C_2
REMARK    2  A    between atoms: C_2  and  C_3
REMARK    3  A    between atoms: C_2  and  C_4
REMARK    4  A    between atoms: C_4  and  C_5
REMARK    5  A    between atoms: N_7  and  C_8
REMARK    6  A    between atoms: N_7  and  C_13
REMARK    7  A    between atoms: C_8  and  C_9
REMARK    8  A    between atoms: C_9  and  N_10
REMARK    9  A    between atoms: N_10  and  C_11
REMARK   10  A    between atoms: N_10  and  C_12
REMARK   11  A    between atoms: C_13  and  C_14
REMARK   12  A    between atoms: C_14  and  N_16
REMARK   13  A    between atoms: C_19  and  C_30
REMARK   14  A    between atoms: N_21  and  C_22
REMARK   15  A    between atoms: C_25  and  O_28
REMARK   16  A    between atoms: O_28  and  C_29
REMARK   17  A    between atoms: C_33  and  O_36
REMARK   18  A    between atoms: O_36  and  C_37
REMARK                            x       y       z     vdW  Elec       q    Type
REMARK                         _______ _______ _______ _____ _____    ______ ____
ROOT
ATOM      1  N   UNL     1      -2.471  -6.128   1.236  0.00  0.00    -0.145 NA
ATOM      2  C   UNL     1      -2.416  -6.680   2.448  0.00  0.00    +0.205 A 
ATOM      3  N   UNL     1      -2.386  -6.011   3.629  0.00  0.00    -0.326 N 
ATOM      4  C   UNL     1      -2.330  -6.951   4.651  0.00  0.00    +0.066 A 
ATOM      5  C   UNL     1      -2.326  -8.172   4.088  0.00  0.00    +0.120 A 
ATOM      6  N   UNL     1      -2.385  -8.012   2.718  0.00  0.00    -0.287 N 
ATOM      7  H   UNL     1      -2.401  -5.047   3.740  0.00  0.00    +0.169 HD
ENDROOT
BRANCH   6   8
ATOM      8  C   UNL     1      -2.406  -9.045   1.770  0.00  0.00    +0.049 A 
ATOM      9  C   UNL     1      -2.457  -8.743   0.416  0.00  0.00    +0.030 A 
ATOM     10  C   UNL     1      -2.478  -9.760  -0.518  0.00  0.00    +0.047 A 
ATOM     11  C   UNL     1      -2.448 -11.084  -0.103  0.00  0.00    +0.120 A 
ATOM     12  C   UNL     1      -2.397 -11.386   1.250  0.00  0.00    +0.047 A 
ATOM     13  C   UNL     1      -2.371 -10.370   2.185  0.00  0.00    +0.030 A 
BRANCH  11  14
ATOM     14  O   UNL     1      -2.469 -12.085  -1.022  0.00  0.00    -0.495 OA
ATOM     15  C   UNL     1      -2.436 -13.424  -0.524  0.00  0.00    +0.277 C 
ENDBRANCH  11  14
ENDBRANCH   6   8
BRANCH   4  16
ATOM     16  C   UNL     1      -2.283  -6.659   6.101  0.00  0.00    +0.000 A 
ATOM     17  C   UNL     1      -2.222  -7.705   7.023  0.00  0.00    +0.013 A 
ATOM     18  C   UNL     1      -2.178  -7.430   8.373  0.00  0.00    +0.046 A 
ATOM     19  C   UNL     1      -2.194  -6.114   8.816  0.00  0.00    +0.120 A 
ATOM     20  C   UNL     1      -2.254  -5.071   7.902  0.00  0.00    +0.046 A 
ATOM     21  C   UNL     1      -2.293  -5.338   6.550  0.00  0.00    +0.013 A 
BRANCH  19  22
ATOM     22  O   UNL     1      -2.151  -5.846  10.148  0.00  0.00    -0.495 OA
ATOM     23  C   UNL     1      -2.170  -4.471  10.534  0.00  0.00    +0.277 C 
ENDBRANCH  19  22
ENDBRANCH   4  16
BRANCH   1  24
ATOM     24  C   UNL     1      -2.495  -4.807   1.109  0.00  0.00    +0.256 C 
ATOM     25  O   UNL     1      -2.468  -4.100   2.098  0.00  0.00    -0.272 OA
BRANCH  24  26
ATOM     26  C   UNL     1      -2.558  -4.183  -0.262  0.00  0.00    +0.205 C 
BRANCH  26  29
ATOM     27  C   UNL     1      -1.416  -2.035  -0.119  0.00  0.00    +0.216 C 
ATOM     28  O   UNL     1      -0.359  -2.623  -0.213  0.00  0.00    -0.276 OA
ATOM     29  N   UNL     1      -2.574  -2.724  -0.133  0.00  0.00    -0.294 N 
BRANCH  27  30
ATOM     30  C   UNL     1      -1.433  -0.534   0.013  0.00  0.00    +0.099 C 
BRANCH  30  32
ATOM     31  C   UNL     1      -0.019   1.526   0.010  0.00  0.00    +0.008 C 
ATOM     32  C   UNL     1       0.002  -0.004   0.002  0.00  0.00    -0.008 C 
ATOM     33  C   UNL     1       0.742  -0.511   1.242  0.00  0.00    +0.008 C 
ENDBRANCH  30  32
ENDBRANCH  27  30
BRANCH  29  34
ATOM     34  C   UNL     1      -3.850  -2.013  -0.020  0.00  0.00    +0.090 C 
BRANCH  34  35
ATOM     35  C   UNL     1      -4.352  -1.640  -1.417  0.00  0.00    -0.060 C 
BRANCH  35  36
ATOM     36  N   UNL     1      -5.631  -0.927  -1.303  0.00  0.00    +0.377 N 
ATOM     37  C   UNL     1      -6.054  -0.464  -2.632  0.00  0.00    -0.097 C 
ATOM     38  C   UNL     1      -6.649  -1.833  -0.754  0.00  0.00    -0.097 C 
ATOM     39  H   UNL     1      -5.521  -0.134  -0.690  0.00  0.00    -0.083 HD
ENDBRANCH  35  36
ENDBRANCH  34  35
ENDBRANCH  29  34
ENDBRANCH  26  29
ENDBRANCH  24  26
ENDBRANCH   1  24
TORSDOF 12
