REMARK  Name = ZINC38748293
REMARK  6 active torsions:
REMARK  status: ('A' for Active; 'I' for Inactive)
REMARK    1  A    between atoms: C_1  and  C_2
REMARK    2  A    between atoms: C_4  and  N_17
REMARK    3  A    between atoms: N_8  and  C_11
REMARK    4  A    between atoms: N_9  and  C_10
REMARK    5  A    between atoms: C_18  and  C_28
REMARK    6  A    between atoms: C_29  and  C_30
REMARK                            x       y       z     vdW  Elec       q    Type
REMARK                         _______ _______ _______ _____ _____    ______ ____
ROOT
ATOM      1  N   UNL     1      -0.460  -0.983  -2.076  0.00  0.00    -0.279 N 
ATOM      2  C   UNL     1      -0.556  -0.442  -3.334  0.00  0.00    +0.138 A 
ATOM      3  N   UNL     1      -1.514  -0.755  -4.176  0.00  0.00    -0.229 NA
ATOM      4  C   UNL     1      -2.475  -1.639  -3.855  0.00  0.00    +0.078 A 
ATOM      5  C   UNL     1      -3.494  -1.970  -4.755  0.00  0.00    +0.028 A 
ATOM      6  C   UNL     1      -4.454  -2.873  -4.393  0.00  0.00    +0.002 A 
ATOM      7  C   UNL     1      -4.435  -3.471  -3.140  0.00  0.00    +0.001 A 
ATOM      8  C   UNL     1      -3.444  -3.165  -2.231  0.00  0.00    +0.015 A 
ATOM      9  C   UNL     1      -2.456  -2.248  -2.578  0.00  0.00    +0.065 A 
ATOM     10  C   UNL     1      -1.372  -1.888  -1.650  0.00  0.00    +0.263 A 
ATOM     11  O   UNL     1      -1.301  -2.382  -0.540  0.00  0.00    -0.267 OA
ENDROOT
BRANCH   1  14
ATOM     12  C   UNL     1       0.164   1.596   0.013  0.00  0.00    +0.028 C 
ATOM     13  C   UNL     1       0.095   0.070   0.101  0.00  0.00    +0.105 C 
ATOM     14  C   UNL     1       0.638  -0.584  -1.193  0.00  0.00    +0.198 C 
ATOM     15  C   UNL     1       1.374  -1.798  -0.655  0.00  0.00    +0.258 C 
ATOM     16  O   UNL     1       1.750  -2.750  -1.306  0.00  0.00    -0.272 OA
ATOM     17  N   UNL     1       1.534  -1.632   0.670  0.00  0.00    -0.200 N 
ATOM     18  N   UNL     1       1.037  -0.445   1.122  0.00  0.00    -0.217 NA
ATOM     19  C   UNL     1       2.118   0.517   1.373  0.00  0.00    +0.128 C 
BRANCH  17  20
ATOM     20  C   UNL     1       2.147  -2.579   1.499  0.00  0.00    +0.053 A 
ATOM     21  C   UNL     1       1.546  -2.948   2.696  0.00  0.00    +0.025 A 
ATOM     22  C   UNL     1       2.154  -3.882   3.512  0.00  0.00    +0.002 A 
ATOM     23  C   UNL     1       3.358  -4.450   3.139  0.00  0.00    +0.000 A 
ATOM     24  C   UNL     1       3.959  -4.084   1.948  0.00  0.00    +0.002 A 
ATOM     25  C   UNL     1       3.354  -3.155   1.125  0.00  0.00    +0.025 A 
ENDBRANCH  17  20
ENDBRANCH   1  14
BRANCH   2  26
ATOM     26  C   UNL     1       0.454   0.529  -3.756  0.00  0.00    +0.047 C 
ATOM     27  C   UNL     1       0.322   1.175  -4.947  0.00  0.00    +0.009 C 
BRANCH  27  28
ATOM     28  C   UNL     1       1.291   2.105  -5.351  0.00  0.00    -0.019 C 
ATOM     29  C   UNL     1       1.303   2.850  -6.527  0.00  0.00    +0.003 A 
ATOM     30  C   UNL     1       0.416   2.917  -7.624  0.00  0.00    +0.010 A 
ATOM     31  C   UNL     1       0.687   3.753  -8.657  0.00  0.00    +0.001 A 
ATOM     32  C   UNL     1       1.831   4.560  -8.669  0.00  0.00    +0.002 A 
ATOM     33  C   UNL     1       2.725   4.548  -7.653  0.00  0.00    +0.026 A 
ATOM     34  C   UNL     1       2.511   3.697  -6.533  0.00  0.00    +0.043 A 
ATOM     35  N   UNL     1       3.214   3.504  -5.441  0.00  0.00    -0.380 N 
ATOM     36  C   UNL     1       2.538   2.513  -4.598  0.00  0.00    +0.149 C 
ATOM     37  H   UNL     1       4.048   3.950  -5.224  0.00  0.00    +0.160 HD
ENDBRANCH  27  28
ENDBRANCH   2  26
TORSDOF 4
