REMARK  Name = ZINC36378888
REMARK  7 active torsions:
REMARK  status: ('A' for Active; 'I' for Inactive)
REMARK    1  A    between atoms: C_1  and  C_2
REMARK    2  A    between atoms: C_2  and  C_3
REMARK    3  A    between atoms: C_2  and  C_4
REMARK    4  A    between atoms: C_4  and  C_6
REMARK    5  A    between atoms: C_4  and  N_39
REMARK    6  A    between atoms: C_18  and  C_32
REMARK    7  A    between atoms: C_32  and  C_33
REMARK                            x       y       z     vdW  Elec       q    Type
REMARK                         _______ _______ _______ _____ _____    ______ ____
ROOT
ATOM      1  C   UNL     1      -2.629   1.649   3.841  0.00  0.00    +0.237 C 
ATOM      2  O   UNL     1      -3.809   1.809   3.611  0.00  0.00    -0.274 OA
ATOM      3  N   UNL     1      -2.159   0.420   4.127  0.00  0.00    -0.285 N 
ATOM      4  C   UNL     1      -0.788   0.085   4.529  0.00  0.00    +0.112 C 
ATOM      5  C   UNL     1      -0.794  -1.281   5.219  0.00  0.00    +0.066 C 
ATOM      6  C   UNL     1      -2.233  -1.795   5.080  0.00  0.00    +0.204 C 
ATOM      7  C   UNL     1      -2.930  -0.847   4.090  0.00  0.00    +0.202 C 
ATOM      8  C   UNL     1      -2.902  -1.375   2.699  0.00  0.00    +0.238 C 
ATOM      9  O   UNL     1      -1.836  -1.927   2.391  0.00  0.00    -0.274 OA
ATOM     10  N   UNL     1      -3.797  -1.362   1.722  0.00  0.00    -0.302 N 
ATOM     11  C   UNL     1      -5.193  -0.945   1.645  0.00  0.00    +0.163 C 
ATOM     12  C   UNL     1      -6.040  -2.170   1.456  0.00  0.00    +0.237 C 
ATOM     13  O   UNL     1      -5.505  -3.090   0.857  0.00  0.00    -0.273 OA
ATOM     14  N   UNL     1      -7.311  -2.355   1.831  0.00  0.00    -0.290 N 
ATOM     15  C   UNL     1      -7.804  -3.669   1.833  0.00  0.00    +0.075 C 
ATOM     16  C   UNL     1      -7.099  -4.662   2.348  0.00  0.00    +0.023 C 
ATOM     17  C   UNL     1      -5.827  -4.368   3.018  0.00  0.00    -0.024 A 
ATOM     18  C   UNL     1      -4.649  -5.036   2.665  0.00  0.00    +0.011 A 
ATOM     19  C   UNL     1      -3.453  -4.663   3.248  0.00  0.00    +0.046 A 
ATOM     20  C   UNL     1      -3.418  -3.640   4.184  0.00  0.00    +0.121 A 
ATOM     21  C   UNL     1      -4.600  -3.037   4.601  0.00  0.00    +0.046 A 
ATOM     22  C   UNL     1      -5.787  -3.391   4.011  0.00  0.00    +0.011 A 
ATOM     23  O   UNL     1      -2.243  -3.155   4.661  0.00  0.00    -0.486 OA
ATOM     24  H   UNL     1      -3.432  -1.719   0.853  0.00  0.00    +0.150 HD
ATOM     25  H   UNL     1      -7.888  -1.610   2.089  0.00  0.00    +0.154 HD
ENDROOT
BRANCH   1  26
ATOM     26  C   UNL     1      -1.689   2.827   3.808  0.00  0.00    +0.161 C 
BRANCH  26  27
ATOM     27  N   UNL     1      -1.790   3.496   2.508  0.00  0.00    -0.306 N 
ATOM     28  C   UNL     1      -0.780   4.273   2.070  0.00  0.00    +0.326 C 
ATOM     29  O   UNL     1       0.249   4.347   2.708  0.00  0.00    -0.280 OA
ATOM     30  H   UNL     1      -2.584   3.379   1.963  0.00  0.00    +0.149 HD
ENDBRANCH  26  27
BRANCH  26  32
ATOM     31  C   UNL     1      -3.441   4.409   4.625  0.00  0.00    +0.009 C 
ATOM     32  C   UNL     1      -2.064   3.810   4.918  0.00  0.00    +0.012 C 
ATOM     33  C   UNL     1      -2.102   3.075   6.259  0.00  0.00    +0.009 C 
ENDBRANCH  26  32
ENDBRANCH   1  26
BRANCH  11  34
ATOM     34  C   UNL     1      -5.685  -0.121   2.821  0.00  0.00    +0.067 C 
BRANCH  34  35
ATOM     35  C   UNL     1      -6.977   0.560   2.452  0.00  0.00    -0.045 A 
ATOM     36  C   UNL     1      -7.590   0.273   1.246  0.00  0.00    +0.004 A 
ATOM     37  C   UNL     1      -8.775   0.898   0.907  0.00  0.00    +0.000 A 
ATOM     38  C   UNL     1      -9.348   1.810   1.774  0.00  0.00    +0.000 A 
ATOM     39  C   UNL     1      -8.736   2.096   2.980  0.00  0.00    +0.000 A 
ATOM     40  C   UNL     1      -7.553   1.468   3.321  0.00  0.00    +0.004 A 
ENDBRANCH  34  35
ENDBRANCH  11  34
TORSDOF 5
