REMARK  Name = ZINC20907361
REMARK  10 active torsions:
REMARK  status: ('A' for Active; 'I' for Inactive)
REMARK    1  A    between atoms: C_1  and  C_2
REMARK    2  A    between atoms: C_2  and  S_3
REMARK    3  A    between atoms: S_3  and  C_4
REMARK    4  A    between atoms: C_9  and  N_10
REMARK    5  A    between atoms: C_11  and  C_13
REMARK    6  A    between atoms: C_13  and  S_14
REMARK    7  A    between atoms: S_14  and  C_15
REMARK    8  A    between atoms: N_20  and  N_21
REMARK    9  A    between atoms: C_22  and  C_23
REMARK   10  A    between atoms: C_32  and  O_33
REMARK                            x       y       z     vdW  Elec       q    Type
REMARK                         _______ _______ _______ _____ _____    ______ ____
ROOT
ATOM      1  C   UNL     1      -3.236  11.553   0.134  0.00  0.00    +0.211 A 
ATOM      2  N   UNL     1      -3.667  10.256   0.138  0.00  0.00    -0.186 NA
ATOM      3  C   UNL     1      -2.566   9.445   0.133  0.00  0.00    +0.232 A 
ATOM      4  N   UNL     1      -1.500  10.208   0.130  0.00  0.00    -0.245 N 
ATOM      5  N   UNL     1      -1.924  11.544   0.126  0.00  0.00    -0.144 NA
ATOM      6  N   UNL     1      -2.576   8.058   0.136  0.00  0.00    -0.205 N 
ATOM      7  H   UNL     1      -3.532   7.515   0.143  0.00  0.00    +0.177 HD
ATOM      8  H   UNL     1      -0.498   9.754   0.132  0.00  0.00    +0.192 HD
ENDROOT
BRANCH   6   9
ATOM      9  N   UNL     1      -1.367   7.349   0.130  0.00  0.00    -0.187 NA
ATOM     10  C   UNL     1      -1.376   6.049   0.133  0.00  0.00    +0.142 C 
BRANCH  10  11
ATOM     11  C   UNL     1      -0.109   5.305   0.126  0.00  0.00    +0.044 A 
ATOM     12  C   UNL     1      -0.101   3.844   0.129  0.00  0.00    -0.006 A 
ATOM     13  C   UNL     1      -1.291   3.106   0.138  0.00  0.00    +0.009 A 
ATOM     14  C   UNL     1      -1.239   1.744   0.136  0.00  0.00    +0.001 A 
ATOM     15  C   UNL     1      -0.018   1.074   0.135  0.00  0.00    +0.001 A 
ATOM     16  C   UNL     1       1.158   1.760   0.126  0.00  0.00    +0.008 A 
ATOM     17  C   UNL     1       1.143   3.166   0.123  0.00  0.00    -0.017 A 
ATOM     18  C   UNL     1       2.337   3.908   0.113  0.00  0.00    +0.012 A 
ATOM     19  C   UNL     1       2.311   5.267   0.111  0.00  0.00    +0.046 A 
ATOM     20  C   UNL     1       1.112   5.979   0.117  0.00  0.00    +0.126 A 
BRANCH  20  21
ATOM     21  O   UNL     1       1.134   7.337   0.114  0.00  0.00    -0.506 OA
ATOM     22  H   UNL     1       2.095   7.872   0.107  0.00  0.00    +0.292 HD
ENDBRANCH  20  21
ENDBRANCH  10  11
ENDBRANCH   6   9
BRANCH   1  23
ATOM     23  S   UNL     1      -4.261  12.985   0.137  0.00  0.00    -0.075 S 
BRANCH  23  24
ATOM     24  C   UNL     1      -3.086  14.367   0.128  0.00  0.00    +0.173 C 
BRANCH  24  26
ATOM     25  N   UNL     1      -3.171  16.839   0.124  0.00  0.00    -0.284 N 
ATOM     26  C   UNL     1      -3.843  15.670   0.130  0.00  0.00    +0.228 C 
ATOM     27  O   UNL     1      -5.056  15.667   0.137  0.00  0.00    -0.275 OA
ATOM     28  H   UNL     1      -2.074  16.843   0.192  0.00  0.00    +0.155 HD
BRANCH  25  34
ATOM     29  C   UNL     1      -3.325  19.122  -0.672  0.00  0.00    +0.029 A 
ATOM     30  C   UNL     1      -4.024  20.318  -0.759  0.00  0.00    +0.016 A 
ATOM     31  C   UNL     1      -5.259  20.442  -0.152  0.00  0.00    +0.001 A 
ATOM     32  C   UNL     1      -5.802  19.377   0.544  0.00  0.00    +0.002 A 
ATOM     33  C   UNL     1      -5.115  18.181   0.633  0.00  0.00    +0.024 A 
ATOM     34  C   UNL     1      -3.872  18.049   0.031  0.00  0.00    +0.047 A 
BRANCH  29  35
ATOM     35  S   UNL     1      -1.750  18.961  -1.446  0.00  0.00    -0.124 S 
BRANCH  35  37
ATOM     36  C   UNL     1      -0.120  20.578  -2.932  0.00  0.00    +0.015 C 
ATOM     37  C   UNL     1      -1.471  20.580  -2.215  0.00  0.00    +0.071 C 
ENDBRANCH  35  37
ENDBRANCH  29  35
ENDBRANCH  25  34
ENDBRANCH  24  26
ENDBRANCH  23  24
ENDBRANCH   1  23
TORSDOF 9
