REMARK  Name = ZINC41107213
REMARK  7 active torsions:
REMARK  status: ('A' for Active; 'I' for Inactive)
REMARK    1  A    between atoms: C_1  and  C_2
REMARK    2  A    between atoms: C_3  and  C_17
REMARK    3  A    between atoms: C_4  and  C_10
REMARK    4  A    between atoms: N_19  and  C_20
REMARK    5  A    between atoms: C_25  and  C_26
REMARK    6  A    between atoms: C_26  and  C_27
REMARK    7  A    between atoms: C_26  and  C_28
REMARK                            x       y       z     vdW  Elec       q    Type
REMARK                         _______ _______ _______ _____ _____    ______ ____
ROOT
ATOM      1  C   UNL     1       0.552   1.161  -0.288  0.00  0.00    +0.061 C 
ATOM      2  C   UNL     1       0.322  -0.322  -0.149  0.00  0.00    +0.017 C 
ATOM      3  C   UNL     1      -0.938  -0.804  -0.183  0.00  0.00    +0.056 C 
ATOM      4  C   UNL     1      -1.124  -2.301  -0.040  0.00  0.00    +0.142 C 
ATOM      5  N   UNL     1       0.094  -3.112   0.126  0.00  0.00    -0.315 N 
ATOM      6  C   UNL     1       1.286  -2.483   0.141  0.00  0.00    +0.135 C 
ATOM      7  S   UNL     1       2.711  -3.413   0.333  0.00  0.00    -0.019 S 
ATOM      8  N   UNL     1       1.393  -1.156   0.005  0.00  0.00    -0.300 N 
ATOM      9  H   UNL     1       0.040  -4.076   0.223  0.00  0.00    +0.149 HD
ATOM     10  H   UNL     1       2.280  -0.764   0.019  0.00  0.00    +0.154 HD
ENDROOT
BRANCH   4  11
ATOM     11  C   UNL     1      -1.849  -2.799  -1.264  0.00  0.00    +0.013 A 
ATOM     12  C   UNL     1      -1.132  -3.270  -2.348  0.00  0.00    +0.008 A 
ATOM     13  C   UNL     1      -1.797  -3.726  -3.471  0.00  0.00    +0.001 A 
ATOM     14  C   UNL     1      -3.179  -3.712  -3.511  0.00  0.00    +0.003 A 
ATOM     15  C   UNL     1      -3.897  -3.241  -2.428  0.00  0.00    +0.039 A 
ATOM     16  C   UNL     1      -3.232  -2.789  -1.301  0.00  0.00    +0.129 A 
ATOM     17  F   UNL     1      -3.934  -2.334  -0.239  0.00  0.00    -0.205 F 
ENDBRANCH   4  11
BRANCH   3  18
ATOM     18  C   UNL     1      -2.048   0.059  -0.347  0.00  0.00    +0.248 C 
ATOM     19  O   UNL     1      -2.756   0.328   0.607  0.00  0.00    -0.270 OA
ATOM     20  N   UNL     1      -2.322   0.583  -1.558  0.00  0.00    -0.281 N 
ATOM     21  H   UNL     1      -1.800   0.315  -2.331  0.00  0.00    +0.155 HD
BRANCH  20  22
ATOM     22  C   UNL     1      -3.358   1.511  -1.701  0.00  0.00    +0.037 A 
ATOM     23  C   UNL     1      -4.501   1.404  -0.919  0.00  0.00    +0.023 A 
ATOM     24  C   UNL     1      -5.522   2.322  -1.062  0.00  0.00    +0.002 A 
ATOM     25  C   UNL     1      -5.408   3.348  -1.982  0.00  0.00    +0.000 A 
ATOM     26  C   UNL     1      -4.271   3.457  -2.762  0.00  0.00    +0.006 A 
ATOM     27  C   UNL     1      -3.244   2.545  -2.620  0.00  0.00    -0.024 A 
BRANCH  27  28
ATOM     28  C   UNL     1      -2.003   2.669  -3.466  0.00  0.00    +0.015 C 
ATOM     29  C   UNL     1      -2.394   2.693  -4.945  0.00  0.00    +0.012 C 
ATOM     30  C   UNL     1      -1.270   3.964  -3.111  0.00  0.00    +0.012 C 
ENDBRANCH  27  28
ENDBRANCH  20  22
ENDBRANCH   3  18
TORSDOF 4
