REMARK  Name = ZINC09272863
REMARK  7 active torsions:
REMARK  status: ('A' for Active; 'I' for Inactive)
REMARK    1  A    between atoms: C_1  and  C_2
REMARK    2  A    between atoms: C_9  and  N_31
REMARK    3  A    between atoms: C_10  and  C_29
REMARK    4  A    between atoms: C_11  and  C_13
REMARK    5  A    between atoms: C_17  and  O_19
REMARK    6  A    between atoms: O_19  and  C_20
REMARK    7  A    between atoms: C_20  and  C_21
REMARK                            x       y       z     vdW  Elec       q    Type
REMARK                         _______ _______ _______ _____ _____    ______ ____
ROOT
ATOM      1  C   UNL     1      -0.018   1.503   0.010  0.00  0.00    +0.065 C 
ATOM      2  C   UNL     1       0.002  -0.004   0.002  0.00  0.00    +0.041 A 
ATOM      3  C   UNL     1       0.008  -0.790  -1.085  0.00  0.00    +0.049 A 
ATOM      4  C   UNL     1       0.027  -2.135  -0.654  0.00  0.00    +0.245 A 
ATOM      5  N   UNL     1       0.034  -2.141   0.647  0.00  0.00    -0.135 NA
ATOM      6  N   UNL     1       0.024  -0.809   1.090  0.00  0.00    -0.278 N 
ATOM      7  H   UNL     1       0.029  -0.516   2.015  0.00  0.00    +0.189 HD
ATOM      8  O   UNL     1       0.034  -3.173  -1.533  0.00  0.00    -0.421 OA
ATOM      9  C   UNL     1      -0.251  -2.898  -2.821  0.00  0.00    +0.201 C 
ATOM     10  C   UNL     1      -0.287  -1.657  -3.349  0.00  0.00    +0.098 C 
ATOM     11  C   UNL     1      -0.003  -0.413  -2.545  0.00  0.00    +0.101 C 
ENDROOT
BRANCH  11  12
ATOM     12  C   UNL     1       1.340   0.149  -2.935  0.00  0.00    -0.031 A 
ATOM     13  C   UNL     1       2.477  -0.627  -2.807  0.00  0.00    +0.005 A 
ATOM     14  C   UNL     1       3.710  -0.115  -3.165  0.00  0.00    +0.004 A 
ATOM     15  C   UNL     1       3.809   1.175  -3.650  0.00  0.00    +0.045 A 
ATOM     16  C   UNL     1       2.670   1.956  -3.779  0.00  0.00    +0.121 A 
ATOM     17  C   UNL     1       1.433   1.437  -3.425  0.00  0.00    +0.050 A 
BRANCH  16  18
ATOM     18  O   UNL     1       2.765   3.224  -4.256  0.00  0.00    -0.487 OA
BRANCH  18  19
ATOM     19  C   UNL     1       4.070   3.690  -4.606  0.00  0.00    +0.266 C 
BRANCH  19  20
ATOM     20  C   UNL     1       3.979   5.107  -5.111  0.00  0.00    +0.008 A 
ATOM     21  C   UNL     1       2.752   5.743  -5.169  0.00  0.00    +0.010 A 
ATOM     22  C   UNL     1       2.668   7.042  -5.633  0.00  0.00    +0.020 A 
ATOM     23  C   UNL     1       3.811   7.707  -6.039  0.00  0.00    +0.042 A 
ATOM     24  C   UNL     1       5.038   7.072  -5.981  0.00  0.00    +0.040 A 
ATOM     25  C   UNL     1       5.123   5.773  -5.512  0.00  0.00    +0.049 A 
ATOM     26 CL   UNL     1       6.663   4.977  -5.433  0.00  0.00    -0.083 Cl
ATOM     27 CL   UNL     1       3.705   9.339  -6.622  0.00  0.00    -0.083 Cl
ENDBRANCH  19  20
ENDBRANCH  18  19
ENDBRANCH  16  18
ENDBRANCH  11  12
BRANCH   9  28
ATOM     28  N   UNL     1      -0.523  -3.954  -3.655  0.00  0.00    -0.328 N 
ATOM     29  H   UNL     1      -0.506  -4.861  -3.310  0.00  0.00    +0.145 HD
ATOM     30  H   UNL     1      -0.732  -3.794  -4.588  0.00  0.00    +0.145 HD
ENDBRANCH   9  28
BRANCH  10  31
ATOM     31  C   UNL     1      -0.609  -1.514  -4.737  0.00  0.00    +0.101 C 
ATOM     32  N   UNL     1      -0.864  -1.400  -5.838  0.00  0.00    -0.191 NA
ENDBRANCH  10  31
TORSDOF 6
