REMARK  Name = ZINC66273255
REMARK  4 active torsions:
REMARK  status: ('A' for Active; 'I' for Inactive)
REMARK    1  A    between atoms: C_13  and  C_16
REMARK    2  A    between atoms: C_16  and  O_18
REMARK    3  A    between atoms: O_18  and  C_19
REMARK    4  A    between atoms: C_22  and  C_25
REMARK                            x       y       z     vdW  Elec       q    Type
REMARK                         _______ _______ _______ _____ _____    ______ ____
ROOT
ATOM      1  C   UNL     1       0.195   1.487   0.048  0.00  0.00    +0.002 A 
ATOM      2  C   UNL     1       1.387   2.195   0.012  0.00  0.00    +0.001 A 
ATOM      3  C   UNL     1       2.585   1.504  -0.023  0.00  0.00    +0.017 A 
ATOM      4  C   UNL     1       2.575   0.132  -0.022  0.00  0.00    +0.041 A 
ATOM      5  C   UNL     1       1.381  -0.623   0.014  0.00  0.00    +0.080 A 
ATOM      6  C   UNL     1       0.176   0.116   0.049  0.00  0.00    +0.029 A 
ATOM      7  N   UNL     1       1.537  -1.965   0.010  0.00  0.00    -0.225 NA
ATOM      8  C   UNL     1       2.718  -2.538  -0.025  0.00  0.00    +0.162 A 
ATOM      9  S   UNL     1       3.822  -1.133  -0.059  0.00  0.00    -0.052 S 
ATOM     10  N   UNL     1       3.028  -3.882  -0.034  0.00  0.00    -0.310 N 
ATOM     11  C   UNL     1       1.965  -4.896  -0.007  0.00  0.00    +0.108 C 
ATOM     12  C   UNL     1       2.231  -5.860   1.153  0.00  0.00    +0.033 C 
ATOM     13  C   UNL     1       3.644  -6.434   1.020  0.00  0.00    +0.101 C 
ATOM     14  C   UNL     1       4.667  -5.298   1.091  0.00  0.00    +0.033 C 
ATOM     15  C   UNL     1       4.428  -4.328  -0.075  0.00  0.00    +0.108 C 
ENDROOT
BRANCH  13  16
ATOM     16  C   UNL     1       3.897  -7.409   2.141  0.00  0.00    +0.316 C 
ATOM     17  O   UNL     1       3.036  -7.623   2.962  0.00  0.00    -0.250 OA
BRANCH  16  18
ATOM     18  O   UNL     1       5.079  -8.041   2.228  0.00  0.00    -0.426 OA
BRANCH  18  19
ATOM     19  C   UNL     1       5.301  -8.832   3.308  0.00  0.00    +0.132 A 
ATOM     20  C   UNL     1       4.725 -10.094   3.373  0.00  0.00    +0.047 A 
ATOM     21  C   UNL     1       4.948 -10.900   4.468  0.00  0.00    +0.016 A 
ATOM     22  C   UNL     1       5.756 -10.447   5.513  0.00  0.00    +0.037 A 
ATOM     23  C   UNL     1       6.334  -9.177   5.444  0.00  0.00    +0.016 A 
ATOM     24  C   UNL     1       6.110  -8.379   4.344  0.00  0.00    +0.047 A 
BRANCH  22  25
ATOM     25  C   UNL     1       5.998 -11.307   6.689  0.00  0.00    +0.242 C 
ATOM     26  O   UNL     1       5.494 -12.412   6.747  0.00  0.00    -0.270 OA
ATOM     27  N   UNL     1       6.778 -10.867   7.696  0.00  0.00    -0.325 N 
ATOM     28  H   UNL     1       7.180  -9.986   7.650  0.00  0.00    +0.145 HD
ATOM     29  H   UNL     1       6.937 -11.433   8.469  0.00  0.00    +0.145 HD
ENDBRANCH  22  25
ENDBRANCH  18  19
ENDBRANCH  16  18
ENDBRANCH  13  16
TORSDOF 4
