REMARK  Name = ZINC39534054
REMARK  8 active torsions:
REMARK  status: ('A' for Active; 'I' for Inactive)
REMARK    1  A    between atoms: C_4  and  S_7
REMARK    2  A    between atoms: S_7  and  N_10
REMARK    3  A    between atoms: N_10  and  C_11
REMARK    4  A    between atoms: C_11  and  C_12
REMARK    5  A    between atoms: C_12  and  C_14
REMARK    6  A    between atoms: C_12  and  N_27
REMARK    7  A    between atoms: C_17  and  C_20
REMARK    8  A    between atoms: C_25  and  O_26
REMARK                            x       y       z     vdW  Elec       q    Type
REMARK                         _______ _______ _______ _____ _____    ______ ____
ROOT
ATOM      1  C   UNL     1       4.256  -2.309   3.714  0.00  0.00    +0.102 C 
ENDROOT
BRANCH   1   2
ATOM      2  N   UNL     1       4.607  -1.081   4.441  0.00  0.00    -0.295 NA
ATOM      3  C   UNL     1       5.347  -0.151   3.577  0.00  0.00    +0.066 C 
ATOM      4  C   UNL     1       5.642   1.135   4.352  0.00  0.00    -0.063 C 
ATOM      5  N   UNL     1       6.433   0.817   5.548  0.00  0.00    +0.400 N 
ATOM      6  C   UNL     1       5.671  -0.094   6.413  0.00  0.00    +0.116 C 
ATOM      7  C   UNL     1       5.377  -1.391   5.655  0.00  0.00    +0.100 C 
ATOM      8  O   UNL     1       6.435  -0.389   7.584  0.00  0.00    -0.251 OA
ATOM      9  H   UNL     1       7.296   0.374   5.272  0.00  0.00    -0.082 HD
ATOM     10  H   UNL     1       6.637   1.666   6.052  0.00  0.00    -0.082 HD
ENDBRANCH   1   2
BRANCH   1  11
ATOM     11  C   UNL     1       3.386  -3.177   4.586  0.00  0.00    -0.029 A 
ATOM     12  C   UNL     1       2.402  -2.601   5.369  0.00  0.00    +0.006 A 
ATOM     13  C   UNL     1       1.603  -3.392   6.170  0.00  0.00    +0.009 A 
ATOM     14  C   UNL     1       1.788  -4.773   6.188  0.00  0.00    -0.014 A 
ATOM     15  C   UNL     1       2.781  -5.348   5.396  0.00  0.00    +0.009 A 
ATOM     16  C   UNL     1       3.571  -4.548   4.596  0.00  0.00    +0.006 A 
BRANCH  14  17
ATOM     17  C   UNL     1       0.933  -5.628   7.046  0.00  0.00    +0.024 A 
ATOM     18  C   UNL     1       0.750  -5.309   8.390  0.00  0.00    +0.012 A 
ATOM     19  C   UNL     1      -0.047  -6.108   9.185  0.00  0.00    +0.001 A 
ATOM     20  C   UNL     1      -0.666  -7.225   8.652  0.00  0.00    +0.004 A 
ATOM     21  C   UNL     1      -0.491  -7.550   7.321  0.00  0.00    +0.046 A 
ATOM     22  C   UNL     1       0.301  -6.753   6.510  0.00  0.00    +0.125 A 
BRANCH  22  23
ATOM     23  O   UNL     1       0.469  -7.069   5.199  0.00  0.00    -0.506 OA
ATOM     24  H   UNL     1       1.220  -7.654   5.028  0.00  0.00    +0.292 HD
ENDBRANCH  22  23
ENDBRANCH  14  17
ENDBRANCH   1  11
BRANCH   1  25
ATOM     25  C   UNL     1       3.496  -1.945   2.437  0.00  0.00    +0.129 C 
BRANCH  25  26
ATOM     26  N   UNL     1       3.196  -3.164   1.683  0.00  0.00    -0.188 NA
ATOM     27  H   UNL     1       3.653  -3.993   1.898  0.00  0.00    +0.148 HD
BRANCH  26  28
ATOM     28  S   UNL     1       2.077  -3.129   0.463  0.00  0.00    +0.058 S 
ATOM     29  O   UNL     1       0.926  -2.482   0.986  0.00  0.00    -0.153 OA
ATOM     30  O   UNL     1       2.032  -4.440  -0.084  0.00  0.00    -0.153 OA
BRANCH  28  34
ATOM     31  C   UNL     1       3.715  -0.431  -2.781  0.00  0.00    +0.000 A 
ATOM     32  C   UNL     1       3.998  -1.784  -2.800  0.00  0.00    +0.002 A 
ATOM     33  C   UNL     1       3.498  -2.608  -1.809  0.00  0.00    +0.028 A 
ATOM     34  C   UNL     1       2.716  -2.079  -0.799  0.00  0.00    +0.105 A 
ATOM     35  C   UNL     1       2.434  -0.726  -0.780  0.00  0.00    +0.028 A 
ATOM     36  C   UNL     1       2.933   0.098  -1.772  0.00  0.00    +0.002 A 
ENDBRANCH  28  34
ENDBRANCH  26  28
ENDBRANCH  25  26
ENDBRANCH   1  25
TORSDOF 8
