REMARK  Name = ZINC52202115
REMARK  8 active torsions:
REMARK  status: ('A' for Active; 'I' for Inactive)
REMARK    1  A    between atoms: C_1  and  C_2
REMARK    2  A    between atoms: C_2  and  C_3
REMARK    3  A    between atoms: C_8  and  C_9
REMARK    4  A    between atoms: N_11  and  C_18
REMARK    5  A    between atoms: C_12  and  C_14
REMARK    6  A    between atoms: C_14  and  C_15
REMARK    7  A    between atoms: C_14  and  C_16
REMARK    8  A    between atoms: C_14  and  C_17
REMARK                            x       y       z     vdW  Elec       q    Type
REMARK                         _______ _______ _______ _____ _____    ______ ____
ROOT
ATOM      1  C   UNL     1      -1.626  -0.160  -2.574  0.00  0.00    +0.172 C 
ATOM      2  C   UNL     1      -0.782  -1.001  -3.512  0.00  0.00    +0.101 C 
ATOM      3  N   UNL     1      -1.599  -1.234  -4.598  0.00  0.00    -0.275 N 
ATOM      4  C   UNL     1      -2.812  -0.633  -4.409  0.00  0.00    +0.082 C 
ATOM      5  N   UNL     1      -2.903  -0.004  -3.288  0.00  0.00    -0.363 N 
ATOM      6  N   UNL     1       0.431  -1.409  -3.334  0.00  0.00    -0.388 N 
ATOM      7  H   UNL     1       0.938  -1.102  -2.566  0.00  0.00    +0.157 HD
ATOM      8  H   UNL     1      -3.677   0.485  -2.969  0.00  0.00    +0.162 HD
ATOM      9  H   UNL     1       0.836  -2.022  -3.968  0.00  0.00    +0.157 HD
ENDROOT
BRANCH   1  15
ATOM     10  C   UNL     1      -0.962  -0.664  -0.214  0.00  0.00    -0.042 A 
ATOM     11  C   UNL     1      -1.157  -1.317   0.989  0.00  0.00    +0.004 A 
ATOM     12  C   UNL     1      -2.222  -2.184   1.139  0.00  0.00    +0.000 A 
ATOM     13  C   UNL     1      -3.093  -2.400   0.087  0.00  0.00    +0.000 A 
ATOM     14  C   UNL     1      -2.898  -1.747  -1.115  0.00  0.00    +0.006 A 
ATOM     15  C   UNL     1      -1.835  -0.875  -1.265  0.00  0.00    -0.015 A 
BRANCH  10  17
ATOM     16  C   UNL     1      -0.238   1.698   0.002  0.00  0.00    +0.009 C 
ATOM     17  C   UNL     1       0.200   0.282  -0.379  0.00  0.00    +0.032 C 
ENDBRANCH  10  17
ENDBRANCH   1  15
BRANCH   4  18
ATOM     18  C   UNL     1      -3.933  -0.698  -5.415  0.00  0.00    +0.016 C 
ATOM     19  C   UNL     1      -4.327  -2.159  -5.645  0.00  0.00    +0.018 C 
ATOM     20  C   UNL     1      -5.139   0.078  -4.884  0.00  0.00    +0.018 C 
ATOM     21  C   UNL     1      -3.469  -0.081  -6.736  0.00  0.00    +0.018 C 
ENDBRANCH   4  18
BRANCH   3  22
ATOM     22  C   UNL     1      -1.222  -2.011  -5.781  0.00  0.00    +0.081 C 
ATOM     23  C   UNL     1       0.260  -2.045  -6.161  0.00  0.00    +0.025 C 
ATOM     24  C   UNL     1      -0.729  -1.239  -7.006  0.00  0.00    +0.025 C 
ENDBRANCH   3  22
TORSDOF 4
