REMARK  Name = ZINC63874922
REMARK  8 active torsions:
REMARK  status: ('A' for Active; 'I' for Inactive)
REMARK    1  A    between atoms: C_1  and  O_2
REMARK    2  A    between atoms: O_2  and  C_3
REMARK    3  A    between atoms: C_3  and  C_5
REMARK    4  A    between atoms: C_7  and  N_17
REMARK    5  A    between atoms: C_18  and  C_20
REMARK    6  A    between atoms: C_20  and  N_21
REMARK    7  A    between atoms: C_24  and  C_29
REMARK    8  A    between atoms: C_29  and  C_30
REMARK                            x       y       z     vdW  Elec       q    Type
REMARK                         _______ _______ _______ _____ _____    ______ ____
ROOT
ATOM      1  C   UNL     1      -1.935  -5.541   1.125  0.00  0.00    +0.213 C 
ENDROOT
BRANCH   1   2
ATOM      2  N   UNL     1      -3.101  -5.560   2.012  0.00  0.00    -0.216 N 
ATOM      3  C   UNL     1      -3.079  -5.164   3.300  0.00  0.00    +0.244 C 
ATOM      4  O   UNL     1      -2.126  -4.741   3.920  0.00  0.00    -0.273 OA
ATOM      5  C   UNL     1      -4.492  -5.356   3.812  0.00  0.00    +0.165 C 
ATOM      6  N   UNL     1      -5.215  -5.888   2.644  0.00  0.00    -0.287 N 
ATOM      7  C   UNL     1      -4.321  -5.967   1.642  0.00  0.00    +0.310 C 
ATOM      8  O   UNL     1      -4.590  -6.366   0.526  0.00  0.00    -0.252 OA
ATOM      9  H   UNL     1      -6.153  -6.132   2.604  0.00  0.00    +0.151 HD
BRANCH   5  10
ATOM     10  C   UNL     1      -4.514  -6.360   4.967  0.00  0.00    +0.065 C 
BRANCH  10  11
ATOM     11  C   UNL     1      -5.907  -6.440   5.536  0.00  0.00    -0.039 C 
ATOM     12  C   UNL     1      -6.865  -7.341   5.218  0.00  0.00    -0.001 A 
ATOM     13  C   UNL     1      -6.896  -8.471   4.282  0.00  0.00    +0.010 A 
ATOM     14  C   UNL     1      -8.026  -9.207   4.180  0.00  0.00    +0.001 A 
ATOM     15  C   UNL     1      -9.166  -8.918   4.944  0.00  0.00    +0.002 A 
ATOM     16  C   UNL     1      -9.213  -7.896   5.824  0.00  0.00    +0.026 A 
ATOM     17  C   UNL     1      -8.081  -7.057   6.013  0.00  0.00    +0.043 A 
ATOM     18  N   UNL     1      -7.883  -6.021   6.792  0.00  0.00    -0.380 N 
ATOM     19  C   UNL     1      -6.515  -5.534   6.584  0.00  0.00    +0.144 C 
ATOM     20  H   UNL     1      -8.531  -5.643   7.407  0.00  0.00    +0.160 HD
ENDBRANCH  10  11
ENDBRANCH   5  10
ENDBRANCH   1   2
BRANCH   1  22
ATOM     21  N   UNL     1      -0.860  -3.963  -0.447  0.00  0.00    -0.301 N 
ATOM     22  C   UNL     1      -1.858  -4.209   0.424  0.00  0.00    +0.232 C 
ATOM     23  O   UNL     1      -2.695  -3.359   0.644  0.00  0.00    -0.274 OA
ATOM     24  H   UNL     1      -0.191  -4.643  -0.623  0.00  0.00    +0.150 HD
BRANCH  21  26
ATOM     25  C   UNL     1       0.657  -2.104  -1.120  0.00  0.00    +0.155 C 
ATOM     26  C   UNL     1      -0.785  -2.668  -1.128  0.00  0.00    +0.153 C 
ATOM     27  S   UNL     1      -1.005  -2.846  -2.949  0.00  0.00    -0.106 S 
ATOM     28  C   UNL     1       0.711  -2.888  -3.405  0.00  0.00    -0.013 C 
ATOM     29  C   UNL     1       1.411  -2.506  -2.366  0.00  0.00    -0.044 C 
ATOM     30  C   UNL     1       2.946  -2.497  -2.390  0.00  0.00    +0.032 C 
ATOM     31  C   UNL     1       3.417  -3.937  -2.582  0.00  0.00    +0.004 C 
ATOM     32  C   UNL     1       3.380  -4.356  -4.031  0.00  0.00    +0.001 C 
ATOM     33  C   UNL     1       2.004  -4.598  -4.611  0.00  0.00    +0.005 C 
ATOM     34  C   UNL     1       1.255  -3.270  -4.767  0.00  0.00    +0.042 C 
BRANCH  25  35
ATOM     35  C   UNL     1       0.598  -0.600  -1.043  0.00  0.00    +0.317 C 
ATOM     36  O   UNL     1       1.088   0.070  -1.921  0.00  0.00    -0.250 OA
BRANCH  35  38
ATOM     37  C   UNL     1      -0.017   1.425   0.010  0.00  0.00    +0.280 C 
ATOM     38  O   UNL     1       0.002  -0.004   0.002  0.00  0.00    -0.467 OA
ENDBRANCH  35  38
ENDBRANCH  25  35
ENDBRANCH  21  26
ENDBRANCH   1  22
TORSDOF 7
