REMARK  Name = ZINC21534000
REMARK  4 active torsions:
REMARK  status: ('A' for Active; 'I' for Inactive)
REMARK    1  A    between atoms: C_1  and  C_2
REMARK    2  A    between atoms: C_3  and  N_9
REMARK    3  A    between atoms: C_13  and  S_15
REMARK    4  A    between atoms: S_15  and  C_16
REMARK                            x       y       z     vdW  Elec       q    Type
REMARK                         _______ _______ _______ _____ _____    ______ ____
ROOT
ATOM      1  N   UNL     1      -0.010   0.010  -2.412  0.00  0.00    -0.292 N 
ATOM      2  C   UNL     1       0.098  -0.676  -3.617  0.00  0.00    +0.187 A 
ATOM      3  N   UNL     1       0.129  -1.976  -3.839  0.00  0.00    -0.125 NA
ATOM      4  N   UNL     1       0.243  -2.448  -5.126  0.00  0.00    -0.133 NA
ATOM      5  C   UNL     1       0.321  -1.598  -6.132  0.00  0.00    +0.161 A 
ATOM      6  S   UNL     1       0.226  -0.032  -5.278  0.00  0.00    -0.024 S 
ATOM      7  H   UNL     1      -0.090   0.976  -2.409  0.00  0.00    +0.154 HD
ENDROOT
BRANCH   1  10
ATOM      8  C   UNL     1      -0.515   1.455  -0.013  0.00  0.00    +0.047 C 
ATOM      9  C   UNL     1      -0.247  -0.028  -0.010  0.00  0.00    -0.011 A 
ATOM     10  C   UNL     1      -0.005  -0.694  -1.205  0.00  0.00    +0.037 A 
ATOM     11  C   UNL     1       0.242  -2.061  -1.197  0.00  0.00    +0.023 A 
ATOM     12  C   UNL     1       0.246  -2.754  -0.002  0.00  0.00    +0.003 A 
ATOM     13  C   UNL     1       0.005  -2.090   1.185  0.00  0.00    +0.020 A 
ATOM     14  C   UNL     1      -0.236  -0.726   1.183  0.00  0.00    +0.046 A 
ATOM     15 CL   UNL     1      -0.532   0.105   2.677  0.00  0.00    -0.083 Cl
ENDBRANCH   1  10
BRANCH   5  16
ATOM     16  S   UNL     1       0.471  -1.921  -7.858  0.00  0.00    -0.084 S 
BRANCH  16  17
ATOM     17  C   UNL     1       0.496  -3.732  -7.965  0.00  0.00    +0.139 C 
ATOM     18  C   UNL     1       0.740  -4.158  -9.414  0.00  0.00    +0.024 C 
ATOM     19  C   UNL     1       0.076  -3.192 -10.378  0.00  0.00    +0.003 C 
ATOM     20  C   UNL     1      -1.441  -3.210 -10.317  0.00  0.00    +0.019 C 
ATOM     21  C   UNL     1      -1.939  -2.670  -8.975  0.00  0.00    +0.104 C 
ATOM     22  N   UNL     1      -1.974  -3.778  -8.005  0.00  0.00    -0.314 N 
ATOM     23  C   UNL     1      -0.839  -4.286  -7.514  0.00  0.00    +0.226 C 
ATOM     24  O   UNL     1      -0.877  -5.195  -6.712  0.00  0.00    -0.275 OA
ATOM     25  H   UNL     1      -2.827  -4.141  -7.719  0.00  0.00    +0.149 HD
ENDBRANCH  16  17
ENDBRANCH   5  16
TORSDOF 3
