REMARK  Name = ZINC43735801
REMARK  8 active torsions:
REMARK  status: ('A' for Active; 'I' for Inactive)
REMARK    1  A    between atoms: C_1  and  C_2
REMARK    2  A    between atoms: C_7  and  C_36
REMARK    3  A    between atoms: C_18  and  C_20
REMARK    4  A    between atoms: C_20  and  N_21
REMARK    5  A    between atoms: C_26  and  O_35
REMARK    6  A    between atoms: C_27  and  O_33
REMARK    7  A    between atoms: C_30  and  C_32
REMARK    8  A    between atoms: O_33  and  C_34
REMARK                            x       y       z     vdW  Elec       q    Type
REMARK                         _______ _______ _______ _____ _____    ______ ____
ROOT
ATOM      1  C   UNL     1       3.994   1.049   4.493  0.00  0.00    -0.063 C 
ENDROOT
BRANCH   1  16
ATOM      2  C   UNL     1      -0.232   1.234   0.188  0.00  0.00    +0.012 C 
ATOM      3  C   UNL     1      -0.248  -0.291   0.319  0.00  0.00    +0.012 C 
ATOM      4  C   UNL     1       0.423  -0.932  -0.906  0.00  0.00    +0.007 C 
ATOM      5  C   UNL     1       0.521  -2.446  -0.730  0.00  0.00    +0.001 C 
ATOM      6  C   UNL     1       1.366  -2.803   0.499  0.00  0.00    +0.011 C 
ATOM      7  C   UNL     1       0.694  -2.207   1.730  0.00  0.00    -0.007 C 
ATOM      8  C   UNL     1       0.565  -0.719   1.531  0.00  0.00    -0.064 C 
ATOM      9  C   UNL     1       1.103   0.152   2.311  0.00  0.00    -0.019 C 
ATOM     10  C   UNL     1       2.020  -0.160   3.457  0.00  0.00    +0.064 C 
ATOM     11  C   UNL     1       2.471  -1.632   3.406  0.00  0.00    +0.185 C 
ATOM     12  C   UNL     1       1.357  -2.563   3.036  0.00  0.00    +0.056 C 
ATOM     13  O   UNL     1       3.519  -1.656   2.434  0.00  0.00    -0.461 OA
ATOM     14  C   UNL     1       4.225  -0.514   2.525  0.00  0.00    +0.309 C 
ATOM     15  O   UNL     1       5.364  -0.366   2.149  0.00  0.00    -0.251 OA
ATOM     16  C   UNL     1       3.364   0.574   3.182  0.00  0.00    +0.092 C 
ATOM     17  C   UNL     1      -0.730  -2.764   1.779  0.00  0.00    +0.016 C 
ENDBRANCH   1  16
BRANCH   1  18
ATOM     18  N   UNL     1       3.136   2.072   5.105  0.00  0.00    +0.385 N 
ATOM     19  C   UNL     1       3.123   3.275   4.258  0.00  0.00    -0.073 C 
ATOM     20  C   UNL     1       2.002   4.197   4.739  0.00  0.00    +0.017 C 
ATOM     21  C   UNL     1       2.120   4.410   6.227  0.00  0.00    -0.044 A 
ATOM     22  C   UNL     1       1.432   5.468   6.802  0.00  0.00    +0.053 A 
ATOM     23  C   UNL     1       1.511   5.695   8.165  0.00  0.00    +0.159 A 
ATOM     24  C   UNL     1       2.287   4.855   8.959  0.00  0.00    +0.161 A 
ATOM     25  C   UNL     1       2.973   3.803   8.380  0.00  0.00    +0.051 A 
ATOM     26  C   UNL     1       2.891   3.580   7.013  0.00  0.00    -0.054 A 
ATOM     27  C   UNL     1       3.663   2.426   6.427  0.00  0.00    -0.040 C 
ATOM     28  C   UNL     1       3.546   1.217   7.357  0.00  0.00    -0.008 C 
ATOM     29  H   UNL     1       2.198   1.714   5.201  0.00  0.00    -0.081 HD
BRANCH  24  30
ATOM     30  O   UNL     1       2.370   5.069  10.300  0.00  0.00    -0.491 OA
ATOM     31  C   UNL     1       3.185   4.167  11.051  0.00  0.00    +0.277 C 
ENDBRANCH  24  30
BRANCH  23  32
ATOM     32  O   UNL     1       0.835   6.733   8.725  0.00  0.00    -0.503 OA
ATOM     33  H   UNL     1      -0.060   6.509   9.015  0.00  0.00    +0.292 HD
ENDBRANCH  23  32
ENDBRANCH   1  18
TORSDOF 4
