REMARK  Name = ZINC27687914
REMARK  6 active torsions:
REMARK  status: ('A' for Active; 'I' for Inactive)
REMARK    1  A    between atoms: C_9  and  C_11
REMARK    2  A    between atoms: N_13  and  N_14
REMARK    3  A    between atoms: C_15  and  C_17
REMARK    4  A    between atoms: C_20  and  C_23
REMARK    5  A    between atoms: C_23  and  N_24
REMARK    6  A    between atoms: C_25  and  C_27
REMARK                            x       y       z     vdW  Elec       q    Type
REMARK                         _______ _______ _______ _____ _____    ______ ____
ROOT
ATOM      1  C   UNL     1      -4.502  -1.141   0.017  0.00  0.00    +0.038 A 
ATOM      2  C   UNL     1      -3.970  -0.685   1.224  0.00  0.00    +0.013 A 
ATOM      3  C   UNL     1      -2.933   0.225   1.217  0.00  0.00    +0.006 A 
ATOM      4  C   UNL     1      -2.422   0.686   0.017  0.00  0.00    -0.030 A 
ATOM      5  C   UNL     1      -2.949   0.242  -1.183  0.00  0.00    +0.006 A 
ATOM      6  C   UNL     1      -3.982  -0.672  -1.190  0.00  0.00    +0.013 A 
ENDROOT
BRANCH   1   8
ATOM      7  N   UNL     1      -6.125  -2.555  -1.150  0.00  0.00    -0.230 N 
ATOM      8  C   UNL     1      -5.613  -2.117   0.017  0.00  0.00    +0.260 C 
ATOM      9  O   UNL     1      -6.064  -2.524   1.070  0.00  0.00    -0.269 OA
ATOM     10  H   UNL     1      -5.717  -2.186  -2.103  0.00  0.00    +0.173 HD
BRANCH   7  13
ATOM     11  C   UNL     1      -7.689  -3.918  -2.317  0.00  0.00    +0.278 C 
ATOM     12  O   UNL     1      -7.238  -3.511  -3.369  0.00  0.00    -0.267 OA
ATOM     13  N   UNL     1      -7.178  -3.480  -1.150  0.00  0.00    -0.229 N 
ATOM     14  H   UNL     1      -7.586  -3.848  -0.198  0.00  0.00    +0.173 HD
BRANCH  11  23
ATOM     15  C   UNL     1     -12.366  -8.044  -1.051  0.00  0.00    +0.001 A 
ATOM     16  C   UNL     1     -11.807  -7.564   0.133  0.00  0.00    +0.002 A 
ATOM     17  C   UNL     1     -10.786  -6.666   0.114  0.00  0.00    +0.028 A 
ATOM     18  C   UNL     1     -10.281  -6.208  -1.119  0.00  0.00    +0.072 A 
ATOM     19  C   UNL     1     -10.852  -6.699  -2.322  0.00  0.00    +0.000 A 
ATOM     20  C   UNL     1     -11.905  -7.626  -2.262  0.00  0.00    +0.010 A 
ATOM     21  C   UNL     1     -10.349  -6.243  -3.555  0.00  0.00    +0.012 A 
ATOM     22  C   UNL     1      -9.324  -5.342  -3.541  0.00  0.00    +0.034 A 
ATOM     23  C   UNL     1      -8.803  -4.897  -2.317  0.00  0.00    +0.127 A 
ATOM     24  N   UNL     1      -9.278  -5.333  -1.166  0.00  0.00    -0.242 NA
ENDBRANCH  11  23
ENDBRANCH   7  13
ENDBRANCH   1   8
BRANCH   4  25
ATOM     25  C   UNL     1      -1.290   1.681   0.017  0.00  0.00    +0.139 C 
BRANCH  25  26
ATOM     26  N   UNL     1      -0.011   0.966   0.007  0.00  0.00    -0.311 N 
ATOM     27  C   UNL     1       1.147   1.655   0.000  0.00  0.00    +0.219 C 
ATOM     28  O   UNL     1       1.130   2.868   0.007  0.00  0.00    -0.275 OA
ATOM     29  H   UNL     1       0.004  -0.134   0.006  0.00  0.00    +0.149 HD
BRANCH  27  30
ATOM     30  C   UNL     1       2.462   0.920  -0.017  0.00  0.00    +0.048 C 
ATOM     31  C   UNL     1       2.567   0.035   1.227  0.00  0.00    +0.019 C 
ATOM     32  C   UNL     1       3.902  -0.712   1.210  0.00  0.00    -0.009 C 
ATOM     33  C   UNL     1       5.051   0.298   1.205  0.00  0.00    +0.007 C 
ATOM     34  C   UNL     1       4.946   1.183  -0.039  0.00  0.00    -0.009 C 
ATOM     35  C   UNL     1       3.611   1.930  -0.022  0.00  0.00    +0.019 C 
ATOM     36  C   UNL     1       5.027   0.311  -1.294  0.00  0.00    +0.007 C 
ATOM     37  C   UNL     1       3.878  -0.699  -1.288  0.00  0.00    -0.009 C 
ATOM     38  C   UNL     1       3.983  -1.584  -0.044  0.00  0.00    +0.007 C 
ATOM     39  C   UNL     1       2.543   0.048  -1.271  0.00  0.00    +0.019 C 
ENDBRANCH  27  30
ENDBRANCH  25  26
ENDBRANCH   4  25
TORSDOF 6
