REMARK  Name = ZINC12159835
REMARK  10 active torsions:
REMARK  status: ('A' for Active; 'I' for Inactive)
REMARK    1  A    between atoms: C_1  and  C_2
REMARK    2  A    between atoms: C_2  and  C_3
REMARK    3  A    between atoms: C_2  and  C_4
REMARK    4  A    between atoms: C_4  and  C_6
REMARK    5  A    between atoms: C_4  and  N_22
REMARK    6  A    between atoms: N_8  and  C_9
REMARK    7  A    between atoms: C_12  and  S_15
REMARK    8  A    between atoms: S_15  and  N_18
REMARK    9  A    between atoms: N_18  and  C_19
REMARK   10  A    between atoms: C_23  and  C_25
REMARK                            x       y       z     vdW  Elec       q    Type
REMARK                         _______ _______ _______ _____ _____    ______ ____
ROOT
ATOM      1  C   UNL     1      -1.668   7.708  -0.757  0.00  0.00    +0.162 C 
ENDROOT
BRANCH   1   2
ATOM      2  C   UNL     1      -1.714   8.291  -2.146  0.00  0.00    +0.238 C 
ATOM      3  O   UNL     1      -1.313   7.643  -3.089  0.00  0.00    -0.273 OA
ATOM      4  N   UNL     1      -2.201   9.533  -2.339  0.00  0.00    -0.284 N 
ATOM      5  H   UNL     1      -2.636  10.002  -1.611  0.00  0.00    +0.155 HD
BRANCH   4   6
ATOM      6  C   UNL     1      -2.079  10.145  -3.592  0.00  0.00    +0.034 A 
ATOM      7  C   UNL     1      -1.958   9.369  -4.737  0.00  0.00    +0.025 A 
ATOM      8  C   UNL     1      -1.842   9.976  -5.972  0.00  0.00    +0.030 A 
ATOM      9  C   UNL     1      -1.836  11.355  -6.068  0.00  0.00    +0.105 A 
ATOM     10  C   UNL     1      -1.950  12.131  -4.929  0.00  0.00    +0.030 A 
ATOM     11  C   UNL     1      -2.071  11.530  -3.692  0.00  0.00    +0.025 A 
BRANCH   9  12
ATOM     12  S   UNL     1      -1.681  12.126  -7.645  0.00  0.00    +0.059 S 
ATOM     13  O   UNL     1      -2.138  11.183  -8.605  0.00  0.00    -0.153 OA
ATOM     14  O   UNL     1      -2.250  13.423  -7.521  0.00  0.00    -0.153 OA
BRANCH  12  15
ATOM     15  N   UNL     1      -0.064  12.344  -7.927  0.00  0.00    -0.187 NA
ATOM     16  H   UNL     1       0.301  13.240  -7.992  0.00  0.00    +0.148 HD
BRANCH  15  17
ATOM     17  C   UNL     1       0.816  11.182  -8.078  0.00  0.00    +0.077 C 
ATOM     18  C   UNL     1       2.252  11.312  -7.566  0.00  0.00    +0.022 C 
ATOM     19  C   UNL     1       1.974  11.298  -9.070  0.00  0.00    +0.022 C 
ENDBRANCH  15  17
ENDBRANCH  12  15
ENDBRANCH   9  12
ENDBRANCH   4   6
ENDBRANCH   1   2
BRANCH   1  20
ATOM     20  N   UNL     1      -0.536   6.785  -0.652  0.00  0.00    -0.303 N 
ATOM     21  C   UNL     1       0.019   6.533   0.550  0.00  0.00    +0.220 C 
ATOM     22  O   UNL     1      -0.418   7.071   1.545  0.00  0.00    -0.275 OA
ATOM     23  H   UNL     1      -0.185   6.354  -1.448  0.00  0.00    +0.149 HD
BRANCH  21  24
ATOM     24  C   UNL     1       1.185   5.583   0.658  0.00  0.00    +0.048 C 
ATOM     25  C   UNL     1       2.349   6.107  -0.185  0.00  0.00    +0.019 C 
ATOM     26  C   UNL     1       3.532   5.143  -0.076  0.00  0.00    -0.009 C 
ATOM     27  C   UNL     1       3.969   5.035   1.387  0.00  0.00    +0.007 C 
ATOM     28  C   UNL     1       2.804   4.512   2.229  0.00  0.00    -0.009 C 
ATOM     29  C   UNL     1       1.621   5.476   2.120  0.00  0.00    +0.019 C 
ATOM     30  C   UNL     1       2.386   3.131   1.719  0.00  0.00    +0.007 C 
ATOM     31  C   UNL     1       1.949   3.239   0.257  0.00  0.00    -0.009 C 
ATOM     32  C   UNL     1       3.114   3.763  -0.586  0.00  0.00    +0.007 C 
ATOM     33  C   UNL     1       0.766   4.203   0.147  0.00  0.00    +0.019 C 
ENDBRANCH  21  24
ENDBRANCH   1  20
BRANCH   1  35
ATOM     34  C   UNL     1      -3.064   5.739  -1.405  0.00  0.00    +0.009 C 
ATOM     35  C   UNL     1      -2.969   6.953  -0.478  0.00  0.00    +0.012 C 
ATOM     36  C   UNL     1      -2.985   6.484   0.978  0.00  0.00    +0.009 C 
ENDBRANCH   1  35
TORSDOF 8
