REMARK  Name = ZINC01877342
REMARK  9 active torsions:
REMARK  status: ('A' for Active; 'I' for Inactive)
REMARK    1  A    between atoms: C_1  and  C_2
REMARK    2  A    between atoms: C_2  and  O_3
REMARK    3  A    between atoms: O_3  and  C_4
REMARK    4  A    between atoms: C_8  and  C_11
REMARK    5  A    between atoms: C_9  and  O_10
REMARK    6  A    between atoms: N_12  and  N_13
REMARK    7  A    between atoms: C_14  and  C_16
REMARK    8  A    between atoms: C_16  and  N_17
REMARK    9  A    between atoms: C_18  and  C_20
REMARK                            x       y       z     vdW  Elec       q    Type
REMARK                         _______ _______ _______ _____ _____    ______ ____
ROOT
ATOM      1  N   UNL     1       3.671   1.218  -0.026  0.00  0.00    -0.206 N 
ATOM      2  C   UNL     1       2.406   0.752  -0.017  0.00  0.00    +0.249 C 
ATOM      3  O   UNL     1       2.201  -0.444  -0.021  0.00  0.00    -0.272 OA
ATOM      4  H   UNL     1       3.857   2.303  -0.022  0.00  0.00    +0.177 HD
ENDROOT
BRANCH   1   6
ATOM      5  C   UNL     1       5.965   0.772  -0.051  0.00  0.00    +0.142 C 
ATOM      6  N   UNL     1       4.748   0.323  -0.042  0.00  0.00    -0.188 NA
BRANCH   5  11
ATOM      7  C   UNL     1       7.940  -2.431  -0.086  0.00  0.00    +0.163 A 
ATOM      8  C   UNL     1       9.237  -1.941  -0.096  0.00  0.00    +0.064 A 
ATOM      9  C   UNL     1       9.469  -0.576  -0.091  0.00  0.00    +0.022 A 
ATOM     10  C   UNL     1       8.411   0.309  -0.077  0.00  0.00    +0.028 A 
ATOM     11  C   UNL     1       7.098  -0.171  -0.067  0.00  0.00    +0.041 A 
ATOM     12  C   UNL     1       6.865  -1.551  -0.066  0.00  0.00    +0.167 A 
ATOM     13 BR   UNL     1      11.243   0.077  -0.105  0.00  0.00    -0.050 Br
BRANCH  12  14
ATOM     14  O   UNL     1       5.593  -2.028  -0.051  0.00  0.00    -0.503 OA
ATOM     15  H   UNL     1       4.743  -1.330  -0.035  0.00  0.00    +0.292 HD
ENDBRANCH  12  14
BRANCH   7  16
ATOM     16  O   UNL     1       7.720  -3.773  -0.090  0.00  0.00    -0.489 OA
BRANCH  16  18
ATOM     17  C   UNL     1       8.429  -6.084  -0.109  0.00  0.00    +0.048 C 
ATOM     18  C   UNL     1       8.872  -4.619  -0.105  0.00  0.00    +0.226 C 
ENDBRANCH  16  18
ENDBRANCH   7  16
ENDBRANCH   5  11
ENDBRANCH   1   6
BRANCH   2  19
ATOM     19  C   UNL     1       1.248   1.716  -0.001  0.00  0.00    +0.202 C 
BRANCH  19  20
ATOM     20  N   UNL     1      -0.011   0.966   0.007  0.00  0.00    -0.303 N 
ATOM     21  C   UNL     1      -1.187   1.624   0.017  0.00  0.00    +0.246 C 
ATOM     22  O   UNL     1      -1.204   2.839   0.023  0.00  0.00    -0.270 OA
ATOM     23  H   UNL     1       0.004  -0.134   0.006  0.00  0.00    +0.150 HD
BRANCH  21  24
ATOM     24  C   UNL     1      -2.457   0.868   0.018  0.00  0.00    +0.051 A 
ATOM     25  C   UNL     1      -2.442  -0.528   0.005  0.00  0.00    +0.014 A 
ATOM     26  C   UNL     1      -3.630  -1.228   0.011  0.00  0.00    +0.001 A 
ATOM     27  C   UNL     1      -4.837  -0.550   0.021  0.00  0.00    +0.001 A 
ATOM     28  C   UNL     1      -4.860   0.833   0.029  0.00  0.00    +0.016 A 
ATOM     29  C   UNL     1      -3.678   1.546   0.028  0.00  0.00    +0.030 A 
ATOM     30 BR   UNL     1      -3.711   3.437   0.038  0.00  0.00    -0.050 Br
ENDBRANCH  21  24
ENDBRANCH  19  20
ENDBRANCH   2  19
TORSDOF 8
