REMARK  Name = ZINC57530977
REMARK  10 active torsions:
REMARK  status: ('A' for Active; 'I' for Inactive)
REMARK    1  A    between atoms: C_1  and  C_2
REMARK    2  A    between atoms: C_6  and  C_15
REMARK    3  A    between atoms: C_13  and  C_14
REMARK    4  A    between atoms: C_15  and  C_17
REMARK    5  A    between atoms: C_15  and  N_28
REMARK    6  A    between atoms: N_21  and  C_22
REMARK    7  A    between atoms: N_28  and  C_29
REMARK    8  A    between atoms: N_28  and  C_36
REMARK    9  A    between atoms: C_29  and  C_30
REMARK   10  A    between atoms: C_36  and  C_37
REMARK                            x       y       z     vdW  Elec       q    Type
REMARK                         _______ _______ _______ _____ _____    ______ ____
ROOT
ATOM      1  C   UNL     1      -0.332  -5.809  -3.583  0.00  0.00    +0.163 C 
ENDROOT
BRANCH   1   7
ATOM      2  C   UNL     1      -2.348  -1.499   2.160  0.00  0.00    +0.044 C 
ATOM      3  C   UNL     1      -1.898  -2.827   1.608  0.00  0.00    -0.047 A 
ATOM      4  C   UNL     1      -1.672  -2.962   0.267  0.00  0.00    +0.013 A 
ATOM      5  C   UNL     1      -1.254  -4.194  -0.245  0.00  0.00    -0.001 A 
ATOM      6  C   UNL     1      -1.002  -4.373  -1.676  0.00  0.00    +0.021 A 
ATOM      7  C   UNL     1      -0.599  -5.591  -2.115  0.00  0.00    +0.042 A 
ATOM      8  C   UNL     1      -0.428  -6.655  -1.204  0.00  0.00    +0.254 A 
ATOM      9  O   UNL     1      -0.064  -7.741  -1.620  0.00  0.00    -0.268 OA
ATOM     10  N   UNL     1      -0.656  -6.500   0.112  0.00  0.00    -0.322 N 
ATOM     11  H   UNL     1      -0.528  -7.252   0.711  0.00  0.00    +0.169 HD
ATOM     12  C   UNL     1      -1.069  -5.287   0.622  0.00  0.00    +0.049 A 
ATOM     13  C   UNL     1      -1.305  -5.127   1.983  0.00  0.00    +0.030 A 
ATOM     14  C   UNL     1      -1.710  -3.901   2.467  0.00  0.00    -0.046 A 
ATOM     15  C   UNL     1      -1.960  -3.728   3.943  0.00  0.00    +0.044 C 
ENDBRANCH   1   7
BRANCH   1  16
ATOM     16  C   UNL     1       1.133  -6.099  -3.789  0.00  0.00    +0.173 A 
ATOM     17  N   UNL     1       1.829  -7.054  -3.222  0.00  0.00    -0.111 NA
ATOM     18  N   UNL     1       3.040  -6.974  -3.654  0.00  0.00    -0.023 NA
ATOM     19  N   UNL     1       3.135  -5.992  -4.481  0.00  0.00    -0.044 NA
ATOM     20  N   UNL     1       1.979  -5.431  -4.595  0.00  0.00    -0.224 N 
BRANCH  20  21
ATOM     21  C   UNL     1       1.649  -4.281  -5.441  0.00  0.00    +0.111 C 
ATOM     22  C   UNL     1       2.048  -4.580  -6.887  0.00  0.00    +0.027 C 
ATOM     23  C   UNL     1       1.704  -3.379  -7.770  0.00  0.00    +0.002 C 
ATOM     24  C   UNL     1       2.465  -2.148  -7.276  0.00  0.00    +0.000 C 
ATOM     25  C   UNL     1       2.066  -1.849  -5.830  0.00  0.00    +0.002 C 
ATOM     26  C   UNL     1       2.410  -3.050  -4.947  0.00  0.00    +0.027 C 
ENDBRANCH  20  21
ENDBRANCH   1  16
BRANCH   1  27
ATOM     27  N   UNL     1      -1.128  -6.946  -4.061  0.00  0.00    -0.277 NA
BRANCH  27  28
ATOM     28  C   UNL     1      -2.555  -6.601  -4.122  0.00  0.00    +0.121 C 
BRANCH  28  29
ATOM     29  C   UNL     1      -3.142  -6.645  -2.735  0.00  0.00    -0.033 A 
ATOM     30  C   UNL     1      -3.175  -7.837  -2.036  0.00  0.00    +0.005 A 
ATOM     31  C   UNL     1      -3.713  -7.877  -0.763  0.00  0.00    +0.000 A 
ATOM     32  C   UNL     1      -4.218  -6.725  -0.190  0.00  0.00    +0.000 A 
ATOM     33  C   UNL     1      -4.185  -5.533  -0.889  0.00  0.00    +0.000 A 
ATOM     34  C   UNL     1      -3.643  -5.492  -2.160  0.00  0.00    +0.005 A 
ENDBRANCH  28  29
ENDBRANCH  27  28
BRANCH  27  35
ATOM     35  C   UNL     1      -0.644  -7.416  -5.366  0.00  0.00    +0.160 C 
BRANCH  35  36
ATOM     36  C   UNL     1       0.381  -8.502  -5.161  0.00  0.00    +0.119 A 
ATOM     37  C   UNL     1       0.116  -9.803  -4.947  0.00  0.00    +0.046 A 
ATOM     38  C   UNL     1       1.361 -10.457  -4.809  0.00  0.00    +0.041 A 
ATOM     39  C   UNL     1       2.313  -9.517  -4.948  0.00  0.00    +0.195 A 
ATOM     40  O   UNL     1       1.713  -8.335  -5.167  0.00  0.00    -0.467 OA
ENDBRANCH  35  36
ENDBRANCH  27  35
ENDBRANCH   1  27
TORSDOF 8
