REMARK  Name = ZINC04158727
REMARK  3 active torsions:
REMARK  status: ('A' for Active; 'I' for Inactive)
REMARK    1  A    between atoms: C_20  and  C_22
REMARK    2  A    between atoms: C_22  and  C_23
REMARK    3  A    between atoms: C_28  and  O_29
REMARK                            x       y       z     vdW  Elec       q    Type
REMARK                         _______ _______ _______ _____ _____    ______ ____
ROOT
ATOM      1  C   UNL     1      -3.468  -5.021   0.623  0.00  0.00    +0.000 A 
ATOM      2  C   UNL     1      -4.675  -4.348   0.597  0.00  0.00    +0.000 A 
ATOM      3  C   UNL     1      -4.691  -2.968   0.558  0.00  0.00    +0.004 A 
ATOM      4  C   UNL     1      -3.502  -2.254   0.545  0.00  0.00    -0.036 A 
ATOM      5  C   UNL     1      -2.299  -2.924   0.577  0.00  0.00    -0.027 A 
ATOM      6  C   UNL     1      -2.285  -4.311   0.613  0.00  0.00    +0.005 A 
ATOM      7  C   UNL     1      -0.985  -2.192   0.576  0.00  0.00    +0.142 C 
ATOM      8  N   UNL     1      -1.154  -0.802   0.124  0.00  0.00    -0.306 N 
ATOM      9  C   UNL     1       0.067  -0.146   0.211  0.00  0.00    +0.044 A 
ATOM     10  C   UNL     1       1.253  -0.871   0.183  0.00  0.00    +0.024 A 
ATOM     11  C   UNL     1       2.463  -0.215   0.280  0.00  0.00    +0.002 A 
ATOM     12  C   UNL     1       2.513   1.165   0.405  0.00  0.00    +0.001 A 
ATOM     13  C   UNL     1       1.346   1.902   0.433  0.00  0.00    +0.015 A 
ATOM     14  C   UNL     1       0.121   1.249   0.334  0.00  0.00    +0.058 A 
ATOM     15  C   UNL     1      -1.153   1.997   0.349  0.00  0.00    +0.247 C 
ATOM     16  O   UNL     1      -1.191   3.191   0.123  0.00  0.00    -0.270 OA
ATOM     17  N   UNL     1      -2.273   1.295   0.628  0.00  0.00    -0.292 N 
ATOM     18  C   UNL     1      -2.217  -0.143   0.890  0.00  0.00    +0.169 C 
ATOM     19  C   UNL     1      -3.565  -0.752   0.486  0.00  0.00    +0.062 C 
ATOM     20  H   UNL     1      -3.128   1.752   0.653  0.00  0.00    +0.151 HD
ENDROOT
BRANCH  19  21
ATOM     21  C   UNL     1      -4.648  -0.252   1.444  0.00  0.00    +0.050 C 
BRANCH  21  22
ATOM     22  C   UNL     1      -4.300  -0.660   2.852  0.00  0.00    -0.005 A 
ATOM     23  C   UNL     1      -4.759  -1.861   3.358  0.00  0.00    +0.007 A 
ATOM     24  C   UNL     1      -4.440  -2.235   4.650  0.00  0.00    +0.000 A 
ATOM     25  C   UNL     1      -3.661  -1.410   5.439  0.00  0.00    +0.004 A 
ATOM     26  C   UNL     1      -3.199  -0.208   4.938  0.00  0.00    +0.045 A 
ATOM     27  C   UNL     1      -3.514   0.168   3.640  0.00  0.00    +0.120 A 
BRANCH  27  28
ATOM     28  O   UNL     1      -3.056   1.347   3.143  0.00  0.00    -0.506 OA
ATOM     29  H   UNL     1      -3.650   2.095   3.296  0.00  0.00    +0.292 HD
ENDBRANCH  27  28
ENDBRANCH  21  22
ENDBRANCH  19  21
TORSDOF 3
