REMARK  Name = ZINC18249716
REMARK  5 active torsions:
REMARK  status: ('A' for Active; 'I' for Inactive)
REMARK    1  A    between atoms: C_4  and  C_7
REMARK    2  A    between atoms: C_10  and  C_31
REMARK    3  A    between atoms: C_13  and  S_15
REMARK    4  A    between atoms: S_15  and  C_16
REMARK    5  A    between atoms: N_21  and  C_24
REMARK                            x       y       z     vdW  Elec       q    Type
REMARK                         _______ _______ _______ _____ _____    ______ ____
ROOT
ATOM      1  C   UNL     1       2.986   0.170  -0.561  0.00  0.00    +0.136 C 
ATOM      2  C   UNL     1       3.286  -0.089   0.929  0.00  0.00    +0.087 C 
ATOM      3  C   UNL     1       3.531  -1.580   0.997  0.00  0.00    +0.069 C 
ATOM      4  N   UNL     1       3.407  -2.090  -0.179  0.00  0.00    -0.182 NA
ATOM      5  N   UNL     1       3.091  -1.163  -1.175  0.00  0.00    -0.195 N 
ATOM      6  C   UNL     1       2.906  -1.447  -2.510  0.00  0.00    +0.149 C 
ATOM      7  N   UNL     1       2.611  -0.490  -3.345  0.00  0.00    -0.380 N 
ATOM      8  H   UNL     1       2.481  -0.690  -4.285  0.00  0.00    +0.158 HD
ATOM      9  H   UNL     1       2.522   0.422  -3.027  0.00  0.00    +0.158 HD
ENDROOT
BRANCH   1  13
ATOM     10  C   UNL     1      -0.954   1.745  -1.052  0.00  0.00    +0.000 A 
ATOM     11  C   UNL     1       0.140   2.588  -1.116  0.00  0.00    +0.000 A 
ATOM     12  C   UNL     1       1.415   2.078  -0.957  0.00  0.00    +0.005 A 
ATOM     13  C   UNL     1       1.596   0.726  -0.733  0.00  0.00    -0.025 A 
ATOM     14  C   UNL     1       0.502  -0.116  -0.668  0.00  0.00    +0.005 A 
ATOM     15  C   UNL     1      -0.773   0.393  -0.829  0.00  0.00    +0.000 A 
ENDBRANCH   1  13
BRANCH   3  16
ATOM     16  C   UNL     1       3.863  -2.333   2.221  0.00  0.00    -0.002 A 
ATOM     17  C   UNL     1       3.967  -1.670   3.446  0.00  0.00    +0.010 A 
ATOM     18  C   UNL     1       4.277  -2.381   4.587  0.00  0.00    +0.001 A 
ATOM     19  C   UNL     1       4.486  -3.747   4.519  0.00  0.00    +0.000 A 
ATOM     20  C   UNL     1       4.385  -4.410   3.309  0.00  0.00    +0.001 A 
ATOM     21  C   UNL     1       4.069  -3.713   2.161  0.00  0.00    +0.010 A 
ENDBRANCH   3  16
BRANCH   6  22
ATOM     22  S   UNL     1       3.067  -3.103  -3.089  0.00  0.00    -0.078 S 
BRANCH  22  23
ATOM     23  C   UNL     1       2.741  -2.980  -4.869  0.00  0.00    +0.149 C 
ATOM     24  C   UNL     1       2.775  -4.375  -5.525  0.00  0.00    +0.120 C 
ATOM     25  C   UNL     1       3.908  -4.271  -6.522  0.00  0.00    +0.228 C 
ATOM     26  O   UNL     1       4.277  -5.159  -7.261  0.00  0.00    -0.275 OA
ATOM     27  N   UNL     1       4.438  -3.043  -6.460  0.00  0.00    -0.209 N 
ATOM     28  C   UNL     1       3.857  -2.230  -5.564  0.00  0.00    +0.240 C 
ATOM     29  O   UNL     1       4.174  -1.081  -5.344  0.00  0.00    -0.274 OA
BRANCH  27  30
ATOM     30  C   UNL     1       5.510  -2.638  -7.267  0.00  0.00    +0.045 A 
ATOM     31  C   UNL     1       5.338  -2.505  -8.638  0.00  0.00    +0.024 A 
ATOM     32  C   UNL     1       6.396  -2.106  -9.431  0.00  0.00    +0.003 A 
ATOM     33  C   UNL     1       7.627  -1.838  -8.861  0.00  0.00    +0.020 A 
ATOM     34  C   UNL     1       7.802  -1.970  -7.495  0.00  0.00    +0.043 A 
ATOM     35  C   UNL     1       6.745  -2.364  -6.696  0.00  0.00    +0.044 A 
ATOM     36 CL   UNL     1       9.349  -1.633  -6.783  0.00  0.00    -0.083 Cl
ENDBRANCH  27  30
ENDBRANCH  22  23
ENDBRANCH   6  22
TORSDOF 5
