REMARK  Name = ZINC23968308
REMARK  7 active torsions:
REMARK  status: ('A' for Active; 'I' for Inactive)
REMARK    1  A    between atoms: C_1  and  O_2
REMARK    2  A    between atoms: O_2  and  C_3
REMARK    3  A    between atoms: C_6  and  C_9
REMARK    4  A    between atoms: C_9  and  C_11
REMARK    5  A    between atoms: C_9  and  N_17
REMARK    6  A    between atoms: C_18  and  C_20
REMARK    7  A    between atoms: C_20  and  N_21
REMARK                            x       y       z     vdW  Elec       q    Type
REMARK                         _______ _______ _______ _____ _____    ______ ____
ROOT
ATOM      1  N   UNL     1      -2.755   3.140   1.700  0.00  0.00    -0.303 N 
ATOM      2  C   UNL     1      -1.651   2.411   1.444  0.00  0.00    +0.232 C 
ATOM      3  O   UNL     1      -0.988   1.972   2.360  0.00  0.00    -0.274 OA
ATOM      4  H   UNL     1      -3.356   3.538   0.869  0.00  0.00    +0.150 HD
ENDROOT
BRANCH   1   5
ATOM      5  C   UNL     1      -3.156   3.402   3.084  0.00  0.00    +0.134 C 
BRANCH   5   9
ATOM      6  C   UNL     1      -5.487   6.980   3.240  0.00  0.00    +0.120 A 
ATOM      7  C   UNL     1      -4.554   6.715   4.233  0.00  0.00    +0.046 A 
ATOM      8  C   UNL     1      -3.802   5.557   4.180  0.00  0.00    +0.009 A 
ATOM      9  C   UNL     1      -3.978   4.664   3.139  0.00  0.00    -0.023 A 
ATOM     10  C   UNL     1      -4.902   4.929   2.146  0.00  0.00    +0.009 A 
ATOM     11  C   UNL     1      -5.661   6.082   2.197  0.00  0.00    +0.046 A 
BRANCH   6  13
ATOM     12  C   UNL     1      -7.169   8.326   2.235  0.00  0.00    +0.277 C 
ATOM     13  O   UNL     1      -6.228   8.118   3.290  0.00  0.00    -0.495 OA
ENDBRANCH   6  13
ENDBRANCH   5   9
BRANCH   5  14
ATOM     14  C   UNL     1      -3.975   2.246   3.598  0.00  0.00    -0.023 A 
ATOM     15  C   UNL     1      -4.907   1.640   2.775  0.00  0.00    +0.006 A 
ATOM     16  C   UNL     1      -5.655   0.576   3.244  0.00  0.00    +0.000 A 
ATOM     17  C   UNL     1      -5.479   0.126   4.539  0.00  0.00    +0.000 A 
ATOM     18  C   UNL     1      -4.551   0.735   5.363  0.00  0.00    +0.000 A 
ATOM     19  C   UNL     1      -3.799   1.795   4.892  0.00  0.00    +0.006 A 
ENDBRANCH   5  14
ENDBRANCH   1   5
BRANCH   2  20
ATOM     20  C   UNL     1      -1.239   2.142   0.020  0.00  0.00    +0.213 C 
BRANCH  20  21
ATOM     21  N   UNL     1      -0.016   1.335   0.009  0.00  0.00    -0.215 N 
ATOM     22  C   UNL     1       1.232   1.849   0.000  0.00  0.00    +0.251 C 
ATOM     23  O   UNL     1       1.545   3.020   0.002  0.00  0.00    -0.272 OA
ATOM     24  C   UNL     1       2.156   0.655  -0.014  0.00  0.00    +0.139 C 
ATOM     25  C   UNL     1       3.060   0.650   1.210  0.00  0.00    +0.040 C 
ATOM     26  C   UNL     1       4.095   1.775   1.104  0.00  0.00    +0.008 C 
ATOM     27  C   UNL     1       5.081   1.440  -0.024  0.00  0.00    +0.043 C 
ATOM     28  C   UNL     1       4.303   1.024  -1.230  0.00  0.00    -0.005 A 
ATOM     29  C   UNL     1       2.991   0.662  -1.283  0.00  0.00    -0.005 A 
ATOM     30  C   UNL     1       2.493   0.314  -2.538  0.00  0.00    +0.014 A 
ATOM     31  C   UNL     1       3.301   0.347  -3.622  0.00  0.00    +0.046 A 
ATOM     32  S   UNL     1       4.849   0.885  -2.910  0.00  0.00    -0.101 S 
ATOM     33  N   UNL     1       1.255  -0.501  -0.012  0.00  0.00    -0.281 N 
ATOM     34  C   UNL     1       0.002  -0.004   0.002  0.00  0.00    +0.310 C 
ATOM     35  O   UNL     1      -0.999  -0.694   0.008  0.00  0.00    -0.252 OA
ATOM     36  H   UNL     1       1.668  -1.520  -0.021  0.00  0.00    +0.152 HD
ENDBRANCH  20  21
ENDBRANCH   2  20
TORSDOF 6
