REMARK  Name = ZINC02410359
REMARK  8 active torsions:
REMARK  status: ('A' for Active; 'I' for Inactive)
REMARK    1  A    between atoms: C_4  and  C_7
REMARK    2  A    between atoms: C_7  and  C_8
REMARK    3  A    between atoms: C_8  and  C_9
REMARK    4  A    between atoms: N_11  and  C_12
REMARK    5  A    between atoms: C_12  and  C_32
REMARK    6  A    between atoms: N_18  and  C_23
REMARK    7  A    between atoms: C_23  and  C_24
REMARK    8  A    between atoms: C_24  and  C_25
REMARK                            x       y       z     vdW  Elec       q    Type
REMARK                         _______ _______ _______ _____ _____    ______ ____
ROOT
ATOM      1  C   UNL     1       7.365  -2.749   2.524  0.00  0.00    +0.240 C 
ATOM      2  C   UNL     1       7.790  -3.111   3.927  0.00  0.00    +0.096 A 
ATOM      3  C   UNL     1       8.096  -2.351   5.063  0.00  0.00    +0.262 A 
ATOM      4  N   UNL     1       8.454  -2.979   6.202  0.00  0.00    -0.275 N 
ATOM      5  C   UNL     1       8.516  -4.322   6.242  0.00  0.00    +0.331 A 
ATOM      6  O   UNL     1       8.841  -4.873   7.276  0.00  0.00    -0.246 OA
ATOM      7  N   UNL     1       8.227  -5.069   5.162  0.00  0.00    -0.281 N 
ATOM      8  C   UNL     1       7.856  -4.473   3.975  0.00  0.00    +0.120 A 
ATOM      9  N   UNL     1       7.521  -5.024   2.763  0.00  0.00    -0.269 N 
ATOM     10  C   UNL     1       7.215  -4.094   1.841  0.00  0.00    +0.256 C 
ATOM     11  O   UNL     1       6.886  -4.291   0.691  0.00  0.00    -0.272 OA
ATOM     12  O   UNL     1       8.038  -1.134   5.022  0.00  0.00    -0.267 OA
ATOM     13  H   UNL     1       7.507  -5.978   2.590  0.00  0.00    +0.156 HD
ATOM     14  H   UNL     1       8.668  -2.461   6.994  0.00  0.00    +0.173 HD
ENDROOT
BRANCH   1  17
ATOM     15  C   UNL     1       5.487  -1.699   1.381  0.00  0.00    +0.215 C 
ATOM     16  O   UNL     1       6.005  -1.990   0.324  0.00  0.00    -0.276 OA
ATOM     17  N   UNL     1       6.087  -2.034   2.541  0.00  0.00    -0.291 N 
ATOM     18  H   UNL     1       5.672  -1.801   3.386  0.00  0.00    +0.150 HD
BRANCH  15  19
ATOM     19  C   UNL     1       4.171  -0.963   1.399  0.00  0.00    +0.100 C 
BRANCH  19  20
ATOM     20  C   UNL     1       3.711  -0.707  -0.038  0.00  0.00    +0.044 C 
BRANCH  20  24
ATOM     21  C   UNL     1      -0.017   1.378   0.010  0.00  0.00    +0.000 A 
ATOM     22  C   UNL     1       1.171   2.086   0.002  0.00  0.00    +0.000 A 
ATOM     23  C   UNL     1       2.377   1.411  -0.013  0.00  0.00    +0.003 A 
ATOM     24  C   UNL     1       2.396   0.029  -0.020  0.00  0.00    -0.047 A 
ATOM     25  C   UNL     1       1.208  -0.679  -0.012  0.00  0.00    +0.003 A 
ATOM     26  C   UNL     1       0.002  -0.004   0.002  0.00  0.00    +0.000 A 
ENDBRANCH  20  24
ENDBRANCH  19  20
ENDBRANCH  15  19
ENDBRANCH   1  17
BRANCH   1  27
ATOM     27  C   UNL     1       8.441  -1.910   1.831  0.00  0.00    +0.424 C 
ATOM     28  F   UNL     1       8.617  -0.709   2.528  0.00  0.00    -0.167 F 
ATOM     29  F   UNL     1       9.646  -2.619   1.813  0.00  0.00    -0.167 F 
ATOM     30  F   UNL     1       8.043  -1.633   0.519  0.00  0.00    -0.167 F 
ENDBRANCH   1  27
BRANCH   7  31
ATOM     31  C   UNL     1       8.307  -6.529   5.247  0.00  0.00    +0.133 C 
BRANCH  31  32
ATOM     32  C   UNL     1       6.952  -7.090   5.683  0.00  0.00    +0.057 C 
BRANCH  32  33
ATOM     33  C   UNL     1       7.035  -8.592   5.770  0.00  0.00    -0.046 A 
ATOM     34  C   UNL     1       6.745  -9.366   4.662  0.00  0.00    +0.004 A 
ATOM     35  C   UNL     1       6.820 -10.744   4.742  0.00  0.00    +0.000 A 
ATOM     36  C   UNL     1       7.187 -11.348   5.930  0.00  0.00    +0.000 A 
ATOM     37  C   UNL     1       7.479 -10.575   7.038  0.00  0.00    +0.000 A 
ATOM     38  C   UNL     1       7.407  -9.196   6.957  0.00  0.00    +0.004 A 
ENDBRANCH  32  33
ENDBRANCH  31  32
ENDBRANCH   7  31
TORSDOF 8
