REMARK  Name = ZINC03384457
REMARK  12 active torsions:
REMARK  status: ('A' for Active; 'I' for Inactive)
REMARK    1  A    between atoms: C_4  and  C_7
REMARK    2  A    between atoms: C_7  and  C_8
REMARK    3  A    between atoms: C_8  and  C_10
REMARK    4  A    between atoms: C_8  and  N_58
REMARK    5  A    between atoms: C_12  and  C_15
REMARK    6  A    between atoms: C_21  and  C_22
REMARK    7  A    between atoms: C_21  and  N_58
REMARK    8  A    between atoms: C_22  and  C_24
REMARK    9  A    between atoms: C_22  and  O_34
REMARK   10  A    between atoms: C_24  and  O_25
REMARK   11  A    between atoms: O_25  and  C_26
REMARK   12  A    between atoms: C_26  and  C_27
REMARK                            x       y       z     vdW  Elec       q    Type
REMARK                         _______ _______ _______ _____ _____    ______ ____
ROOT
ATOM      1  C   UNL     1       1.353   3.495  -0.110  0.00  0.00    +0.023 C 
ENDROOT
BRANCH   1   2
ATOM      2  C   UNL     1       2.536   4.008  -0.891  0.00  0.00    +0.214 A 
ATOM      3  N   UNL     1       2.506   4.893  -1.856  0.00  0.00    -0.193 NA
ATOM      4  C   UNL     1       3.791   5.042  -2.252  0.00  0.00    +0.202 A 
ATOM      5  N   UNL     1       4.516   4.240  -1.518  0.00  0.00    -0.056 NA
ATOM      6  O   UNL     1       3.812   3.641  -0.733  0.00  0.00    -0.339 OA
BRANCH   4   7
ATOM      7  C   UNL     1       4.283   5.942  -3.324  0.00  0.00    +0.022 A 
ATOM      8  C   UNL     1       3.388   6.741  -4.033  0.00  0.00    +0.012 A 
ATOM      9  C   UNL     1       3.852   7.581  -5.025  0.00  0.00    +0.001 A 
ATOM     10  C   UNL     1       5.202   7.621  -5.324  0.00  0.00    +0.000 A 
ATOM     11  C   UNL     1       6.094   6.826  -4.628  0.00  0.00    +0.001 A 
ATOM     12  C   UNL     1       5.642   5.987  -3.630  0.00  0.00    +0.012 A 
ENDBRANCH   4   7
ENDBRANCH   1   2
BRANCH   1  13
ATOM     13  N   UNL     1       1.449   2.027   0.004  0.00  0.00    +0.389 N 
ATOM     14  H   UNL     1       2.018   1.788   0.825  0.00  0.00    -0.085 HD
ATOM     15  H   UNL     1       1.892   1.650  -0.841  0.00  0.00    -0.085 HD
BRANCH  13  16
ATOM     16  C   UNL     1       0.105   1.437   0.155  0.00  0.00    -0.048 C 
BRANCH  16  17
ATOM     17  C   UNL     1       0.223  -0.088   0.143  0.00  0.00    +0.123 C 
BRANCH  17  18
ATOM     18  O   UNL     1       0.797  -0.512  -1.095  0.00  0.00    -0.391 OA
ATOM     19  H   UNL     1       0.283  -0.259  -1.874  0.00  0.00    +0.210 HD
ENDBRANCH  17  18
BRANCH  17  20
ATOM     20  C   UNL     1      -1.166  -0.708   0.299  0.00  0.00    +0.189 C 
BRANCH  20  21
ATOM     21  O   UNL     1      -1.045  -2.128   0.405  0.00  0.00    -0.373 OA
BRANCH  21  22
ATOM     22  C   UNL     1      -2.293  -2.809   0.556  0.00  0.00    +0.196 C 
BRANCH  22  23
ATOM     23  C   UNL     1      -2.047  -4.292   0.657  0.00  0.00    -0.004 A 
ATOM     24  C   UNL     1      -0.757  -4.785   0.592  0.00  0.00    +0.007 A 
ATOM     25  C   UNL     1      -0.531  -6.145   0.690  0.00  0.00    +0.000 A 
ATOM     26  C   UNL     1      -1.595  -7.014   0.842  0.00  0.00    +0.001 A 
ATOM     27  C   UNL     1      -2.886  -6.523   0.901  0.00  0.00    +0.020 A 
ATOM     28  C   UNL     1      -3.112  -5.161   0.809  0.00  0.00    +0.046 A 
ATOM     29 CL   UNL     1      -4.733  -4.543   0.883  0.00  0.00    -0.083 Cl
ENDBRANCH  22  23
ENDBRANCH  21  22
ENDBRANCH  20  21
ENDBRANCH  17  20
ENDBRANCH  16  17
ENDBRANCH  13  16
ENDBRANCH   1  13
BRANCH   1  30
ATOM     30  C   UNL     1       1.357   4.117   1.287  0.00  0.00    +0.029 C 
BRANCH  30  34
ATOM     31  C   UNL     1       0.714   8.329   0.972  0.00  0.00    +0.000 A 
ATOM     32  C   UNL     1      -0.364   7.464   0.977  0.00  0.00    +0.000 A 
ATOM     33  C   UNL     1      -0.156   6.101   1.079  0.00  0.00    +0.003 A 
ATOM     34  C   UNL     1       1.130   5.603   1.176  0.00  0.00    -0.048 A 
ATOM     35  C   UNL     1       2.208   6.469   1.176  0.00  0.00    +0.003 A 
ATOM     36  C   UNL     1       2.000   7.831   1.069  0.00  0.00    +0.000 A 
ENDBRANCH  30  34
ENDBRANCH   1  30
TORSDOF 12
