REMARK  Name = ZINC09124319
REMARK  11 active torsions:
REMARK  status: ('A' for Active; 'I' for Inactive)
REMARK    1  A    between atoms: C_1  and  C_2
REMARK    2  A    between atoms: C_2  and  O_3
REMARK    3  A    between atoms: O_3  and  C_4
REMARK    4  A    between atoms: C_6  and  C_11
REMARK    5  A    between atoms: C_9  and  O_10
REMARK    6  A    between atoms: C_14  and  C_30
REMARK    7  A    between atoms: N_21  and  C_22
REMARK    8  A    between atoms: C_22  and  C_23
REMARK    9  A    between atoms: C_32  and  C_38
REMARK   10  A    between atoms: C_34  and  C_37
REMARK   11  A    between atoms: C_35  and  O_36
REMARK                            x       y       z     vdW  Elec       q    Type
REMARK                         _______ _______ _______ _____ _____    ______ ____
ROOT
ATOM      1  C   UNL     1      -0.047  -4.987   0.081  0.00  0.00    +0.142 C 
ATOM      2  C   UNL     1       0.776  -5.330   1.293  0.00  0.00    +0.035 A 
ATOM      3  C   UNL     1       1.483  -4.867   2.408  0.00  0.00    +0.102 A 
ATOM      4  N   UNL     1       1.965  -5.923   3.035  0.00  0.00    -0.173 NA
ATOM      5  N   UNL     1       1.632  -7.005   2.426  0.00  0.00    -0.272 N 
ATOM      6  H   UNL     1       1.876  -7.900   2.709  0.00  0.00    +0.189 HD
ATOM      7  C   UNL     1       0.884  -6.707   1.323  0.00  0.00    +0.126 A 
ATOM      8  C   UNL     1       0.159  -7.257   0.172  0.00  0.00    +0.266 C 
ATOM      9  O   UNL     1       0.064  -8.442  -0.087  0.00  0.00    -0.268 OA
ATOM     10  N   UNL     1      -0.387  -6.265  -0.557  0.00  0.00    -0.281 N 
ENDROOT
BRANCH   3  11
ATOM     11  C   UNL     1       1.659  -3.450   2.811  0.00  0.00    +0.044 A 
ATOM     12  C   UNL     1       0.988  -2.440   2.126  0.00  0.00    +0.017 A 
ATOM     13  C   UNL     1       1.155  -1.123   2.505  0.00  0.00    -0.049 A 
ATOM     14  C   UNL     1       1.986  -0.802   3.563  0.00  0.00    +0.010 A 
ATOM     15  C   UNL     1       2.656  -1.797   4.250  0.00  0.00    -0.008 A 
ATOM     16  C   UNL     1       2.493  -3.124   3.884  0.00  0.00    +0.129 A 
ATOM     17  C   UNL     1       3.560  -1.440   5.401  0.00  0.00    +0.047 C 
ATOM     18  C   UNL     1       0.429  -0.031   1.762  0.00  0.00    +0.044 C 
BRANCH  16  19
ATOM     19  O   UNL     1       3.146  -4.103   4.562  0.00  0.00    -0.506 OA
ATOM     20  H   UNL     1       4.019  -4.314   4.204  0.00  0.00    +0.292 HD
ENDBRANCH  16  19
ENDBRANCH   3  11
BRANCH   1  23
ATOM     21  C   UNL     1       2.653  -3.847  -2.303  0.00  0.00    +0.162 A 
ATOM     22  C   UNL     1       1.913  -4.631  -1.433  0.00  0.00    +0.055 A 
ATOM     23  C   UNL     1       0.756  -4.132  -0.865  0.00  0.00    -0.019 A 
ATOM     24  C   UNL     1       0.333  -2.850  -1.165  0.00  0.00    +0.009 A 
ATOM     25  C   UNL     1       1.066  -2.062  -2.033  0.00  0.00    +0.049 A 
ATOM     26  C   UNL     1       2.230  -2.555  -2.600  0.00  0.00    +0.158 A 
BRANCH  26  27
ATOM     27  O   UNL     1       2.955  -1.779  -3.450  0.00  0.00    -0.503 OA
ATOM     28  H   UNL     1       2.697  -1.864  -4.378  0.00  0.00    +0.292 HD
ENDBRANCH  26  27
BRANCH  21  29
ATOM     29  O   UNL     1       3.792  -4.336  -2.862  0.00  0.00    -0.489 OA
BRANCH  29  31
ATOM     30  C   UNL     1       5.547  -5.979  -3.111  0.00  0.00    +0.048 C 
ATOM     31  C   UNL     1       4.220  -5.631  -2.434  0.00  0.00    +0.226 C 
ENDBRANCH  29  31
ENDBRANCH  21  29
ENDBRANCH   1  23
BRANCH  10  32
ATOM     32  C   UNL     1      -1.183  -6.431  -1.775  0.00  0.00    +0.144 C 
BRANCH  32  33
ATOM     33  C   UNL     1      -0.272  -6.412  -2.976  0.00  0.00    -0.030 A 
ATOM     34  C   UNL     1       0.022  -5.215  -3.601  0.00  0.00    +0.008 A 
ATOM     35  C   UNL     1       0.857  -5.196  -4.702  0.00  0.00    +0.038 A 
ATOM     36  C   UNL     1       1.399  -6.377  -5.179  0.00  0.00    +0.123 A 
ATOM     37  C   UNL     1       1.104  -7.576  -4.552  0.00  0.00    +0.038 A 
ATOM     38  C   UNL     1       0.273  -7.591  -3.448  0.00  0.00    +0.008 A 
ATOM     39  F   UNL     1       2.215  -6.360  -6.256  0.00  0.00    -0.205 F 
ENDBRANCH  32  33
ENDBRANCH  10  32
TORSDOF 8
