REMARK  Name = ZINC06443827
REMARK  8 active torsions:
REMARK  status: ('A' for Active; 'I' for Inactive)
REMARK    1  A    between atoms: C_1  and  C_2
REMARK    2  A    between atoms: C_12  and  C_14
REMARK    3  A    between atoms: C_14  and  C_16
REMARK    4  A    between atoms: C_14  and  N_74
REMARK    5  A    between atoms: N_20  and  C_21
REMARK    6  A    between atoms: C_21  and  C_22
REMARK    7  A    between atoms: C_25  and  O_28
REMARK    8  A    between atoms: O_28  and  C_29
REMARK                            x       y       z     vdW  Elec       q    Type
REMARK                         _______ _______ _______ _____ _____    ______ ____
ROOT
ATOM      1  C   UNL     1       0.421  -2.522   4.845  0.00  0.00    +0.039 C 
ENDROOT
BRANCH   1  13
ATOM      2  C   UNL     1       1.425   2.008   0.190  0.00  0.00    +0.046 C 
ATOM      3  C   UNL     1       1.146   0.530   0.097  0.00  0.00    -0.026 A 
ATOM      4  C   UNL     1       1.060  -0.081  -1.135  0.00  0.00    +0.005 A 
ATOM      5  C   UNL     1       0.809  -1.443  -1.235  0.00  0.00    +0.001 A 
ATOM      6  C   UNL     1       0.630  -2.201  -0.112  0.00  0.00    +0.010 A 
ATOM      7  C   UNL     1       0.708  -1.601   1.149  0.00  0.00    -0.001 A 
ATOM      8  C   UNL     1       0.968  -0.221   1.254  0.00  0.00    +0.052 A 
ATOM      9  N   UNL     1       1.043   0.366   2.499  0.00  0.00    -0.322 N 
ATOM     10  H   UNL     1       1.223   1.316   2.570  0.00  0.00    +0.169 HD
ATOM     11  C   UNL     1       0.871  -0.361   3.617  0.00  0.00    +0.251 A 
ATOM     12  O   UNL     1       0.943   0.191   4.702  0.00  0.00    -0.268 OA
ATOM     13  C   UNL     1       0.607  -1.747   3.567  0.00  0.00    +0.011 A 
ATOM     14  C   UNL     1       0.521  -2.382   2.372  0.00  0.00    +0.017 A 
ENDBRANCH   1  13
BRANCH   1  25
ATOM     15  C   UNL     1      -1.831  -1.635   4.876  0.00  0.00    -0.077 C 
ATOM     16  C   UNL     1      -2.832  -0.835   5.713  0.00  0.00    -0.018 C 
ATOM     17  C   UNL     1      -3.171  -1.621   6.983  0.00  0.00    +0.003 C 
ATOM     18  C   UNL     1      -1.882  -1.902   7.759  0.00  0.00    -0.044 C 
ATOM     19  C   UNL     1      -0.909  -2.671   6.863  0.00  0.00    -0.071 C 
ATOM     20  C   UNL     1      -1.246  -0.578   8.186  0.00  0.00    +0.005 C 
ATOM     21  C   UNL     1       0.041  -0.857   8.964  0.00  0.00    +0.000 C 
ATOM     22  C   UNL     1      -0.283  -1.691  10.205  0.00  0.00    +0.000 C 
ATOM     23  C   UNL     1      -0.917  -3.016   9.777  0.00  0.00    +0.000 C 
ATOM     24  C   UNL     1      -2.205  -2.737   8.999  0.00  0.00    +0.005 C 
ATOM     25  N   UNL     1      -0.604  -1.851   5.671  0.00  0.00    +0.390 N 
ATOM     26  H   UNL     1      -0.241  -0.940   5.977  0.00  0.00    -0.080 HD
ENDBRANCH   1  25
BRANCH   1  27
ATOM     27  C   UNL     1       1.719  -2.550   5.610  0.00  0.00    +0.143 A 
ATOM     28  N   UNL     1       2.210  -1.589   6.354  0.00  0.00    -0.115 NA
ATOM     29  N   UNL     1       3.332  -1.994   6.839  0.00  0.00    -0.023 NA
ATOM     30  N   UNL     1       3.574  -3.187   6.418  0.00  0.00    -0.044 NA
ATOM     31  N   UNL     1       2.603  -3.564   5.657  0.00  0.00    -0.226 N 
BRANCH  31  32
ATOM     32  C   UNL     1       2.484  -4.854   4.973  0.00  0.00    +0.182 C 
BRANCH  32  33
ATOM     33  C   UNL     1       1.877  -5.866   5.910  0.00  0.00    -0.026 A 
ATOM     34  C   UNL     1       2.691  -6.610   6.744  0.00  0.00    +0.009 A 
ATOM     35  C   UNL     1       2.136  -7.534   7.609  0.00  0.00    +0.046 A 
ATOM     36  C   UNL     1       0.762  -7.723   7.631  0.00  0.00    +0.120 A 
ATOM     37  C   UNL     1      -0.052  -6.979   6.790  0.00  0.00    +0.046 A 
ATOM     38  C   UNL     1       0.507  -6.052   5.931  0.00  0.00    +0.009 A 
BRANCH  36  39
ATOM     39  O   UNL     1       0.215  -8.635   8.477  0.00  0.00    -0.495 OA
ATOM     40  C   UNL     1       1.114  -9.365   9.315  0.00  0.00    +0.277 C 
ENDBRANCH  36  39
ENDBRANCH  32  33
ENDBRANCH  31  32
ENDBRANCH   1  27
TORSDOF 6
