REMARK  Name = ZINC44021392
REMARK  4 active torsions:
REMARK  status: ('A' for Active; 'I' for Inactive)
REMARK    1  A    between atoms: C_1  and  C_2
REMARK    2  A    between atoms: C_7  and  N_8
REMARK    3  A    between atoms: N_8  and  C_9
REMARK    4  A    between atoms: N_13  and  C_18
REMARK                            x       y       z     vdW  Elec       q    Type
REMARK                         _______ _______ _______ _____ _____    ______ ____
ROOT
ATOM      1  C   UNL     1      -0.012  -0.780   3.555  0.00  0.00    +0.109 A 
ATOM      2  C   UNL     1      -0.193  -0.192   4.776  0.00  0.00    +0.112 A 
ATOM      3  C   UNL     1      -0.233  -1.000   5.923  0.00  0.00    +0.259 A 
ATOM      4  O   UNL     1      -0.393  -0.497   7.022  0.00  0.00    -0.267 OA
ATOM      5  N   UNL     1      -0.093  -2.335   5.802  0.00  0.00    -0.255 N 
ATOM      6  C   UNL     1       0.085  -2.898   4.593  0.00  0.00    +0.331 A 
ATOM      7  O   UNL     1       0.210  -4.104   4.506  0.00  0.00    -0.246 OA
ATOM      8  N   UNL     1       0.121  -2.146   3.478  0.00  0.00    -0.295 N 
ATOM      9  H   UNL     1       0.246  -2.570   2.614  0.00  0.00    +0.172 HD
ENDROOT
BRANCH   5  10
ATOM     10  C   UNL     1      -0.134  -3.181   6.998  0.00  0.00    +0.054 C 
ATOM     11  C   UNL     1      -1.280  -4.186   6.873  0.00  0.00    +0.032 C 
ATOM     12  C   UNL     1      -1.323  -5.069   8.121  0.00  0.00    -0.008 C 
ATOM     13  C   UNL     1      -1.544  -4.195   9.357  0.00  0.00    +0.007 C 
ATOM     14  C   UNL     1      -0.397  -3.190   9.482  0.00  0.00    -0.008 C 
ATOM     15  C   UNL     1      -0.354  -2.306   8.234  0.00  0.00    +0.032 C 
ATOM     16  C   UNL     1       0.928  -3.942   9.620  0.00  0.00    +0.007 C 
ATOM     17  C   UNL     1       1.149  -4.817   8.384  0.00  0.00    -0.008 C 
ATOM     18  C   UNL     1       0.002  -5.822   8.259  0.00  0.00    +0.007 C 
ATOM     19  C   UNL     1       1.191  -3.933   7.136  0.00  0.00    +0.032 C 
ENDBRANCH   5  10
BRANCH   1  20
ATOM     20  N   UNL     1       0.030  -0.015   2.417  0.00  0.00    -0.300 N 
ATOM     21  H   UNL     1      -0.717   0.563   2.193  0.00  0.00    +0.154 HD
BRANCH  20  28
ATOM     22  C   UNL     1      -0.070   1.401  -0.049  0.00  0.00    +0.045 C 
ATOM     23  C   UNL     1       1.143   0.609   0.367  0.00  0.00    -0.029 A 
ATOM     24  C   UNL     1       2.252   0.561  -0.455  0.00  0.00    +0.006 A 
ATOM     25  C   UNL     1       3.365  -0.165  -0.075  0.00  0.00    +0.020 A 
ATOM     26  C   UNL     1       3.373  -0.845   1.131  0.00  0.00    +0.043 A 
ATOM     27  C   UNL     1       2.267  -0.799   1.958  0.00  0.00    +0.043 A 
ATOM     28  C   UNL     1       1.149  -0.067   1.580  0.00  0.00    +0.037 A 
ATOM     29 CL   UNL     1       4.773  -1.755   1.605  0.00  0.00    -0.083 Cl
ENDBRANCH  20  28
ENDBRANCH   1  20
TORSDOF 3
