REMARK  Name = ZINC00649166
REMARK  15 active torsions:
REMARK  status: ('A' for Active; 'I' for Inactive)
REMARK    1  A    between atoms: C_1  and  C_2
REMARK    2  A    between atoms: C_3  and  C_37
REMARK    3  A    between atoms: C_4  and  C_25
REMARK    4  A    between atoms: C_10  and  C_15
REMARK    5  A    between atoms: C_18  and  O_23
REMARK    6  A    between atoms: C_19  and  O_21
REMARK    7  A    between atoms: O_21  and  C_22
REMARK    8  A    between atoms: O_23  and  C_24
REMARK    9  A    between atoms: C_28  and  O_33
REMARK   10  A    between atoms: C_29  and  O_31
REMARK   11  A    between atoms: O_31  and  C_32
REMARK   12  A    between atoms: O_33  and  C_34
REMARK   13  A    between atoms: C_34  and  C_36
REMARK   14  A    between atoms: C_37  and  O_39
REMARK   15  A    between atoms: O_39  and  C_40
REMARK                            x       y       z     vdW  Elec       q    Type
REMARK                         _______ _______ _______ _____ _____    ______ ____
ROOT
ATOM      1  C   UNL     1      -2.404   0.897   0.470  0.00  0.00    +0.061 C 
ATOM      2  C   UNL     1      -1.171   1.642   0.028  0.00  0.00    +0.016 C 
ATOM      3  C   UNL     1      -1.271   2.925  -0.355  0.00  0.00    +0.065 C 
ATOM      4  C   UNL     1      -0.068   3.695  -0.816  0.00  0.00    +0.092 C 
ATOM      5  C   UNL     1       1.207   3.021  -0.375  0.00  0.00    +0.024 C 
ATOM      6  C   UNL     1       1.205   1.729   0.018  0.00  0.00    +0.016 C 
ATOM      7  N   UNL     1       0.041   1.008   0.026  0.00  0.00    -0.321 N 
ATOM      8  C   UNL     1       2.477   1.049   0.459  0.00  0.00    +0.059 C 
ATOM      9  C   UNL     1       3.669   1.658  -0.281  0.00  0.00    +0.032 C 
ATOM     10  C   UNL     1       3.709   3.161   0.014  0.00  0.00    +0.088 C 
ATOM     11  C   UNL     1       2.395   3.773  -0.388  0.00  0.00    +0.162 C 
ATOM     12  O   UNL     1       2.360   4.939  -0.730  0.00  0.00    -0.292 OA
ATOM     13  H   UNL     1       0.087  -0.091   0.032  0.00  0.00    +0.152 HD
ENDROOT
BRANCH   9  14
ATOM     14  C   UNL     1       4.945   1.014   0.197  0.00  0.00    -0.040 A 
ATOM     15  C   UNL     1       5.306   1.103   1.529  0.00  0.00    +0.008 A 
ATOM     16  C   UNL     1       6.472   0.509   1.974  0.00  0.00    +0.049 A 
ATOM     17  C   UNL     1       7.288  -0.168   1.082  0.00  0.00    +0.161 A 
ATOM     18  C   UNL     1       6.928  -0.254  -0.259  0.00  0.00    +0.162 A 
ATOM     19  C   UNL     1       5.755   0.339  -0.698  0.00  0.00    +0.053 A 
BRANCH  18  20
ATOM     20  O   UNL     1       7.725  -0.918  -1.138  0.00  0.00    -0.491 OA
ATOM     21  C   UNL     1       7.292  -0.966  -2.499  0.00  0.00    +0.277 C 
ENDBRANCH  18  20
BRANCH  17  22
ATOM     22  O   UNL     1       8.439  -0.748   1.517  0.00  0.00    -0.491 OA
ATOM     23  C   UNL     1       8.745  -0.620   2.907  0.00  0.00    +0.277 C 
ENDBRANCH  17  22
ENDBRANCH   9  14
BRANCH   4  24
ATOM     24  C   UNL     1      -0.086   3.785  -2.320  0.00  0.00    -0.032 A 
ATOM     25  C   UNL     1      -0.025   2.632  -3.081  0.00  0.00    +0.008 A 
ATOM     26  C   UNL     1      -0.046   2.708  -4.461  0.00  0.00    +0.050 A 
ATOM     27  C   UNL     1      -0.117   3.944  -5.085  0.00  0.00    +0.173 A 
ATOM     28  C   UNL     1      -0.173   5.105  -4.319  0.00  0.00    +0.163 A 
ATOM     29  C   UNL     1      -0.157   5.020  -2.936  0.00  0.00    +0.054 A 
BRANCH  28  30
ATOM     30  O   UNL     1      -0.243   6.319  -4.927  0.00  0.00    -0.491 OA
ATOM     31  C   UNL     1      -0.297   7.467  -4.078  0.00  0.00    +0.277 C 
ENDBRANCH  28  30
BRANCH  27  32
ATOM     32  O   UNL     1      -0.133   4.021  -6.442  0.00  0.00    -0.422 OA
BRANCH  32  33
ATOM     33  C   UNL     1       1.031   4.304  -7.050  0.00  0.00    +0.309 C 
ATOM     34  O   UNL     1       2.048   4.379  -6.402  0.00  0.00    -0.251 OA
ATOM     35  C   UNL     1       1.069   4.527  -8.540  0.00  0.00    +0.136 C 
ENDBRANCH  32  33
ENDBRANCH  27  32
ENDBRANCH   4  24
BRANCH   3  36
ATOM     36  C   UNL     1      -2.534   3.560  -0.331  0.00  0.00    +0.337 C 
ATOM     37  O   UNL     1      -3.517   2.946   0.040  0.00  0.00    -0.245 OA
BRANCH  36  38
ATOM     38  O   UNL     1      -2.649   4.847  -0.720  0.00  0.00    -0.465 OA
ATOM     39  C   UNL     1      -3.955   5.426  -0.670  0.00  0.00    +0.280 C 
ENDBRANCH  36  38
ENDBRANCH   3  36
TORSDOF 9
