REMARK  Name = ZINC38958894
REMARK  7 active torsions:
REMARK  status: ('A' for Active; 'I' for Inactive)
REMARK    1  A    between atoms: C_1  and  C_2
REMARK    2  A    between atoms: C_5  and  S_9
REMARK    3  A    between atoms: C_7  and  C_8
REMARK    4  A    between atoms: S_9  and  N_12
REMARK    5  A    between atoms: N_12  and  C_13
REMARK    6  A    between atoms: N_16  and  C_17
REMARK    7  A    between atoms: C_20  and  C_23
REMARK                            x       y       z     vdW  Elec       q    Type
REMARK                         _______ _______ _______ _____ _____    ______ ____
ROOT
ATOM      1  C   UNL     1       2.498  -4.861   0.935  0.00  0.00    +0.236 C 
ATOM      2  C   UNL     1       3.905  -4.424   0.597  0.00  0.00    +0.147 C 
ATOM      3  N   UNL     1       4.113  -3.480  -0.292  0.00  0.00    -0.231 NA
ATOM      4  N   UNL     1       4.933  -5.011   1.212  0.00  0.00    -0.339 N 
ATOM      5  C   UNL     1       4.753  -5.963   2.109  0.00  0.00    +0.064 A 
ATOM      6  C   UNL     1       5.869  -6.562   2.742  0.00  0.00    +0.028 A 
ATOM      7  C   UNL     1       5.691  -7.538   3.661  0.00  0.00    +0.002 A 
ATOM      8  C   UNL     1       4.422  -8.005   4.036  0.00  0.00    +0.002 A 
ATOM      9  C   UNL     1       3.291  -7.500   3.493  0.00  0.00    +0.027 A 
ATOM     10  C   UNL     1       3.400  -6.436   2.485  0.00  0.00    +0.060 A 
ATOM     11  N   UNL     1       2.332  -5.924   1.939  0.00  0.00    -0.361 N 
ATOM     12  H   UNL     1       1.448  -6.237   2.189  0.00  0.00    +0.162 HD
ATOM     13  H   UNL     1       5.836  -4.731   0.995  0.00  0.00    +0.167 HD
ENDROOT
BRANCH   3  14
ATOM     14  C   UNL     1       5.380  -3.181  -0.682  0.00  0.00    +0.066 A 
ATOM     15  C   UNL     1       6.209  -4.184  -1.203  0.00  0.00    +0.028 A 
ATOM     16  C   UNL     1       7.481  -3.883  -1.595  0.00  0.00    +0.017 A 
ATOM     17  C   UNL     1       7.958  -2.572  -1.476  0.00  0.00    +0.063 A 
ATOM     18  C   UNL     1       7.132  -1.569  -0.956  0.00  0.00    +0.017 A 
ATOM     19  C   UNL     1       5.857  -1.867  -0.570  0.00  0.00    +0.028 A 
BRANCH  17  20
ATOM     20  C   UNL     1       9.332  -2.248  -1.899  0.00  0.00    +0.387 C 
ATOM     21  O   UNL     1      10.055  -3.124  -2.353  0.00  0.00    -0.241 OA
ATOM     22  O   UNL     1       9.749  -1.103  -1.796  0.00  0.00    -0.241 OA
ENDBRANCH  17  20
ENDBRANCH   3  14
BRANCH   1  23
ATOM     23  N   UNL     1       1.859  -5.312  -0.304  0.00  0.00    -0.161 NA
ATOM     24  H   UNL     1       2.386  -5.756  -0.987  0.00  0.00    +0.151 HD
BRANCH  23  25
ATOM     25  S   UNL     1       0.239  -5.064  -0.538  0.00  0.00    +0.060 S 
ATOM     26  O   UNL     1      -0.415  -5.514   0.640  0.00  0.00    -0.153 OA
ATOM     27  O   UNL     1      -0.069  -5.581  -1.825  0.00  0.00    -0.153 OA
BRANCH  25  32
ATOM     28  C   UNL     1      -0.633   0.899  -0.822  0.00  0.00    +0.044 C 
ATOM     29  C   UNL     1      -0.415  -0.590  -0.751  0.00  0.00    -0.047 A 
ATOM     30  C   UNL     1      -0.148  -1.305  -1.904  0.00  0.00    +0.005 A 
ATOM     31  C   UNL     1       0.052  -2.671  -1.839  0.00  0.00    +0.029 A 
ATOM     32  C   UNL     1      -0.015  -3.322  -0.621  0.00  0.00    +0.106 A 
ATOM     33  C   UNL     1      -0.281  -2.607   0.531  0.00  0.00    +0.032 A 
ATOM     34  C   UNL     1      -0.477  -1.240   0.467  0.00  0.00    -0.046 A 
ATOM     35  C   UNL     1      -0.762  -0.460   1.724  0.00  0.00    +0.044 C 
ENDBRANCH  25  32
ENDBRANCH  23  25
ENDBRANCH   1  23
TORSDOF 5
