REMARK  Name = ZINC14175930
REMARK  7 active torsions:
REMARK  status: ('A' for Active; 'I' for Inactive)
REMARK    1  A    between atoms: C_1  and  C_2
REMARK    2  A    between atoms: C_8  and  N_10
REMARK    3  A    between atoms: C_11  and  C_13
REMARK    4  A    between atoms: C_13  and  C_27
REMARK    5  A    between atoms: C_14  and  C_15
REMARK    6  A    between atoms: C_20  and  O_25
REMARK    7  A    between atoms: O_25  and  C_26
REMARK                            x       y       z     vdW  Elec       q    Type
REMARK                         _______ _______ _______ _____ _____    ______ ____
ROOT
ATOM      1  C   UNL     1      -1.176  -2.108  -0.122  0.00  0.00    +0.114 C 
ATOM      2  C   UNL     1      -1.198  -0.724  -0.009  0.00  0.00    +0.031 C 
ENDROOT
BRANCH   2   3
ATOM      3  C   UNL     1       0.001  -0.003  -0.014  0.00  0.00    -0.008 C 
ATOM      4  C   UNL     1       0.881  -0.137  -1.052  0.00  0.00    +0.018 C 
ATOM      5  C   UNL     1       2.130   0.628  -0.994  0.00  0.00    +0.017 A 
ATOM      6  C   UNL     1       2.921   0.819  -2.130  0.00  0.00    +0.015 A 
ATOM      7  C   UNL     1       4.079   1.539  -2.034  0.00  0.00    +0.046 A 
ATOM      8  C   UNL     1       4.473   2.083  -0.815  0.00  0.00    +0.124 A 
ATOM      9  C   UNL     1       3.698   1.901   0.323  0.00  0.00    +0.091 A 
ATOM     10  C   UNL     1       2.525   1.176   0.243  0.00  0.00    +0.132 A 
ATOM     11  O   UNL     1       1.743   0.979   1.333  0.00  0.00    -0.487 OA
ATOM     12  C   UNL     1       0.332   0.926   1.126  0.00  0.00    +0.264 C 
BRANCH   8  13
ATOM     13  O   UNL     1       5.626   2.796  -0.737  0.00  0.00    -0.495 OA
ATOM     14  C   UNL     1       6.378   2.946  -1.942  0.00  0.00    +0.277 C 
ENDBRANCH   8  13
ENDBRANCH   2   3
BRANCH   1  16
ATOM     15  N   UNL     1      -2.412  -4.198  -0.353  0.00  0.00    -0.308 N 
ATOM     16  C   UNL     1      -2.433  -2.855  -0.244  0.00  0.00    +0.255 C 
ATOM     17  O   UNL     1      -3.496  -2.261  -0.247  0.00  0.00    -0.269 OA
ATOM     18  H   UNL     1      -1.565  -4.671  -0.351  0.00  0.00    +0.149 HD
BRANCH  15  25
ATOM     19  C   UNL     1      -2.833  -6.004  -2.578  0.00  0.00    +0.009 C 
ATOM     20  C   UNL     1      -3.404  -6.273  -1.184  0.00  0.00    +0.006 C 
ATOM     21  C   UNL     1      -4.716  -7.051  -1.312  0.00  0.00    +0.005 C 
ATOM     22  C   UNL     1      -5.287  -7.320   0.082  0.00  0.00    +0.000 C 
ATOM     23  C   UNL     1      -5.550  -5.990   0.790  0.00  0.00    +0.002 C 
ATOM     24  C   UNL     1      -4.239  -5.212   0.918  0.00  0.00    +0.022 C 
ATOM     25  C   UNL     1      -3.668  -4.943  -0.476  0.00  0.00    +0.076 C 
ENDBRANCH  15  25
ENDBRANCH   1  16
BRANCH   1  26
ATOM     26  C   UNL     1       0.074  -2.807  -0.118  0.00  0.00    +0.104 C 
ATOM     27  N   UNL     1       1.066  -3.362  -0.115  0.00  0.00    -0.191 NA
ENDBRANCH   1  26
TORSDOF 5
