REMARK  Name = ZINC59226970
REMARK  5 active torsions:
REMARK  status: ('A' for Active; 'I' for Inactive)
REMARK    1  A    between atoms: C_1  and  S_2
REMARK    2  A    between atoms: S_2  and  C_3
REMARK    3  A    between atoms: C_6  and  C_9
REMARK    4  A    between atoms: N_19  and  C_20
REMARK    5  A    between atoms: N_26  and  C_27
REMARK                            x       y       z     vdW  Elec       q    Type
REMARK                         _______ _______ _______ _____ _____    ______ ____
ROOT
ATOM      1  C   UNL     1       0.919  -1.746   4.100  0.00  0.00    +0.216 C 
ATOM      2  N   UNL     1       2.082  -1.005   4.620  0.00  0.00    -0.241 N 
ATOM      3  N   UNL     1       2.807  -1.910   5.402  0.00  0.00    -0.150 NA
ATOM      4  C   UNL     1       2.245  -3.085   5.423  0.00  0.00    +0.222 C 
ATOM      5  N   UNL     1       1.079  -3.095   4.654  0.00  0.00    -0.217 N 
ATOM      6  C   UNL     1       0.345  -4.240   4.549  0.00  0.00    +0.198 C 
ATOM      7  N   UNL     1       0.747  -5.330   5.177  0.00  0.00    -0.186 NA
ATOM      8  C   UNL     1       1.865  -5.324   5.914  0.00  0.00    +0.202 C 
ATOM      9  N   UNL     1       2.608  -4.234   6.048  0.00  0.00    -0.299 N 
ATOM     10  N   UNL     1       2.253  -6.482   6.556  0.00  0.00    -0.285 N 
ATOM     11  N   UNL     1      -0.800  -4.258   3.799  0.00  0.00    -0.287 N 
ATOM     12  H   UNL     1       2.300  -0.074   4.453  0.00  0.00    +0.171 HD
ATOM     13  H   UNL     1       2.506  -7.262   6.037  0.00  0.00    +0.155 HD
ATOM     14  H   UNL     1      -1.042  -3.486   3.264  0.00  0.00    +0.155 HD
ATOM     15  H   UNL     1       3.414  -4.257   6.588  0.00  0.00    +0.171 HD
ENDROOT
BRANCH   1  19
ATOM     16  C   UNL     1      -2.722   0.020   5.476  0.00  0.00    +0.008 A 
ATOM     17  C   UNL     1      -2.465  -0.075   4.114  0.00  0.00    +0.015 A 
ATOM     18  C   UNL     1      -1.287  -0.646   3.673  0.00  0.00    +0.008 A 
ATOM     19  C   UNL     1      -0.364  -1.123   4.585  0.00  0.00    -0.008 A 
ATOM     20  C   UNL     1      -0.617  -1.031   5.942  0.00  0.00    +0.008 A 
ATOM     21  C   UNL     1      -1.789  -0.456   6.390  0.00  0.00    +0.015 A 
BRANCH  16  23
ATOM     22  C   UNL     1      -5.093   1.204   4.519  0.00  0.00    +0.090 C 
ATOM     23  S   UNL     1      -4.223   0.748   6.043  0.00  0.00    -0.129 S 
ENDBRANCH  16  23
ENDBRANCH   1  19
BRANCH  10  24
ATOM     24  C   UNL     1       2.282  -6.532   7.952  0.00  0.00    +0.034 A 
ATOM     25  C   UNL     1       2.637  -5.404   8.682  0.00  0.00    +0.023 A 
ATOM     26  C   UNL     1       2.664  -5.456  10.062  0.00  0.00    +0.002 A 
ATOM     27  C   UNL     1       2.340  -6.630  10.717  0.00  0.00    +0.000 A 
ATOM     28  C   UNL     1       1.987  -7.755   9.994  0.00  0.00    +0.002 A 
ATOM     29  C   UNL     1       1.951  -7.707   8.614  0.00  0.00    +0.023 A 
ENDBRANCH  10  24
BRANCH  11  30
ATOM     30  C   UNL     1      -1.620  -5.391   3.803  0.00  0.00    +0.033 A 
ATOM     31  C   UNL     1      -1.752  -6.150   4.958  0.00  0.00    +0.023 A 
ATOM     32  C   UNL     1      -2.564  -7.268   4.960  0.00  0.00    +0.002 A 
ATOM     33  C   UNL     1      -3.244  -7.631   3.812  0.00  0.00    +0.000 A 
ATOM     34  C   UNL     1      -3.115  -6.877   2.660  0.00  0.00    +0.002 A 
ATOM     35  C   UNL     1      -2.309  -5.755   2.654  0.00  0.00    +0.023 A 
ENDBRANCH  11  30
TORSDOF 4
