REMARK  Name = ZINC39563935
REMARK  10 active torsions:
REMARK  status: ('A' for Active; 'I' for Inactive)
REMARK    1  A    between atoms: C_1  and  C_2
REMARK    2  A    between atoms: C_2  and  C_3
REMARK    3  A    between atoms: C_2  and  N_4
REMARK    4  A    between atoms: N_4  and  C_5
REMARK    5  A    between atoms: N_4  and  C_6
REMARK    6  A    between atoms: C_6  and  C_7
REMARK    7  A    between atoms: C_13  and  C_15
REMARK    8  A    between atoms: C_19  and  N_21
REMARK    9  A    between atoms: N_21  and  S_22
REMARK   10  A    between atoms: S_22  and  C_25
REMARK                            x       y       z     vdW  Elec       q    Type
REMARK                         _______ _______ _______ _____ _____    ______ ____
ROOT
ATOM      1  C   UNL     1       1.840   1.157   8.240  0.00  0.00    +0.039 A 
ATOM      2  C   UNL     1       1.969   2.386   8.890  0.00  0.00    +0.013 A 
ATOM      3  C   UNL     1       1.171   2.680   9.977  0.00  0.00    +0.003 A 
ATOM      4  C   UNL     1       0.241   1.760  10.426  0.00  0.00    +0.024 A 
ATOM      5  C   UNL     1       0.104   0.534   9.786  0.00  0.00    +0.049 A 
ATOM      6  C   UNL     1       0.898   0.232   8.690  0.00  0.00    +0.037 A 
ENDROOT
BRANCH   1  13
ATOM      7  C   UNL     1       0.896   0.554   3.394  0.00  0.00    -0.025 C 
ATOM      8  C   UNL     1       2.368   0.937   3.562  0.00  0.00    +0.021 C 
ATOM      9  C   UNL     1       2.962   0.159   4.740  0.00  0.00    +0.108 C 
ATOM     10  N   UNL     1       2.136   0.399   5.931  0.00  0.00    -0.298 N 
ATOM     11  C   UNL     1       0.691   0.149   5.850  0.00  0.00    +0.108 C 
ATOM     12  C   UNL     1       0.121   0.928   4.660  0.00  0.00    +0.021 C 
ATOM     13  C   UNL     1       2.694   0.840   7.076  0.00  0.00    +0.247 C 
ATOM     14  O   UNL     1       3.900   0.977   7.152  0.00  0.00    -0.270 OA
BRANCH   7  15
ATOM     15  C   UNL     1       0.307   1.304   2.197  0.00  0.00    -0.075 C 
BRANCH  15  16
ATOM     16  N   UNL     1       0.970   0.856   0.965  0.00  0.00    +0.380 N 
ATOM     17  C   UNL     1       0.659  -0.560   0.728  0.00  0.00    -0.096 C 
ATOM     18  H   UNL     1       1.968   0.970   1.060  0.00  0.00    -0.082 HD
BRANCH  16  20
ATOM     19  C   UNL     1       0.816   3.134   0.079  0.00  0.00    -0.014 C 
ATOM     20  C   UNL     1       0.492   1.659  -0.168  0.00  0.00    -0.075 C 
ATOM     21  C   UNL     1       1.182   1.193  -1.452  0.00  0.00    -0.014 C 
ENDBRANCH  16  20
ENDBRANCH  15  16
ENDBRANCH   7  15
ENDBRANCH   1  13
BRANCH   5  22
ATOM     22  N   UNL     1      -0.836  -0.392  10.244  0.00  0.00    -0.216 N 
ATOM     23  H   UNL     1      -0.592  -1.326  10.338  0.00  0.00    +0.174 HD
BRANCH  22  24
ATOM     24  S   UNL     1      -2.369   0.105  10.628  0.00  0.00    +0.072 S 
ATOM     25  O   UNL     1      -3.083  -1.055  11.030  0.00  0.00    -0.150 OA
ATOM     26  O   UNL     1      -2.228   1.243  11.468  0.00  0.00    -0.150 OA
BRANCH  24  27
ATOM     27  C   UNL     1      -3.122   0.669   9.138  0.00  0.00    +0.112 A 
ATOM     28  C   UNL     1      -3.000   1.994   8.762  0.00  0.00    +0.032 A 
ATOM     29  C   UNL     1      -3.591   2.441   7.595  0.00  0.00    +0.051 A 
ATOM     30  C   UNL     1      -4.305   1.560   6.797  0.00  0.00    +0.162 A 
ATOM     31  C   UNL     1      -4.425   0.228   7.173  0.00  0.00    +0.164 A 
ATOM     32  C   UNL     1      -3.827  -0.214   8.344  0.00  0.00    +0.078 A 
ATOM     33  O   UNL     1      -5.115  -0.655   6.401  0.00  0.00    -0.485 OA
ATOM     34  C   UNL     1      -6.006  -0.099   5.428  0.00  0.00    +0.270 C 
ATOM     35  C   UNL     1      -5.271   1.028   4.690  0.00  0.00    +0.270 C 
ATOM     36  O   UNL     1      -4.884   2.015   5.652  0.00  0.00    -0.485 OA
ENDBRANCH  24  27
ENDBRANCH  22  24
ENDBRANCH   5  22
TORSDOF 7
