REMARK  Name = ZINC63374669
REMARK  2 active torsions:
REMARK  status: ('A' for Active; 'I' for Inactive)
REMARK    1  A    between atoms: C_10  and  N_11
REMARK    2  A    between atoms: C_14  and  C_21
REMARK                            x       y       z     vdW  Elec       q    Type
REMARK                         _______ _______ _______ _____ _____    ______ ____
ROOT
ATOM      1  N   UNL     1       4.807   0.224  -0.046  0.00  0.00    -0.228 N 
ATOM      2  C   UNL     1       5.394   0.559   1.120  0.00  0.00    +0.270 A 
ATOM      3  O   UNL     1       4.824   0.348   2.176  0.00  0.00    -0.267 OA
ATOM      4  C   UNL     1       6.668   1.152   1.109  0.00  0.00    +0.101 A 
ATOM      5  C   UNL     1       7.285   1.377  -0.086  0.00  0.00    +0.263 A 
ATOM      6  N   UNL     1       6.652   1.020  -1.250  0.00  0.00    -0.274 N 
ATOM      7  H   UNL     1       7.086   1.178  -2.103  0.00  0.00    +0.173 HD
ATOM      8  C   UNL     1       5.434   0.449  -1.216  0.00  0.00    +0.337 A 
ATOM      9  O   UNL     1       4.890   0.136  -2.257  0.00  0.00    -0.246 OA
ATOM     10  O   UNL     1       8.509   1.945  -0.124  0.00  0.00    -0.267 OA
ENDROOT
BRANCH   4  11
ATOM     11  C   UNL     1       7.344   1.535   2.401  0.00  0.00    +0.121 C 
ATOM     12  C   UNL     1       7.712   3.020   2.370  0.00  0.00    +0.128 C 
ATOM     13  C   UNL     1       8.774   3.173   1.287  0.00  0.00    -0.035 C 
ATOM     14  C   UNL     1       8.335   4.112   0.461  0.00  0.00    -0.001 A 
ATOM     15  C   UNL     1       8.950   4.752  -0.714  0.00  0.00    +0.010 A 
ATOM     16  C   UNL     1       8.197   5.687  -1.351  0.00  0.00    +0.001 A 
ATOM     17  C   UNL     1       6.908   6.045  -0.942  0.00  0.00    +0.002 A 
ATOM     18  C   UNL     1       6.268   5.513   0.129  0.00  0.00    +0.026 A 
ATOM     19  C   UNL     1       6.961   4.522   0.883  0.00  0.00    +0.043 A 
ATOM     20  N   UNL     1       6.591   3.870   1.968  0.00  0.00    -0.376 N 
ATOM     21  C   UNL     1       9.992   2.282   1.242  0.00  0.00    +0.048 C 
ATOM     22  C   UNL     1       9.476   0.841   1.407  0.00  0.00    +0.086 C 
ATOM     23  N   UNL     1       8.580   0.754   2.564  0.00  0.00    -0.307 NA
ATOM     24  H   UNL     1       9.061   1.012   3.413  0.00  0.00    +0.123 HD
ATOM     25  H   UNL     1       5.736   3.932   2.421  0.00  0.00    +0.160 HD
ENDBRANCH   4  11
BRANCH   1  35
ATOM     26  C   UNL     1       0.072   1.969  -0.218  0.00  0.00    +0.001 A 
ATOM     27  C   UNL     1       1.326   2.578  -0.225  0.00  0.00    +0.001 A 
ATOM     28  C   UNL     1       2.465   1.835  -0.168  0.00  0.00    +0.010 A 
ATOM     29  C   UNL     1       2.380   0.435  -0.102  0.00  0.00    +0.006 A 
ATOM     30  C   UNL     1       1.107  -0.185  -0.095  0.00  0.00    -0.016 A 
ATOM     31  C   UNL     1      -0.048   0.615  -0.155  0.00  0.00    +0.008 A 
ATOM     32  C   UNL     1       1.020  -1.586  -0.028  0.00  0.00    +0.008 A 
ATOM     33  C   UNL     1       2.155  -2.335   0.029  0.00  0.00    +0.003 A 
ATOM     34  C   UNL     1       3.412  -1.737   0.024  0.00  0.00    +0.027 A 
ATOM     35  C   UNL     1       3.539  -0.366  -0.041  0.00  0.00    +0.062 A 
ENDBRANCH   1  35
TORSDOF 2
