REMARK  Name = ZINC38577221
REMARK  8 active torsions:
REMARK  status: ('A' for Active; 'I' for Inactive)
REMARK    1  A    between atoms: C_1  and  C_2
REMARK    2  A    between atoms: C_5  and  C_9
REMARK    3  A    between atoms: C_6  and  O_8
REMARK    4  A    between atoms: C_11  and  C_15
REMARK    5  A    between atoms: N_17  and  C_18
REMARK    6  A    between atoms: C_20  and  C_28
REMARK    7  A    between atoms: N_30  and  C_31
REMARK    8  A    between atoms: C_31  and  C_32
REMARK                            x       y       z     vdW  Elec       q    Type
REMARK                         _______ _______ _______ _____ _____    ______ ____
ROOT
ATOM      1  C   UNL     1       1.078  -7.607   0.874  0.00  0.00    +0.244 C 
ATOM      2  O   UNL     1       1.776  -8.150   0.043  0.00  0.00    -0.273 OA
ATOM      3  N   UNL     1       1.411  -7.670   2.178  0.00  0.00    -0.297 N 
ATOM      4  H   UNL     1       0.853  -7.236   2.843  0.00  0.00    +0.150 HD
ENDROOT
BRANCH   3   5
ATOM      5  C   UNL     1       2.615  -8.394   2.593  0.00  0.00    +0.167 C 
ATOM      6  C   UNL     1       3.154  -7.854   3.905  0.00  0.00    +0.045 C 
ATOM      7  C   UNL     1       4.441  -7.581   3.999  0.00  0.00    -0.046 C 
ATOM      8  C   UNL     1       5.406  -6.855   4.935  0.00  0.00    +0.032 C 
ATOM      9  C   UNL     1       6.649  -6.485   4.096  0.00  0.00    +0.006 C 
ATOM     10  C   UNL     1       6.184  -6.677   2.623  0.00  0.00    +0.019 C 
ATOM     11  C   UNL     1       5.301  -7.928   2.780  0.00  0.00    +0.075 C 
ATOM     12  S   UNL     1       4.031  -8.036   1.462  0.00  0.00    -0.126 S 
BRANCH   6  13
ATOM     13  C   UNL     1       2.257  -7.639   5.050  0.00  0.00    +0.243 C 
ATOM     14  O   UNL     1       2.677  -7.107   6.060  0.00  0.00    -0.270 OA
ATOM     15  N   UNL     1       0.969  -8.031   4.981  0.00  0.00    -0.304 N 
ATOM     16  H   UNL     1       0.653  -8.521   4.206  0.00  0.00    +0.149 HD
BRANCH  15  17
ATOM     17  C   UNL     1       0.048  -7.716   6.076  0.00  0.00    +0.179 C 
BRANCH  17  18
ATOM     18  C   UNL     1      -1.319  -8.262   5.754  0.00  0.00    +0.122 A 
ATOM     19  C   UNL     1      -1.775  -9.485   6.079  0.00  0.00    +0.046 A 
ATOM     20  C   UNL     1      -3.097  -9.575   5.586  0.00  0.00    +0.041 A 
ATOM     21  C   UNL     1      -3.370  -8.401   4.989  0.00  0.00    +0.195 A 
ATOM     22  O   UNL     1      -2.292  -7.608   5.098  0.00  0.00    -0.466 OA
ENDBRANCH  17  18
ENDBRANCH  15  17
ENDBRANCH   6  13
ENDBRANCH   3   5
BRANCH   1  25
ATOM     23  C   UNL     1      -0.109  -5.046  -0.895  0.00  0.00    +0.095 C 
ATOM     24  C   UNL     1       0.104  -5.367   0.396  0.00  0.00    +0.041 C 
ATOM     25  C   UNL     1      -0.160  -6.862   0.447  0.00  0.00    +0.238 C 
ATOM     26  N   UNL     1      -0.514  -7.188  -0.944  0.00  0.00    -0.170 NA
ATOM     27  N   UNL     1      -0.468  -6.148  -1.605  0.00  0.00    -0.153 NA
BRANCH  23  32
ATOM     28  C   UNL     1       0.398   0.255  -3.096  0.00  0.00    +0.044 C 
ATOM     29  C   UNL     1       0.267  -1.131  -2.518  0.00  0.00    -0.047 A 
ATOM     30  C   UNL     1      -0.104  -2.185  -3.334  0.00  0.00    +0.004 A 
ATOM     31  C   UNL     1      -0.228  -3.457  -2.813  0.00  0.00    +0.014 A 
ATOM     32  C   UNL     1       0.022  -3.681  -1.461  0.00  0.00    +0.043 A 
ATOM     33  C   UNL     1       0.397  -2.614  -0.639  0.00  0.00    +0.126 A 
ATOM     34  C   UNL     1       0.522  -1.343  -1.177  0.00  0.00    +0.049 A 
BRANCH  33  35
ATOM     35  O   UNL     1       0.643  -2.823   0.681  0.00  0.00    -0.506 OA
ATOM     36  H   UNL     1       1.564  -3.041   0.879  0.00  0.00    +0.292 HD
ENDBRANCH  33  35
ENDBRANCH  23  32
ENDBRANCH   1  25
TORSDOF 7
