REMARK  Name = ZINC40399635
REMARK  5 active torsions:
REMARK  status: ('A' for Active; 'I' for Inactive)
REMARK    1  A    between atoms: C_1  and  C_2
REMARK    2  A    between atoms: C_2  and  C_3
REMARK    3  A    between atoms: C_8  and  N_9
REMARK    4  A    between atoms: C_10  and  C_12
REMARK    5  A    between atoms: N_26  and  C_27
REMARK                            x       y       z     vdW  Elec       q    Type
REMARK                         _______ _______ _______ _____ _____    ______ ____
ROOT
ATOM      1  C   UNL     1       4.828  -0.421   0.488  0.00  0.00    +0.122 C 
ATOM      2  C   UNL     1       4.566   1.066   0.732  0.00  0.00    +0.114 C 
ATOM      3  C   UNL     1       5.411   1.889  -0.205  0.00  0.00    +0.219 C 
ATOM      4  O   UNL     1       4.960   2.909  -0.681  0.00  0.00    -0.275 OA
ATOM      5  N   UNL     1       6.661   1.505  -0.518  0.00  0.00    -0.270 N 
ATOM      6  C   UNL     1       7.165   0.294  -0.074  0.00  0.00    +0.138 A 
ATOM      7  C   UNL     1       6.311  -0.669   0.433  0.00  0.00    +0.069 A 
ATOM      8  C   UNL     1       6.845  -1.876   0.894  0.00  0.00    +0.258 A 
ATOM      9  O   UNL     1       6.120  -2.741   1.359  0.00  0.00    -0.267 OA
ATOM     10  N   UNL     1       8.180  -2.066   0.816  0.00  0.00    -0.295 N 
ATOM     11  H   UNL     1       8.573  -2.889   1.144  0.00  0.00    +0.172 HD
ATOM     12  C   UNL     1       8.974  -1.101   0.276  0.00  0.00    +0.202 A 
ATOM     13  N   UNL     1       8.475   0.037  -0.157  0.00  0.00    -0.200 NA
ATOM     14  N   UNL     1      10.324  -1.319   0.180  0.00  0.00    -0.285 N 
ATOM     15  H   UNL     1       7.217   2.084  -1.062  0.00  0.00    +0.156 HD
ATOM     16  H   UNL     1      10.694  -2.183   0.424  0.00  0.00    +0.155 HD
ENDROOT
BRANCH  14  17
ATOM     17  C   UNL     1      11.169  -0.298  -0.269  0.00  0.00    +0.034 A 
ATOM     18  C   UNL     1      10.880   1.026   0.033  0.00  0.00    +0.026 A 
ATOM     19  C   UNL     1      11.715   2.033  -0.411  0.00  0.00    +0.040 A 
ATOM     20  C   UNL     1      12.839   1.722  -1.157  0.00  0.00    +0.124 A 
ATOM     21  C   UNL     1      13.129   0.402  -1.459  0.00  0.00    +0.040 A 
ATOM     22  C   UNL     1      12.300  -0.608  -1.012  0.00  0.00    +0.026 A 
ATOM     23  F   UNL     1      13.655   2.708  -1.591  0.00  0.00    -0.205 F 
ENDBRANCH  14  17
BRANCH   1  25
ATOM     24  N   UNL     1       2.872  -0.702  -1.001  0.00  0.00    -0.285 N 
ATOM     25  C   UNL     1       4.201  -0.833  -0.820  0.00  0.00    +0.225 C 
ATOM     26  O   UNL     1       4.893  -1.283  -1.708  0.00  0.00    -0.275 OA
ATOM     27  H   UNL     1       2.329  -0.279  -0.318  0.00  0.00    +0.155 HD
BRANCH  24  33
ATOM     28  C   UNL     1       0.985  -1.685  -2.144  0.00  0.00    -0.026 A 
ATOM     29  C   UNL     1       0.398  -2.146  -3.306  0.00  0.00    +0.005 A 
ATOM     30  C   UNL     1       1.096  -2.104  -4.499  0.00  0.00    +0.000 A 
ATOM     31  C   UNL     1       2.383  -1.601  -4.533  0.00  0.00    +0.002 A 
ATOM     32  C   UNL     1       2.976  -1.139  -3.374  0.00  0.00    +0.023 A 
ATOM     33  C   UNL     1       2.276  -1.175  -2.175  0.00  0.00    +0.037 A 
BRANCH  28  35
ATOM     34  C   UNL     1      -0.461  -0.384  -0.606  0.00  0.00    +0.009 C 
ATOM     35  C   UNL     1       0.224  -1.731  -0.844  0.00  0.00    +0.033 C 
ENDBRANCH  28  35
ENDBRANCH  24  33
ENDBRANCH   1  25
TORSDOF 4
