REMARK  Name = ZINC34757786
REMARK  11 active torsions:
REMARK  status: ('A' for Active; 'I' for Inactive)
REMARK    1  A    between atoms: C_1  and  C_2
REMARK    2  A    between atoms: C_2  and  N_3
REMARK    3  A    between atoms: N_3  and  C_4
REMARK    4  A    between atoms: C_4  and  C_5
REMARK    5  A    between atoms: C_6  and  C_8
REMARK    6  A    between atoms: C_8  and  S_9
REMARK    7  A    between atoms: S_9  and  C_10
REMARK    8  A    between atoms: N_25  and  C_28
REMARK    9  A    between atoms: C_28  and  C_29
REMARK   10  A    between atoms: N_31  and  C_32
REMARK   11  A    between atoms: N_31  and  C_33
REMARK                            x       y       z     vdW  Elec       q    Type
REMARK                         _______ _______ _______ _____ _____    ______ ____
ROOT
ATOM      1  C   UNL     1      -3.863  -0.377  -3.910  0.00  0.00    +0.191 A 
ATOM      2  N   UNL     1      -4.646  -0.581  -4.963  0.00  0.00    -0.206 NA
ATOM      3  C   UNL     1      -5.965  -0.528  -4.879  0.00  0.00    +0.134 A 
ATOM      4  C   UNL     1      -6.567  -0.243  -3.622  0.00  0.00    +0.051 A 
ATOM      5  C   UNL     1      -8.001  -0.136  -3.299  0.00  0.00    -0.025 A 
ATOM      6  C   UNL     1      -8.316   0.145  -2.025  0.00  0.00    -0.004 A 
ATOM      7  S   UNL     1      -6.756   0.281  -1.181  0.00  0.00    -0.073 S 
ATOM      8  C   UNL     1      -5.679  -0.039  -2.551  0.00  0.00    +0.115 A 
ATOM      9  N   UNL     1      -4.372  -0.113  -2.714  0.00  0.00    -0.214 NA
ATOM     10  C   UNL     1      -9.804   0.235  -1.814  0.00  0.00    +0.043 C 
ATOM     11  C   UNL     1     -10.388   0.394  -3.235  0.00  0.00    +0.010 C 
ATOM     12  C   UNL     1      -9.300  -0.276  -4.096  0.00  0.00    +0.037 C 
ATOM     13  N   UNL     1      -6.748  -0.745  -5.998  0.00  0.00    -0.318 N 
ATOM     14  C   UNL     1      -7.071   0.354  -6.920  0.00  0.00    +0.088 C 
ATOM     15  C   UNL     1      -6.749  -0.099  -8.348  0.00  0.00    -0.059 C 
ATOM     16  N   UNL     1      -7.453  -1.356  -8.632  0.00  0.00    +0.387 N 
ATOM     17  C   UNL     1      -6.949  -2.421  -7.756  0.00  0.00    -0.059 C 
ATOM     18  C   UNL     1      -7.277  -2.084  -6.302  0.00  0.00    +0.088 C 
ATOM     19  H   UNL     1      -8.441  -1.229  -8.472  0.00  0.00    -0.081 HD
ENDROOT
BRANCH   1  20
ATOM     20  S   UNL     1      -2.114  -0.465  -4.105  0.00  0.00    -0.077 S 
BRANCH  20  21
ATOM     21  C   UNL     1      -1.470  -0.136  -2.442  0.00  0.00    +0.173 C 
BRANCH  21  23
ATOM     22  N   UNL     1       0.736   0.035  -1.337  0.00  0.00    -0.301 N 
ATOM     23  C   UNL     1       0.036  -0.182  -2.467  0.00  0.00    +0.226 C 
ATOM     24  O   UNL     1       0.618  -0.415  -3.506  0.00  0.00    -0.275 OA
BRANCH  22  26
ATOM     25  C   UNL     1      -0.172   1.825   0.060  0.00  0.00    +0.024 C 
ATOM     26  C   UNL     1       0.034   0.316  -0.082  0.00  0.00    +0.104 C 
ENDBRANCH  22  26
BRANCH  22  27
ATOM     27  C   UNL     1       2.200  -0.011  -1.362  0.00  0.00    +0.104 C 
ATOM     28  C   UNL     1       2.672  -1.438  -1.076  0.00  0.00    +0.024 C 
ENDBRANCH  22  27
ENDBRANCH  21  23
ENDBRANCH  20  21
ENDBRANCH   1  20
BRANCH  16  29
ATOM     29  C   UNL     1      -7.232  -1.732 -10.035  0.00  0.00    +0.019 C 
BRANCH  29  30
ATOM     30  C   UNL     1      -8.052  -2.953 -10.363  0.00  0.00    +0.199 C 
ATOM     31  O   UNL     1      -8.752  -3.460  -9.511  0.00  0.00    -0.278 OA
ATOM     32  N   UNL     1      -8.008  -3.482 -11.601  0.00  0.00    -0.309 N 
ATOM     33  C   UNL     1      -8.805  -4.669 -11.920  0.00  0.00    +0.131 C 
ATOM     34  C   UNL     1      -7.163  -2.870 -12.630  0.00  0.00    +0.131 C 
ENDBRANCH  29  30
ENDBRANCH  16  29
TORSDOF 7
