REMARK  Name = ZINC08341596
REMARK  5 active torsions:
REMARK  status: ('A' for Active; 'I' for Inactive)
REMARK    1  A    between atoms: C_1  and  N_2
REMARK    2  A    between atoms: C_11  and  C_13
REMARK    3  A    between atoms: N_15  and  N_16
REMARK    4  A    between atoms: C_17  and  C_18
REMARK    5  A    between atoms: C_23  and  O_24
REMARK                            x       y       z     vdW  Elec       q    Type
REMARK                         _______ _______ _______ _____ _____    ______ ____
ROOT
ATOM      1  C   UNL     1       2.644  -2.487  -0.025  0.00  0.00    +0.284 C 
ATOM      2  O   UNL     1       2.780  -3.696  -0.032  0.00  0.00    -0.267 OA
ATOM      3  N   UNL     1       3.729  -1.687  -0.025  0.00  0.00    -0.202 N 
ATOM      4  H   UNL     1       3.621  -0.723  -0.020  0.00  0.00    +0.178 HD
ENDROOT
BRANCH   1  15
ATOM      5  C   UNL     1      -0.018   1.461   0.010  0.00  0.00    +0.176 C 
ATOM      6  N   UNL     1       0.002  -0.004   0.002  0.00  0.00    -0.231 N 
ATOM      7  C   UNL     1      -1.177  -0.658   0.004  0.00  0.00    +0.275 A 
ATOM      8  O   UNL     1      -2.229  -0.046   0.012  0.00  0.00    -0.266 OA
ATOM      9  C   UNL     1      -1.163  -2.128  -0.004  0.00  0.00    +0.050 A 
ATOM     10  C   UNL     1      -2.324  -2.895  -0.002  0.00  0.00    +0.014 A 
ATOM     11  C   UNL     1      -2.225  -4.270  -0.009  0.00  0.00    +0.001 A 
ATOM     12  C   UNL     1      -0.983  -4.892  -0.018  0.00  0.00    +0.001 A 
ATOM     13  C   UNL     1       0.179  -4.149  -0.020  0.00  0.00    +0.011 A 
ATOM     14  C   UNL     1       0.101  -2.761  -0.013  0.00  0.00    +0.020 A 
ATOM     15  C   UNL     1       1.292  -1.896  -0.015  0.00  0.00    +0.155 A 
ATOM     16  N   UNL     1       1.137  -0.594  -0.012  0.00  0.00    -0.163 NA
ENDBRANCH   1  15
BRANCH   3  17
ATOM     17  N   UNL     1       5.013  -2.248  -0.035  0.00  0.00    -0.187 NA
ATOM     18  C   UNL     1       6.058  -1.478  -0.036  0.00  0.00    +0.142 C 
BRANCH  18  19
ATOM     19  C   UNL     1       7.408  -2.068  -0.046  0.00  0.00    +0.039 A 
ATOM     20  C   UNL     1       8.536  -1.243  -0.041  0.00  0.00    +0.033 A 
ATOM     21  C   UNL     1       9.797  -1.801  -0.050  0.00  0.00    +0.043 A 
ATOM     22  C   UNL     1       9.951  -3.178  -0.065  0.00  0.00    +0.043 A 
ATOM     23  C   UNL     1       8.843  -4.005  -0.070  0.00  0.00    +0.084 A 
ATOM     24  C   UNL     1       7.569  -3.460  -0.054  0.00  0.00    +0.144 A 
ATOM     25 CL   UNL     1       9.048  -5.729  -0.088  0.00  0.00    -0.080 Cl
ATOM     26 CL   UNL     1      11.197  -0.775  -0.044  0.00  0.00    -0.083 Cl
BRANCH  24  27
ATOM     27  O   UNL     1       6.479  -4.272  -0.053  0.00  0.00    -0.505 OA
ATOM     28  H   UNL     1       6.160  -4.502  -0.936  0.00  0.00    +0.292 HD
ENDBRANCH  24  27
ENDBRANCH  18  19
ENDBRANCH   3  17
TORSDOF 4
