REMARK  Name = ZINC12480208
REMARK  11 active torsions:
REMARK  status: ('A' for Active; 'I' for Inactive)
REMARK    1  A    between atoms: C_1  and  C_2
REMARK    2  A    between atoms: C_2  and  O_3
REMARK    3  A    between atoms: O_3  and  C_4
REMARK    4  A    between atoms: C_7  and  C_10
REMARK    5  A    between atoms: C_10  and  C_12
REMARK    6  A    between atoms: C_10  and  N_22
REMARK    7  A    between atoms: N_14  and  C_15
REMARK    8  A    between atoms: C_15  and  C_16
REMARK    9  A    between atoms: N_22  and  C_23
REMARK   10  A    between atoms: C_29  and  C_31
REMARK   11  A    between atoms: C_31  and  N_32
REMARK                            x       y       z     vdW  Elec       q    Type
REMARK                         _______ _______ _______ _____ _____    ______ ____
ROOT
ATOM      1  C   UNL     1       5.087  -3.198   1.606  0.00  0.00    +0.192 C 
ENDROOT
BRANCH   1   5
ATOM      2  C   UNL     1       5.824  -3.315  -2.602  0.00  0.00    +0.121 A 
ATOM      3  C   UNL     1       6.844  -3.611  -1.709  0.00  0.00    +0.046 A 
ATOM      4  C   UNL     1       6.603  -3.573  -0.349  0.00  0.00    +0.009 A 
ATOM      5  C   UNL     1       5.347  -3.239   0.122  0.00  0.00    -0.018 A 
ATOM      6  C   UNL     1       4.327  -2.949  -0.765  0.00  0.00    +0.009 A 
ATOM      7  C   UNL     1       4.564  -2.980  -2.126  0.00  0.00    +0.046 A 
BRANCH   2   8
ATOM      8  O   UNL     1       6.058  -3.353  -3.940  0.00  0.00    -0.492 OA
BRANCH   8  10
ATOM      9  C   UNL     1       5.414  -3.130  -6.258  0.00  0.00    +0.048 C 
ATOM     10  C   UNL     1       4.962  -3.036  -4.800  0.00  0.00    +0.225 C 
ENDBRANCH   8  10
ENDBRANCH   2   8
ENDBRANCH   1   5
BRANCH   1  11
ATOM     11  C   UNL     1       3.616  -2.977   1.853  0.00  0.00    +0.238 C 
ATOM     12  O   UNL     1       2.954  -3.842   2.387  0.00  0.00    -0.273 OA
ATOM     13  N   UNL     1       3.037  -1.819   1.479  0.00  0.00    -0.311 N 
ATOM     14  H   UNL     1       3.567  -1.128   1.051  0.00  0.00    +0.149 HD
BRANCH  13  15
ATOM     15  C   UNL     1       1.608  -1.605   1.718  0.00  0.00    +0.135 C 
BRANCH  15  16
ATOM     16  C   UNL     1       1.207  -0.221   1.204  0.00  0.00    +0.135 C 
ATOM     17  C   UNL     1      -0.298   0.028   1.446  0.00  0.00    +0.035 C 
ATOM     18  C   UNL     1      -0.377   1.526   1.815  0.00  0.00    +0.031 C 
ATOM     19  C   UNL     1       1.090   2.006   1.752  0.00  0.00    +0.160 C 
ATOM     20  O   UNL     1       1.878   0.812   1.958  0.00  0.00    -0.375 OA
ENDBRANCH  15  16
ENDBRANCH  13  15
ENDBRANCH   1  11
BRANCH   1  21
ATOM     21  N   UNL     1       5.497  -4.469   2.209  0.00  0.00    -0.281 N 
ATOM     22  C   UNL     1       6.418  -4.481   3.193  0.00  0.00    +0.238 C 
ATOM     23  O   UNL     1       6.833  -3.437   3.648  0.00  0.00    -0.274 OA
BRANCH  21  24
ATOM     24  C   UNL     1       4.907  -5.726   1.742  0.00  0.00    +0.077 C 
ATOM     25  C   UNL     1       4.072  -5.462   0.488  0.00  0.00    +0.022 C 
ATOM     26  C   UNL     1       3.456  -6.775   0.000  0.00  0.00    +0.002 C 
ATOM     27  C   UNL     1       2.560  -7.356   1.096  0.00  0.00    +0.000 C 
ATOM     28  C   UNL     1       3.395  -7.619   2.351  0.00  0.00    +0.002 C 
ATOM     29  C   UNL     1       4.011  -6.306   2.838  0.00  0.00    +0.022 C 
ENDBRANCH  21  24
BRANCH  22  30
ATOM     30  C   UNL     1       6.932  -5.793   3.728  0.00  0.00    +0.241 C 
BRANCH  30  31
ATOM     31  N   UNL     1       7.870  -5.540   4.825  0.00  0.00    -0.235 N 
ATOM     32  C   UNL     1       7.563  -5.430   6.160  0.00  0.00    +0.090 A 
ATOM     33  C   UNL     1       6.382  -5.509   6.891  0.00  0.00    +0.029 A 
ATOM     34  C   UNL     1       6.411  -5.351   8.248  0.00  0.00    +0.002 A 
ATOM     35  C   UNL     1       7.611  -5.112   8.906  0.00  0.00    +0.002 A 
ATOM     36  C   UNL     1       8.783  -5.031   8.213  0.00  0.00    +0.032 A 
ATOM     37  C   UNL     1       8.781  -5.189   6.820  0.00  0.00    +0.113 A 
ATOM     38  N   UNL     1       9.754  -5.162   5.888  0.00  0.00    -0.129 NA
ATOM     39  N   UNL     1       9.258  -5.368   4.719  0.00  0.00    -0.064 NA
ENDBRANCH  30  31
ENDBRANCH  22  30
ENDBRANCH   1  21
TORSDOF 10
