REMARK  Name = ZINC39696203
REMARK  10 active torsions:
REMARK  status: ('A' for Active; 'I' for Inactive)
REMARK    1  A    between atoms: C_1  and  C_2
REMARK    2  A    between atoms: C_2  and  C_3
REMARK    3  A    between atoms: C_6  and  C_9
REMARK    4  A    between atoms: C_9  and  C_11
REMARK    5  A    between atoms: C_9  and  N_12
REMARK    6  A    between atoms: C_13  and  C_15
REMARK    7  A    between atoms: C_26  and  C_28
REMARK    8  A    between atoms: C_29  and  C_39
REMARK    9  A    between atoms: C_32  and  C_33
REMARK   10  A    between atoms: C_35  and  C_38
REMARK                            x       y       z     vdW  Elec       q    Type
REMARK                         _______ _______ _______ _____ _____    ______ ____
ROOT
ATOM      1  C   UNL     1      -8.330  -0.554  -1.977  0.00  0.00    +0.100 C 
ATOM      2  C   UNL     1      -8.015   0.958  -2.002  0.00  0.00    +0.121 C 
ATOM      3  N   UNL     1      -9.312   1.606  -2.306  0.00  0.00    -0.296 N 
ATOM      4  C   UNL     1     -10.306   0.822  -1.533  0.00  0.00    +0.115 C 
ATOM      5  C   UNL     1      -9.834  -0.640  -1.669  0.00  0.00    -0.004 C 
ATOM      6  C   UNL     1     -10.570  -1.328  -2.814  0.00  0.00    -0.010 C 
ATOM      7  C   UNL     1     -12.055  -1.451  -2.459  0.00  0.00    -0.082 C 
ATOM      8  N   UNL     1     -12.201  -2.227  -1.221  0.00  0.00    +0.379 N 
ATOM      9  C   UNL     1     -11.569  -1.512  -0.105  0.00  0.00    -0.082 C 
ATOM     10  C   UNL     1     -10.064  -1.391  -0.361  0.00  0.00    -0.010 C 
ATOM     11  C   UNL     1      -9.539   2.668  -3.104  0.00  0.00    +0.252 C 
ATOM     12  O   UNL     1     -10.671   3.086  -3.253  0.00  0.00    -0.270 OA
ATOM     13  H   UNL     1     -13.181  -2.359  -1.023  0.00  0.00    -0.086 HD
ATOM     14  H   UNL     1     -11.759  -3.127  -1.336  0.00  0.00    -0.086 HD
ENDROOT
BRANCH  11  15
ATOM     15  C   UNL     1      -8.415   3.322  -3.796  0.00  0.00    +0.108 A 
ATOM     16  C   UNL     1      -7.918   2.999  -5.083  0.00  0.00    +0.093 A 
ATOM     17  N   UNL     1      -6.925   3.795  -5.345  0.00  0.00    -0.082 NA
ATOM     18  O   UNL     1      -6.732   4.664  -4.247  0.00  0.00    -0.352 OA
ATOM     19  C   UNL     1      -7.649   4.372  -3.310  0.00  0.00    +0.201 A 
ATOM     20  C   UNL     1      -8.451   1.921  -5.991  0.00  0.00    +0.070 C 
BRANCH  19  21
ATOM     21  C   UNL     1      -7.810   5.043  -2.002  0.00  0.00    +0.152 A 
ATOM     22  C   UNL     1      -7.029   6.119  -1.513  0.00  0.00    +0.079 A 
ATOM     23  C   UNL     1      -7.487   6.444  -0.292  0.00  0.00    +0.135 A 
ATOM     24  O   UNL     1      -8.511   5.629   0.005  0.00  0.00    -0.359 OA
ATOM     25  N   UNL     1      -8.707   4.752  -1.089  0.00  0.00    -0.075 NA
ATOM     26  C   UNL     1      -6.943   7.537   0.592  0.00  0.00    +0.089 C 
ENDBRANCH  19  21
ENDBRANCH  11  15
BRANCH   1  28
ATOM     27  N   UNL     1      -7.184  -2.533  -1.033  0.00  0.00    -0.308 N 
ATOM     28  C   UNL     1      -7.533  -1.239  -0.896  0.00  0.00    +0.219 C 
ATOM     29  O   UNL     1      -7.206  -0.624   0.097  0.00  0.00    -0.275 OA
ATOM     30  H   UNL     1      -7.446  -3.025  -1.828  0.00  0.00    +0.149 HD
BRANCH  27  31
ATOM     31  C   UNL     1      -6.409  -3.198   0.018  0.00  0.00    +0.100 C 
ATOM     32  C   UNL     1      -7.359  -3.721   1.098  0.00  0.00    +0.033 C 
BRANCH  31  36
ATOM     33  C   UNL     1      -4.236  -6.467  -1.667  0.00  0.00    -0.048 A 
ATOM     34  C   UNL     1      -3.644  -5.663  -0.711  0.00  0.00    +0.004 A 
ATOM     35  C   UNL     1      -4.347  -4.605  -0.166  0.00  0.00    +0.006 A 
ATOM     36  C   UNL     1      -5.642  -4.351  -0.577  0.00  0.00    -0.027 A 
ATOM     37  C   UNL     1      -6.234  -5.155  -1.534  0.00  0.00    +0.006 A 
ATOM     38  C   UNL     1      -5.529  -6.210  -2.082  0.00  0.00    +0.004 A 
BRANCH  33  40
ATOM     39  C   UNL     1      -2.704  -7.142  -3.497  0.00  0.00    +0.009 C 
ATOM     40  C   UNL     1      -3.469  -7.620  -2.261  0.00  0.00    +0.032 C 
ENDBRANCH  33  40
ENDBRANCH  31  36
ENDBRANCH  27  31
ENDBRANCH   1  28
TORSDOF 6
