REMARK  Name = ZINC09602513
REMARK  5 active torsions:
REMARK  status: ('A' for Active; 'I' for Inactive)
REMARK    1  A    between atoms: C_1  and  C_2
REMARK    2  A    between atoms: C_2  and  C_24
REMARK    3  A    between atoms: N_5  and  C_9
REMARK    4  A    between atoms: C_9  and  C_10
REMARK    5  A    between atoms: N_12  and  C_13
REMARK                            x       y       z     vdW  Elec       q    Type
REMARK                         _______ _______ _______ _____ _____    ______ ____
ROOT
ATOM      1  C   UNL     1       1.145   4.143  -1.418  0.00  0.00    +0.047 C 
ATOM      2  C   UNL     1       1.109   3.596   0.010  0.00  0.00    +0.135 C 
ATOM      3  C   UNL     1      -0.133   4.077   0.734  0.00  0.00    +0.251 C 
ATOM      4  O   UNL     1      -1.287   3.859   0.432  0.00  0.00    -0.272 OA
ATOM      5  N   UNL     1       0.312   4.798   1.782  0.00  0.00    -0.215 N 
ATOM      6  C   UNL     1       1.648   4.839   1.821  0.00  0.00    +0.310 C 
ATOM      7  O   UNL     1       2.282   5.428   2.675  0.00  0.00    -0.252 OA
ATOM      8  N   UNL     1       2.213   4.154   0.810  0.00  0.00    -0.281 N 
ATOM      9  H   UNL     1       3.163   4.049   0.641  0.00  0.00    +0.152 HD
ENDROOT
BRANCH   2  10
ATOM     10  C   UNL     1       1.169   2.091   0.002  0.00  0.00    -0.015 A 
ATOM     11  C   UNL     1      -0.016   1.357   0.009  0.00  0.00    +0.007 A 
ATOM     12  C   UNL     1       0.002  -0.004   0.002  0.00  0.00    +0.009 A 
ATOM     13  C   UNL     1       1.233  -0.683  -0.013  0.00  0.00    -0.018 A 
ATOM     14  C   UNL     1       1.292  -2.087  -0.022  0.00  0.00    +0.008 A 
ATOM     15  C   UNL     1       2.502  -2.710  -0.036  0.00  0.00    +0.001 A 
ATOM     16  C   UNL     1       3.687  -1.976  -0.044  0.00  0.00    +0.001 A 
ATOM     17  C   UNL     1       3.668  -0.615  -0.036  0.00  0.00    +0.008 A 
ATOM     18  C   UNL     1       2.438   0.064  -0.021  0.00  0.00    -0.018 A 
ATOM     19  C   UNL     1       2.378   1.468  -0.013  0.00  0.00    +0.014 A 
ENDBRANCH   2  10
BRANCH   5  20
ATOM     20  C   UNL     1      -0.561   5.455   2.759  0.00  0.00    +0.213 C 
BRANCH  20  21
ATOM     21  C   UNL     1      -0.846   4.506   3.895  0.00  0.00    +0.231 C 
ATOM     22  O   UNL     1      -0.368   3.392   3.889  0.00  0.00    -0.274 OA
ATOM     23  N   UNL     1      -1.633   4.897   4.917  0.00  0.00    -0.307 N 
ATOM     24  H   UNL     1      -2.015   5.788   4.922  0.00  0.00    +0.149 HD
BRANCH  23  25
ATOM     25  C   UNL     1      -1.911   3.975   6.021  0.00  0.00    +0.103 C 
ATOM     26  C   UNL     1      -2.227   4.779   7.281  0.00  0.00    +0.027 C 
ATOM     27  C   UNL     1      -2.725   3.811   8.360  0.00  0.00    +0.007 C 
ATOM     28  C   UNL     1      -4.105   3.301   7.950  0.00  0.00    +0.035 C 
ATOM     29  C   UNL     1      -4.078   2.778   6.537  0.00  0.00    -0.042 A 
ATOM     30  C   UNL     1      -3.073   3.092   5.650  0.00  0.00    -0.024 A 
ATOM     31  C   UNL     1      -3.112   2.583   4.359  0.00  0.00    +0.006 A 
ATOM     32  C   UNL     1      -4.148   1.764   3.959  0.00  0.00    +0.000 A 
ATOM     33  C   UNL     1      -5.155   1.446   4.851  0.00  0.00    +0.000 A 
ATOM     34  C   UNL     1      -5.119   1.952   6.134  0.00  0.00    +0.004 A 
ENDBRANCH  23  25
ENDBRANCH  20  21
ENDBRANCH   5  20
TORSDOF 4
