REMARK  Name = ZINC36531026
REMARK  16 active torsions:
REMARK  status: ('A' for Active; 'I' for Inactive)
REMARK    1  A    between atoms: C_1  and  C_2
REMARK    2  A    between atoms: C_2  and  C_3
REMARK    3  A    between atoms: C_2  and  C_4
REMARK    4  A    between atoms: C_2  and  C_5
REMARK    5  A    between atoms: C_5  and  C_6
REMARK    6  A    between atoms: C_6  and  C_7
REMARK    7  A    between atoms: C_6  and  C_8
REMARK    8  A    between atoms: C_6  and  N_9
REMARK    9  A    between atoms: C_10  and  C_12
REMARK   10  A    between atoms: C_12  and  C_14
REMARK   11  A    between atoms: C_12  and  N_21
REMARK   12  A    between atoms: C_19  and  O_20
REMARK   13  A    between atoms: N_21  and  C_22
REMARK   14  A    between atoms: C_23  and  C_25
REMARK   15  A    between atoms: C_26  and  O_32
REMARK   16  A    between atoms: C_30  and  O_31
REMARK                            x       y       z     vdW  Elec       q    Type
REMARK                         _______ _______ _______ _____ _____    ______ ____
ROOT
ATOM      1  C   UNL     1       5.385  -0.568  -4.304  0.00  0.00    +0.196 C 
ENDROOT
BRANCH   1   2
ATOM      2  C   UNL     1       4.885   0.350  -5.390  0.00  0.00    +0.023 A 
ATOM      3  C   UNL     1       4.190   1.497  -5.059  0.00  0.00    +0.009 A 
ATOM      4  C   UNL     1       3.731   2.340  -6.054  0.00  0.00    +0.001 A 
ATOM      5  C   UNL     1       3.967   2.037  -7.383  0.00  0.00    +0.004 A 
ATOM      6  C   UNL     1       4.662   0.892  -7.719  0.00  0.00    +0.046 A 
ATOM      7  C   UNL     1       5.128   0.047  -6.721  0.00  0.00    +0.122 A 
BRANCH   7   8
ATOM      8  O   UNL     1       5.817  -1.078  -7.049  0.00  0.00    -0.506 OA
ATOM      9  H   UNL     1       5.269  -1.872  -7.104  0.00  0.00    +0.292 HD
ENDBRANCH   7   8
ENDBRANCH   1   2
BRANCH   1  11
ATOM     10  N   UNL     1       3.275  -0.906  -3.057  0.00  0.00    -0.308 N 
ATOM     11  C   UNL     1       4.527  -0.407  -3.076  0.00  0.00    +0.239 C 
ATOM     12  O   UNL     1       4.963   0.173  -2.103  0.00  0.00    -0.273 OA
ATOM     13  H   UNL     1       2.944  -1.413  -3.815  0.00  0.00    +0.149 HD
BRANCH  10  14
ATOM     14  C   UNL     1       2.415  -0.683  -1.893  0.00  0.00    +0.030 C 
ATOM     15  C   UNL     1       2.355   0.814  -1.582  0.00  0.00    +0.031 C 
ATOM     16  C   UNL     1       2.985  -1.431  -0.686  0.00  0.00    +0.031 C 
BRANCH  14  17
ATOM     17  C   UNL     1       1.006  -1.198  -2.193  0.00  0.00    +0.031 C 
BRANCH  17  19
ATOM     18  C   UNL     1       1.222  -1.722  -4.627  0.00  0.00    +0.010 C 
ATOM     19  C   UNL     1       0.597  -0.771  -3.604  0.00  0.00    -0.036 C 
ATOM     20  C   UNL     1       1.087   0.655  -3.868  0.00  0.00    +0.010 C 
ATOM     21  C   UNL     1      -0.927  -0.817  -3.729  0.00  0.00    +0.010 C 
ENDBRANCH  17  19
ENDBRANCH  14  17
ENDBRANCH  10  14
ENDBRANCH   1  11
BRANCH   1  22
ATOM     22  N   UNL     1       6.772  -0.230  -3.979  0.00  0.00    -0.285 N 
ATOM     23  C   UNL     1       7.093   1.082  -3.410  0.00  0.00    +0.133 C 
ATOM     24  C   UNL     1       7.755  -1.126  -4.202  0.00  0.00    +0.254 C 
ATOM     25  O   UNL     1       7.488  -2.215  -4.674  0.00  0.00    -0.270 OA
BRANCH  24  26
ATOM     26  C   UNL     1       9.149  -0.786  -3.875  0.00  0.00    +0.119 A 
ATOM     27  C   UNL     1       9.667  -1.075  -2.604  0.00  0.00    +0.133 A 
ATOM     28  C   UNL     1      10.981  -0.751  -2.307  0.00  0.00    +0.046 A 
ATOM     29  C   UNL     1      11.781  -0.146  -3.259  0.00  0.00    +0.007 A 
ATOM     30  C   UNL     1      11.281   0.143  -4.515  0.00  0.00    +0.046 A 
ATOM     31  C   UNL     1       9.971  -0.177  -4.835  0.00  0.00    +0.133 A 
BRANCH  31  32
ATOM     32  O   UNL     1       9.485   0.102  -6.070  0.00  0.00    -0.506 OA
ATOM     33  H   UNL     1       9.083   0.979  -6.145  0.00  0.00    +0.292 HD
ENDBRANCH  31  32
BRANCH  27  34
ATOM     34  O   UNL     1       8.884  -1.668  -1.669  0.00  0.00    -0.506 OA
ATOM     35  H   UNL     1       8.917  -2.634  -1.684  0.00  0.00    +0.292 HD
ENDBRANCH  27  34
ENDBRANCH  24  26
ENDBRANCH   1  22
TORSDOF 10
