REMARK  Name = ZINC32109368
REMARK  7 active torsions:
REMARK  status: ('A' for Active; 'I' for Inactive)
REMARK    1  A    between atoms: C_1  and  C_2
REMARK    2  A    between atoms: C_4  and  C_18
REMARK    3  A    between atoms: C_5  and  C_17
REMARK    4  A    between atoms: N_6  and  C_7
REMARK    5  A    between atoms: C_28  and  C_30
REMARK    6  A    between atoms: C_30  and  O_31
REMARK    7  A    between atoms: O_31  and  C_32
REMARK                            x       y       z     vdW  Elec       q    Type
REMARK                         _______ _______ _______ _____ _____    ______ ____
ROOT
ATOM      1  C   UNL     1      -7.262  -0.203  -0.933  0.00  0.00    +0.026 C 
ATOM      2  C   UNL     1      -6.306  -0.735  -0.090  0.00  0.00    +0.081 C 
ATOM      3  C   UNL     1      -5.396   0.131   0.708  0.00  0.00    +0.153 C 
ATOM      4  N   UNL     1      -5.748   1.300   1.176  0.00  0.00    -0.283 NA
ATOM      5  N   UNL     1      -4.117  -0.429   0.910  0.00  0.00    -0.152 N 
ATOM      6  C   UNL     1      -3.990  -1.796   0.779  0.00  0.00    +0.181 C 
ATOM      7  N   UNL     1      -4.915  -2.653   0.428  0.00  0.00    -0.152 NA
ATOM      8  C   UNL     1      -6.132  -2.198   0.068  0.00  0.00    +0.273 C 
ATOM      9  O   UNL     1      -7.060  -2.967  -0.122  0.00  0.00    -0.268 OA
ATOM     10  S   UNL     1      -2.289  -2.054   1.210  0.00  0.00    -0.035 S 
ATOM     11  C   UNL     1      -1.854  -0.343   1.486  0.00  0.00    +0.137 C 
ATOM     12  N   UNL     1      -2.981   0.269   1.262  0.00  0.00    -0.166 NA
ATOM     13  H   UNL     1      -5.032   1.897   1.760  0.00  0.00    +0.188 HD
ENDROOT
BRANCH   1  17
ATOM     14  C   UNL     1      -5.837   4.623  -1.374  0.00  0.00    +0.064 C 
ATOM     15  C   UNL     1      -6.626   3.340  -1.396  0.00  0.00    +0.022 A 
ATOM     16  C   UNL     1      -6.168   2.138  -1.010  0.00  0.00    +0.031 A 
ATOM     17  C   UNL     1      -7.273   1.189  -1.204  0.00  0.00    -0.003 A 
ATOM     18  C   UNL     1      -8.326   1.931  -1.712  0.00  0.00    +0.028 A 
ATOM     19  N   UNL     1      -7.923   3.214  -1.814  0.00  0.00    -0.317 N 
ATOM     20  C   UNL     1      -9.687   1.400  -2.082  0.00  0.00    +0.064 C 
BRANCH  19  21
ATOM     21  C   UNL     1      -8.715   4.265  -2.286  0.00  0.00    +0.054 A 
ATOM     22  C   UNL     1      -8.731   4.575  -3.629  0.00  0.00    +0.027 A 
ATOM     23  C   UNL     1      -9.515   5.619  -4.109  0.00  0.00    +0.003 A 
ATOM     24  C   UNL     1     -10.287   6.362  -3.269  0.00  0.00    +0.008 A 
ATOM     25  C   UNL     1     -10.300   6.079  -1.893  0.00  0.00    -0.016 A 
ATOM     26  C   UNL     1      -9.510   5.014  -1.393  0.00  0.00    +0.006 A 
ATOM     27  C   UNL     1      -9.528   4.728  -0.019  0.00  0.00    +0.010 A 
ATOM     28  C   UNL     1     -10.307   5.472   0.814  0.00  0.00    +0.001 A 
ATOM     29  C   UNL     1     -11.089   6.515   0.323  0.00  0.00    +0.001 A 
ATOM     30  C   UNL     1     -11.087   6.829  -1.002  0.00  0.00    +0.008 A 
ENDBRANCH  19  21
ENDBRANCH   1  17
BRANCH  11  31
ATOM     31  C   UNL     1      -0.523   0.242   1.883  0.00  0.00    +0.293 C 
BRANCH  31  32
ATOM     32  O   UNL     1      -0.640   1.662   1.990  0.00  0.00    -0.485 OA
BRANCH  32  33
ATOM     33  C   UNL     1       0.479   2.349   2.343  0.00  0.00    +0.121 A 
ATOM     34  C   UNL     1       1.663   1.669   2.586  0.00  0.00    +0.045 A 
ATOM     35  C   UNL     1       2.800   2.369   2.939  0.00  0.00    +0.004 A 
ATOM     36  C   UNL     1       2.756   3.746   3.060  0.00  0.00    +0.000 A 
ATOM     37  C   UNL     1       1.575   4.425   2.824  0.00  0.00    +0.004 A 
ATOM     38  C   UNL     1       0.437   3.730   2.465  0.00  0.00    +0.045 A 
ENDBRANCH  32  33
ENDBRANCH  31  32
ENDBRANCH  11  31
TORSDOF 5
