REMARK  Name = ZINC55870048
REMARK  8 active torsions:
REMARK  status: ('A' for Active; 'I' for Inactive)
REMARK    1  A    between atoms: C_1  and  C_2
REMARK    2  A    between atoms: C_10  and  C_12
REMARK    3  A    between atoms: C_12  and  N_13
REMARK    4  A    between atoms: N_13  and  C_14
REMARK    5  A    between atoms: C_19  and  C_20
REMARK    6  A    between atoms: C_20  and  N_21
REMARK    7  A    between atoms: C_23  and  C_30
REMARK    8  A    between atoms: C_26  and  C_29
REMARK                            x       y       z     vdW  Elec       q    Type
REMARK                         _______ _______ _______ _____ _____    ______ ____
ROOT
ATOM      1  N   UNL     1      -1.200  -4.186   3.983  0.00  0.00    -0.338 N 
ATOM      2  H   UNL     1      -1.988  -4.139   3.421  0.00  0.00    +0.146 HD
ENDROOT
BRANCH   1   3
ATOM      3  C   UNL     1      -1.224  -4.940   5.159  0.00  0.00    +0.032 A 
ATOM      4  C   UNL     1      -0.065  -5.103   5.906  0.00  0.00    +0.023 A 
ATOM      5  C   UNL     1      -0.093  -5.849   7.068  0.00  0.00    +0.002 A 
ATOM      6  C   UNL     1      -1.274  -6.434   7.488  0.00  0.00    +0.000 A 
ATOM      7  C   UNL     1      -2.430  -6.273   6.746  0.00  0.00    +0.007 A 
ATOM      8  C   UNL     1      -2.410  -5.524   5.587  0.00  0.00    -0.013 A 
BRANCH   8   9
ATOM      9  C   UNL     1      -3.672  -5.344   4.783  0.00  0.00    +0.121 C 
BRANCH   9  10
ATOM     10  N   UNL     1      -4.206  -3.994   5.005  0.00  0.00    -0.293 NA
ATOM     11  C   UNL     1      -4.785  -3.871   6.350  0.00  0.00    +0.116 C 
ATOM     12  C   UNL     1      -5.275  -2.436   6.560  0.00  0.00    +0.130 C 
ATOM     13  O   UNL     1      -6.214  -2.103   5.534  0.00  0.00    -0.371 OA
ATOM     14  C   UNL     1      -5.683  -2.211   4.211  0.00  0.00    +0.130 C 
ATOM     15  C   UNL     1      -5.197  -3.644   3.977  0.00  0.00    +0.116 C 
ATOM     16  C   UNL     1      -6.772  -1.867   3.193  0.00  0.00    +0.039 C 
ATOM     17  C   UNL     1      -4.085  -1.476   6.497  0.00  0.00    +0.039 C 
ENDBRANCH   9  10
ENDBRANCH   8   9
ENDBRANCH   1   3
BRANCH   1  18
ATOM     18  C   UNL     1       0.018  -3.466   3.601  0.00  0.00    +0.155 C 
BRANCH  18  28
ATOM     19  C   UNL     1      -0.890   0.567  -1.562  0.00  0.00    +0.064 C 
ATOM     20  C   UNL     1      -0.882  -0.925  -1.346  0.00  0.00    +0.033 A 
ATOM     21  C   UNL     1      -1.094  -1.738  -2.381  0.00  0.00    +0.070 A 
ATOM     22  S   UNL     1      -0.983  -3.345  -1.611  0.00  0.00    -0.059 S 
ATOM     23  C   UNL     1      -0.659  -2.787   0.048  0.00  0.00    +0.158 A 
ATOM     24  N   UNL     1      -0.650  -1.424  -0.087  0.00  0.00    -0.261 N 
ATOM     25  C   UNL     1      -0.415  -0.701   1.048  0.00  0.00    +0.259 A 
ATOM     26  O   UNL     1      -0.397   0.519   1.004  0.00  0.00    -0.267 OA
ATOM     27  C   UNL     1      -0.196  -1.359   2.259  0.00  0.00    +0.093 A 
ATOM     28  C   UNL     1      -0.217  -2.736   2.303  0.00  0.00    +0.040 A 
ATOM     29  N   UNL     1      -0.458  -3.411   1.182  0.00  0.00    -0.337 N 
ATOM     30  H   UNL     1      -0.475  -4.380   1.202  0.00  0.00    +0.168 HD
ENDBRANCH  18  28
ENDBRANCH   1  18
TORSDOF 5
