REMARK  Name = ZINC14476067
REMARK  8 active torsions:
REMARK  status: ('A' for Active; 'I' for Inactive)
REMARK    1  A    between atoms: C_4  and  O_7
REMARK    2  A    between atoms: O_7  and  C_8
REMARK    3  A    between atoms: C_8  and  C_9
REMARK    4  A    between atoms: C_9  and  O_10
REMARK    5  A    between atoms: O_10  and  C_11
REMARK    6  A    between atoms: C_24  and  C_27
REMARK    7  A    between atoms: C_29  and  N_34
REMARK    8  A    between atoms: C_32  and  O_33
REMARK                            x       y       z     vdW  Elec       q    Type
REMARK                         _______ _______ _______ _____ _____    ______ ____
ROOT
ATOM      1  C   UNL     1       6.902  -2.705   1.301  0.00  0.00    +0.121 A 
ATOM      2  C   UNL     1       7.509  -3.438   0.292  0.00  0.00    +0.047 A 
ATOM      3  C   UNL     1       8.807  -3.879   0.442  0.00  0.00    +0.027 A 
ATOM      4  C   UNL     1       9.518  -3.589   1.601  0.00  0.00    +0.032 A 
ATOM      5  C   UNL     1       8.906  -2.838   2.610  0.00  0.00    -0.016 A 
ATOM      6  C   UNL     1       7.607  -2.404   2.456  0.00  0.00    +0.051 A 
ATOM      7  C   UNL     1       9.712  -2.520   3.808  0.00  0.00    +0.049 C 
ATOM      8  C   UNL     1       9.085  -2.276   5.133  0.00  0.00    -0.023 C 
ATOM      9  C   UNL     1       9.925  -2.679   6.079  0.00  0.00    -0.030 C 
ATOM     10  C   UNL     1      11.188  -3.264   5.445  0.00  0.00    +0.033 C 
ATOM     11  C   UNL     1      10.643  -3.736   4.094  0.00  0.00    +0.029 C 
ATOM     12  C   UNL     1      11.632  -3.769   2.943  0.00  0.00    +0.108 C 
ATOM     13  N   UNL     1      10.830  -4.068   1.737  0.00  0.00    -0.336 N 
ATOM     14  H   UNL     1      11.218  -4.604   1.028  0.00  0.00    +0.147 HD
ENDROOT
BRANCH  12  15
ATOM     15  C   UNL     1      12.312  -2.431   2.802  0.00  0.00    +0.017 A 
ATOM     16  C   UNL     1      11.818  -1.495   1.914  0.00  0.00    +0.041 A 
ATOM     17  C   UNL     1      12.440  -0.268   1.784  0.00  0.00    +0.127 A 
ATOM     18  C   UNL     1      13.559   0.026   2.542  0.00  0.00    +0.036 A 
ATOM     19  C   UNL     1      14.056  -0.906   3.431  0.00  0.00    +0.048 A 
ATOM     20  C   UNL     1      13.430  -2.136   3.568  0.00  0.00    +0.122 A 
BRANCH  17  21
ATOM     21  N   UNL     1      11.909   0.733   0.831  0.00  0.00    +0.056 N 
ATOM     22  O   UNL     1      10.932   0.476   0.168  0.00  0.00    -0.126 OA
ATOM     23  O   UNL     1      12.453   1.806   0.717  0.00  0.00    -0.126 OA
ENDBRANCH  17  21
BRANCH  20  24
ATOM     24  O   UNL     1      13.915  -3.053   4.446  0.00  0.00    -0.506 OA
ATOM     25  H   UNL     1      14.575  -3.649   4.067  0.00  0.00    +0.292 HD
ENDBRANCH  20  24
ENDBRANCH  12  15
BRANCH   1  26
ATOM     26  O   UNL     1       5.619  -2.277   1.155  0.00  0.00    -0.489 OA
BRANCH  26  27
ATOM     27  C   UNL     1       4.954  -2.624  -0.061  0.00  0.00    +0.270 C 
BRANCH  27  28
ATOM     28  C   UNL     1       3.531  -2.060  -0.044  0.00  0.00    +0.270 C 
BRANCH  28  29
ATOM     29  O   UNL     1       3.586  -0.632  -0.037  0.00  0.00    -0.489 OA
BRANCH  29  33
ATOM     30  C   UNL     1      -0.017   1.378   0.010  0.00  0.00    +0.000 A 
ATOM     31  C   UNL     1       1.170   2.088   0.002  0.00  0.00    +0.004 A 
ATOM     32  C   UNL     1       2.377   1.417  -0.013  0.00  0.00    +0.045 A 
ATOM     33  C   UNL     1       2.399   0.030  -0.021  0.00  0.00    +0.121 A 
ATOM     34  C   UNL     1       1.207  -0.680  -0.013  0.00  0.00    +0.045 A 
ATOM     35  C   UNL     1       0.002  -0.004   0.002  0.00  0.00    +0.004 A 
ENDBRANCH  29  33
ENDBRANCH  28  29
ENDBRANCH  27  28
ENDBRANCH  26  27
ENDBRANCH   1  26
TORSDOF 8
