REMARK  Name = ZINC50640441
REMARK  5 active torsions:
REMARK  status: ('A' for Active; 'I' for Inactive)
REMARK    1  A    between atoms: C_5  and  N_7
REMARK    2  A    between atoms: N_7  and  S_8
REMARK    3  A    between atoms: S_8  and  C_11
REMARK    4  A    between atoms: C_14  and  N_18
REMARK    5  A    between atoms: C_16  and  N_17
REMARK                            x       y       z     vdW  Elec       q    Type
REMARK                         _______ _______ _______ _____ _____    ______ ____
ROOT
ATOM      1  C   UNL     1       0.235  -4.640  -0.026  0.00  0.00    +0.131 A 
ATOM      2  C   UNL     1      -0.086  -5.439   1.054  0.00  0.00    +0.033 A 
ATOM      3  C   UNL     1       0.241  -6.783   1.044  0.00  0.00    +0.035 A 
ATOM      4  C   UNL     1       0.891  -7.331  -0.047  0.00  0.00    +0.128 A 
ATOM      5  C   UNL     1       1.215  -6.538  -1.130  0.00  0.00    +0.057 A 
ATOM      6  C   UNL     1       0.882  -5.189  -1.125  0.00  0.00    +0.054 A 
ENDROOT
BRANCH   1   7
ATOM      7  S   UNL     1      -0.183  -2.929  -0.012  0.00  0.00    +0.093 S 
ATOM      8  O   UNL     1      -0.802  -2.672   1.241  0.00  0.00    -0.148 OA
ATOM      9  O   UNL     1      -0.827  -2.658  -1.249  0.00  0.00    -0.148 OA
BRANCH   7  10
ATOM     10  N   UNL     1       1.237  -2.078  -0.021  0.00  0.00    -0.097 NA
BRANCH  10  15
ATOM     11  C   UNL     1      -0.017   1.377   0.010  0.00  0.00    +0.002 A 
ATOM     12  C   UNL     1       1.170   2.086   0.002  0.00  0.00    +0.001 A 
ATOM     13  C   UNL     1       2.380   1.417  -0.013  0.00  0.00    +0.017 A 
ATOM     14  C   UNL     1       2.406   0.035  -0.021  0.00  0.00    +0.042 A 
ATOM     15  C   UNL     1       1.215  -0.681  -0.013  0.00  0.00    +0.088 A 
ATOM     16  C   UNL     1       0.002  -0.004   0.002  0.00  0.00    +0.028 A 
ATOM     17 BR   UNL     1       4.061  -0.880  -0.043  0.00  0.00    -0.048 Br
ENDBRANCH  10  15
ENDBRANCH   7  10
ENDBRANCH   1   7
BRANCH   6  18
ATOM     18  N   UNL     1       1.203  -4.385  -2.222  0.00  0.00    -0.356 N 
ATOM     19  H   UNL     1       0.974  -3.443  -2.216  0.00  0.00    +0.142 HD
ATOM     20  H   UNL     1       1.655  -4.769  -2.989  0.00  0.00    +0.142 HD
ENDBRANCH   6  18
BRANCH   4  21
ATOM     21  N   UNL     1       1.240  -8.769  -0.053  0.00  0.00    +0.056 N 
ATOM     22  O   UNL     1       0.957  -9.464   0.895  0.00  0.00    -0.126 OA
ATOM     23  O   UNL     1       1.808  -9.249  -1.006  0.00  0.00    -0.126 OA
ENDBRANCH   4  21
TORSDOF 5
