REMARK  Name = ZINC04177733
REMARK  15 active torsions:
REMARK  status: ('A' for Active; 'I' for Inactive)
REMARK    1  A    between atoms: C_1  and  C_2
REMARK    2  A    between atoms: C_2  and  C_3
REMARK    3  A    between atoms: C_3  and  C_4
REMARK    4  A    between atoms: C_4  and  N_5
REMARK    5  A    between atoms: N_5  and  C_6
REMARK    6  A    between atoms: N_5  and  S_10
REMARK    7  A    between atoms: C_6  and  C_7
REMARK    8  A    between atoms: C_7  and  C_8
REMARK    9  A    between atoms: C_8  and  C_9
REMARK   10  A    between atoms: S_10  and  C_13
REMARK   11  A    between atoms: C_16  and  C_19
REMARK   12  A    between atoms: N_21  and  C_22
REMARK   13  A    between atoms: C_23  and  C_33
REMARK   14  A    between atoms: N_28  and  C_31
REMARK   15  A    between atoms: C_31  and  C_32
REMARK                            x       y       z     vdW  Elec       q    Type
REMARK                         _______ _______ _______ _____ _____    ______ ____
ROOT
ATOM      1  C   UNL     1      -6.254   1.938   3.535  0.00  0.00    +0.249 C 
ATOM      2  O   UNL     1      -5.654   2.708   4.261  0.00  0.00    -0.270 OA
ATOM      3  N   UNL     1      -7.535   2.188   3.200  0.00  0.00    -0.275 N 
ATOM      4  H   UNL     1      -8.014   1.574   2.621  0.00  0.00    +0.156 HD
ENDROOT
BRANCH   3   5
ATOM      5  C   UNL     1      -8.169   3.322   3.682  0.00  0.00    +0.085 A 
ATOM      6  C   UNL     1      -9.473   3.734   3.448  0.00  0.00    +0.068 A 
ATOM      7  C   UNL     1      -9.897   4.970   4.076  0.00  0.00    -0.027 A 
ATOM      8  C   UNL     1      -8.942   5.572   4.821  0.00  0.00    -0.021 A 
ATOM      9  S   UNL     1      -7.536   4.509   4.688  0.00  0.00    -0.079 S 
ATOM     10  C   UNL     1      -9.089   6.855   5.577  0.00  0.00    -0.035 C 
ATOM     11  N   UNL     1     -10.292   7.549   5.081  0.00  0.00    +0.383 N 
ATOM     12  C   UNL     1     -11.432   6.622   5.082  0.00  0.00    -0.074 C 
ATOM     13  C   UNL     1     -11.280   5.596   3.954  0.00  0.00    +0.018 C 
ATOM     14  H   UNL     1     -10.127   7.877   4.141  0.00  0.00    -0.081 HD
BRANCH   6  15
ATOM     15  C   UNL     1     -10.383   2.954   2.604  0.00  0.00    +0.244 C 
ATOM     16  O   UNL     1     -11.082   2.090   3.100  0.00  0.00    -0.270 OA
ATOM     17  N   UNL     1     -10.444   3.193   1.279  0.00  0.00    -0.325 N 
ATOM     18  H   UNL     1      -9.886   3.881   0.884  0.00  0.00    +0.145 HD
ATOM     19  H   UNL     1     -11.045   2.676   0.720  0.00  0.00    +0.145 HD
ENDBRANCH   6  15
BRANCH  11  20
ATOM     20  C   UNL     1     -10.591   8.693   5.953  0.00  0.00    -0.082 C 
ATOM     21  C   UNL     1      -9.461   9.719   5.853  0.00  0.00    -0.017 C 
ENDBRANCH  11  20
ENDBRANCH   3   5
BRANCH   1  25
ATOM     22  C   UNL     1      -4.312  -1.539   2.060  0.00  0.00    +0.106 A 
ATOM     23  C   UNL     1      -3.626  -0.665   2.884  0.00  0.00    +0.029 A 
ATOM     24  C   UNL     1      -4.251   0.466   3.367  0.00  0.00    +0.015 A 
ATOM     25  C   UNL     1      -5.578   0.728   3.022  0.00  0.00    +0.037 A 
ATOM     26  C   UNL     1      -6.264  -0.158   2.189  0.00  0.00    +0.015 A 
ATOM     27  C   UNL     1      -5.626  -1.283   1.709  0.00  0.00    +0.029 A 
BRANCH  22  28
ATOM     28  S   UNL     1      -3.507  -2.982   1.448  0.00  0.00    +0.061 S 
ATOM     29  O   UNL     1      -4.530  -3.917   1.135  0.00  0.00    -0.153 OA
ATOM     30  O   UNL     1      -2.458  -3.279   2.359  0.00  0.00    -0.153 OA
BRANCH  28  31
ATOM     31  N   UNL     1      -2.787  -2.571   0.015  0.00  0.00    -0.177 NA
BRANCH  31  32
ATOM     32  C   UNL     1      -1.413  -2.063   0.004  0.00  0.00    +0.109 C 
BRANCH  32  33
ATOM     33  C   UNL     1      -1.433  -0.534   0.013  0.00  0.00    +0.017 C 
BRANCH  33  35
ATOM     34  C   UNL     1      -0.019   1.526   0.010  0.00  0.00    +0.004 C 
ATOM     35  C   UNL     1       0.002  -0.004   0.002  0.00  0.00    -0.002 C 
ENDBRANCH  33  35
ENDBRANCH  32  33
ENDBRANCH  31  32
BRANCH  31  36
ATOM     36  C   UNL     1      -3.525  -2.714  -1.243  0.00  0.00    +0.109 C 
BRANCH  36  37
ATOM     37  C   UNL     1      -3.187  -4.063  -1.881  0.00  0.00    +0.017 C 
BRANCH  37  38
ATOM     38  C   UNL     1      -3.958  -4.212  -3.195  0.00  0.00    -0.002 C 
ATOM     39  C   UNL     1      -3.620  -5.561  -3.833  0.00  0.00    +0.004 C 
ENDBRANCH  37  38
ENDBRANCH  36  37
ENDBRANCH  31  36
ENDBRANCH  28  31
ENDBRANCH  22  28
ENDBRANCH   1  25
TORSDOF 12
