REMARK  Name = ZINC06793322
REMARK  6 active torsions:
REMARK  status: ('A' for Active; 'I' for Inactive)
REMARK    1  A    between atoms: C_1  and  O_2
REMARK    2  A    between atoms: O_2  and  C_3
REMARK    3  A    between atoms: C_5  and  C_10
REMARK    4  A    between atoms: C_8  and  O_9
REMARK    5  A    between atoms: N_15  and  C_18
REMARK    6  A    between atoms: C_16  and  O_17
REMARK                            x       y       z     vdW  Elec       q    Type
REMARK                         _______ _______ _______ _____ _____    ______ ____
ROOT
ATOM      1  C   UNL     1      -4.871   0.257   0.037  0.00  0.00    +0.092 C 
ATOM      2  C   UNL     1      -5.662  -0.075   1.271  0.00  0.00    +0.067 A 
ATOM      3  C   UNL     1      -6.832  -0.869   1.220  0.00  0.00    +0.153 A 
ATOM      4  N   UNL     1      -7.297  -0.993   2.427  0.00  0.00    -0.148 NA
ATOM      5  N   UNL     1      -6.452  -0.287   3.298  0.00  0.00    -0.199 N 
ATOM      6  C   UNL     1      -5.452   0.270   2.556  0.00  0.00    +0.222 A 
ATOM      7  N   UNL     1      -7.301  -1.368   0.001  0.00  0.00    -0.301 N 
ATOM      8  C   UNL     1      -6.795  -0.839  -1.161  0.00  0.00    +0.017 C 
ATOM      9  C   UNL     1      -5.685  -0.074  -1.195  0.00  0.00    +0.024 C 
ATOM     10  C   UNL     1      -5.223   0.465  -2.410  0.00  0.00    +0.162 C 
ATOM     11  C   UNL     1      -5.941   0.220  -3.707  0.00  0.00    +0.080 C 
ATOM     12  C   UNL     1      -7.428  -0.006  -3.415  0.00  0.00    +0.014 C 
ATOM     13  C   UNL     1      -7.549  -1.165  -2.431  0.00  0.00    +0.051 C 
ATOM     14  O   UNL     1      -4.216   1.147  -2.410  0.00  0.00    -0.292 OA
ATOM     15  H   UNL     1      -7.968  -2.071  -0.023  0.00  0.00    +0.153 HD
ENDROOT
BRANCH   1  18
ATOM     16  C   UNL     1      -1.201  -0.638   0.010  0.00  0.00    +0.162 A 
ATOM     17  C   UNL     1      -2.374   0.099   0.019  0.00  0.00    +0.054 A 
ATOM     18  C   UNL     1      -3.596  -0.546   0.027  0.00  0.00    -0.032 A 
ATOM     19  C   UNL     1      -3.652  -1.928   0.026  0.00  0.00    +0.008 A 
ATOM     20  C   UNL     1      -2.485  -2.669   0.017  0.00  0.00    +0.049 A 
ATOM     21  C   UNL     1      -1.257  -2.028   0.003  0.00  0.00    +0.158 A 
BRANCH  16  23
ATOM     22  C   UNL     1      -0.017   1.425   0.010  0.00  0.00    +0.277 C 
ATOM     23  O   UNL     1       0.002  -0.004   0.002  0.00  0.00    -0.491 OA
ENDBRANCH  16  23
BRANCH  21  24
ATOM     24  O   UNL     1      -0.108  -2.756  -0.012  0.00  0.00    -0.503 OA
ATOM     25  H   UNL     1       0.232  -2.972   0.867  0.00  0.00    +0.292 HD
ENDBRANCH  21  24
ENDBRANCH   1  18
BRANCH   5  26
ATOM     26  C   UNL     1      -6.609  -0.173   4.686  0.00  0.00    +0.069 A 
ATOM     27  C   UNL     1      -5.493  -0.123   5.511  0.00  0.00    +0.028 A 
ATOM     28  C   UNL     1      -5.652  -0.011   6.878  0.00  0.00    +0.002 A 
ATOM     29  C   UNL     1      -6.920   0.052   7.426  0.00  0.00    +0.000 A 
ATOM     30  C   UNL     1      -8.033   0.003   6.607  0.00  0.00    +0.002 A 
ATOM     31  C   UNL     1      -7.881  -0.103   5.239  0.00  0.00    +0.028 A 
ENDBRANCH   5  26
BRANCH   6  32
ATOM     32  O   UNL     1      -4.432   1.032   3.027  0.00  0.00    -0.492 OA
ATOM     33  H   UNL     1      -4.625   1.979   3.048  0.00  0.00    +0.294 HD
ENDBRANCH   6  32
TORSDOF 5
