REMARK  Name = ZINC60214901
REMARK  6 active torsions:
REMARK  status: ('A' for Active; 'I' for Inactive)
REMARK    1  A    between atoms: C_1  and  C_2
REMARK    2  A    between atoms: C_2  and  C_3
REMARK    3  A    between atoms: C_2  and  C_4
REMARK    4  A    between atoms: C_2  and  C_15
REMARK    5  A    between atoms: C_4  and  N_5
REMARK    6  A    between atoms: C_6  and  C_8
REMARK                            x       y       z     vdW  Elec       q    Type
REMARK                         _______ _______ _______ _____ _____    ______ ____
ROOT
ATOM      1  C   UNL     1      -0.019   1.526   0.010  0.00  0.00    +0.017 C 
ATOM      2  C   UNL     1       0.002  -0.004   0.002  0.00  0.00    +0.006 C 
ATOM      3  C   UNL     1       0.742  -0.511   1.242  0.00  0.00    +0.017 C 
ENDROOT
BRANCH   2   4
ATOM      4  C   UNL     1       0.707  -0.490  -1.238  0.00  0.00    -0.037 A 
ATOM      5  C   UNL     1       0.035  -1.284  -2.148  0.00  0.00    +0.008 A 
ATOM      6  C   UNL     1       0.679  -1.733  -3.285  0.00  0.00    +0.050 A 
ATOM      7  C   UNL     1       2.002  -1.387  -3.517  0.00  0.00    +0.162 A 
ATOM      8  C   UNL     1       2.677  -0.587  -2.604  0.00  0.00    +0.162 A 
ATOM      9  C   UNL     1       2.024  -0.136  -1.466  0.00  0.00    +0.053 A 
ATOM     10  O   UNL     1       3.973  -0.229  -2.816  0.00  0.00    -0.485 OA
ATOM     11  C   UNL     1       4.704  -0.998  -3.777  0.00  0.00    +0.270 C 
ATOM     12  C   UNL     1       3.827  -1.166  -5.025  0.00  0.00    +0.270 C 
ATOM     13  O   UNL     1       2.624  -1.840  -4.640  0.00  0.00    -0.485 OA
ENDBRANCH   2   4
BRANCH   2  14
ATOM     14  C   UNL     1      -1.433  -0.534   0.013  0.00  0.00    +0.115 C 
BRANCH  14  15
ATOM     15  N   UNL     1      -2.119  -0.061   1.218  0.00  0.00    -0.310 N 
ATOM     16  C   UNL     1      -3.403  -0.406   1.442  0.00  0.00    +0.246 C 
ATOM     17  O   UNL     1      -3.992  -1.109   0.643  0.00  0.00    -0.270 OA
ATOM     18  H   UNL     1      -1.649   0.499   1.855  0.00  0.00    +0.149 HD
BRANCH  16  19
ATOM     19  C   UNL     1      -4.091   0.069   2.652  0.00  0.00    +0.064 A 
ATOM     20  C   UNL     1      -3.426   0.909   3.620  0.00  0.00    +0.042 A 
ATOM     21  C   UNL     1      -4.168   1.275   4.685  0.00  0.00    +0.080 A 
ATOM     22  S   UNL     1      -5.736   0.492   4.374  0.00  0.00    -0.064 S 
ATOM     23  C   UNL     1      -5.403  -0.263   2.913  0.00  0.00    +0.091 A 
ATOM     24 CL   UNL     1      -6.468  -1.240   1.951  0.00  0.00    -0.075 Cl
ATOM     25 CL   UNL     1      -3.707   2.268   6.032  0.00  0.00    -0.076 Cl
ENDBRANCH  16  19
ENDBRANCH  14  15
ENDBRANCH   2  14
TORSDOF 4
