REMARK  Name = ZINC20533880
REMARK  8 active torsions:
REMARK  status: ('A' for Active; 'I' for Inactive)
REMARK    1  A    between atoms: C_7  and  C_14
REMARK    2  A    between atoms: N_9  and  C_10
REMARK    3  A    between atoms: C_10  and  C_11
REMARK    4  A    between atoms: N_15  and  N_16
REMARK    5  A    between atoms: C_17  and  C_19
REMARK    6  A    between atoms: C_24  and  O_25
REMARK    7  A    between atoms: O_25  and  C_26
REMARK    8  A    between atoms: C_26  and  C_27
REMARK                            x       y       z     vdW  Elec       q    Type
REMARK                         _______ _______ _______ _____ _____    ______ ____
ROOT
ATOM      1  N   UNL     1      -2.108  -3.041   0.007  0.00  0.00    -0.203 N 
ATOM      2  C   UNL     1      -1.932  -4.377  -0.001  0.00  0.00    +0.267 C 
ATOM      3  O   UNL     1      -0.808  -4.843  -0.015  0.00  0.00    -0.268 OA
ATOM      4  H   UNL     1      -3.124  -2.619   0.019  0.00  0.00    +0.178 HD
ENDROOT
BRANCH   2   5
ATOM      5  C   UNL     1      -3.103  -5.275   0.005  0.00  0.00    +0.081 A 
ATOM      6  C   UNL     1      -4.395  -4.744   0.021  0.00  0.00    +0.036 A 
ATOM      7  C   UNL     1      -5.485  -5.589   0.026  0.00  0.00    +0.042 A 
ATOM      8  C   UNL     1      -5.303  -6.963   0.017  0.00  0.00    +0.023 A 
ATOM      9  C   UNL     1      -4.031  -7.500   0.003  0.00  0.00    +0.048 A 
ATOM     10  C   UNL     1      -2.924  -6.665  -0.009  0.00  0.00    +0.133 A 
ATOM     11 CL   UNL     1      -7.090  -4.929   0.046  0.00  0.00    -0.084 Cl
BRANCH  10  12
ATOM     12  O   UNL     1      -1.674  -7.191  -0.029  0.00  0.00    -0.487 OA
BRANCH  12  13
ATOM     13  C   UNL     1      -1.570  -8.616  -0.043  0.00  0.00    +0.264 C 
BRANCH  13  14
ATOM     14  C   UNL     1      -0.117  -9.014  -0.064  0.00  0.00    -0.008 A 
ATOM     15  C   UNL     1       0.564  -9.207   1.123  0.00  0.00    +0.007 A 
ATOM     16  C   UNL     1       1.897  -9.572   1.105  0.00  0.00    +0.003 A 
ATOM     17  C   UNL     1       2.551  -9.744  -0.100  0.00  0.00    +0.038 A 
ATOM     18  C   UNL     1       1.870  -9.551  -1.290  0.00  0.00    +0.124 A 
ATOM     19  C   UNL     1       0.533  -9.191  -1.271  0.00  0.00    +0.045 A 
ATOM     20  F   UNL     1       2.508  -9.719  -2.469  0.00  0.00    -0.205 F 
ENDBRANCH  13  14
ENDBRANCH  12  13
ENDBRANCH  10  12
ENDBRANCH   2   5
BRANCH   1  22
ATOM     21  C   UNL     1      -1.166  -0.900   0.009  0.00  0.00    +0.140 C 
ATOM     22  N   UNL     1      -0.996  -2.188   0.001  0.00  0.00    -0.187 NA
BRANCH  21  29
ATOM     23  C   UNL     1       3.454  -1.671  -0.041  0.00  0.00    +0.001 A 
ATOM     24  C   UNL     1       4.186  -0.492  -0.042  0.00  0.00    +0.002 A 
ATOM     25  C   UNL     1       3.550   0.730  -0.029  0.00  0.00    +0.026 A 
ATOM     26  C   UNL     1       2.160   0.788  -0.014  0.00  0.00    +0.050 A 
ATOM     27  C   UNL     1       1.420  -0.405  -0.014  0.00  0.00    +0.009 A 
ATOM     28  C   UNL     1       2.077  -1.634  -0.027  0.00  0.00    +0.010 A 
ATOM     29  C   UNL     1       0.002  -0.004   0.002  0.00  0.00    +0.020 A 
ATOM     30  C   UNL     1      -0.016   1.356   0.009  0.00  0.00    +0.096 A 
ATOM     31  N   UNL     1       1.260   1.833  -0.000  0.00  0.00    -0.337 N 
BRANCH  31  32
ATOM     32  C   UNL     1       1.625   3.252   0.004  0.00  0.00    +0.217 C 
BRANCH  32  33
ATOM     33  C   UNL     1       1.855   3.716  -1.411  0.00  0.00    +0.230 C 
ATOM     34  O   UNL     1       1.728   2.937  -2.333  0.00  0.00    -0.274 OA
ATOM     35  N   UNL     1       2.203   4.995  -1.653  0.00  0.00    -0.328 N 
ATOM     36  H   UNL     1       2.372   5.333  -2.686  0.00  0.00    +0.145 HD
ATOM     37  H   UNL     1       2.318   5.701  -0.818  0.00  0.00    +0.145 HD
ENDBRANCH  32  33
ENDBRANCH  31  32
ENDBRANCH  21  29
ENDBRANCH   1  22
TORSDOF 8
