REMARK  Name = ZINC12587682
REMARK  7 active torsions:
REMARK  status: ('A' for Active; 'I' for Inactive)
REMARK    1  A    between atoms: C_6  and  C_11
REMARK    2  A    between atoms: C_11  and  N_61
REMARK    3  A    between atoms: C_17  and  C_19
REMARK    4  A    between atoms: C_19  and  C_20
REMARK    5  A    between atoms: N_22  and  C_23
REMARK    6  A    between atoms: C_23  and  C_24
REMARK    7  A    between atoms: C_24  and  C_25
REMARK                            x       y       z     vdW  Elec       q    Type
REMARK                         _______ _______ _______ _____ _____    ______ ____
ROOT
ATOM      1  C   UNL     1       2.252   3.873   2.921  0.00  0.00    -0.058 C 
ATOM      2  C   UNL     1       2.131   4.644   4.237  0.00  0.00    +0.085 C 
ATOM      3  N   UNL     1       2.099   6.080   3.975  0.00  0.00    -0.318 N 
ATOM      4  C   UNL     1       1.815   6.593   2.773  0.00  0.00    +0.200 C 
ATOM      5  O   UNL     1       1.780   7.799   2.651  0.00  0.00    -0.278 OA
ATOM      6  C   UNL     1       1.539   5.739   1.569  0.00  0.00    +0.028 C 
ATOM      7  H   UNL     1       2.291   6.689   4.705  0.00  0.00    +0.149 HD
ATOM      8  N   UNL     1       1.207   4.369   2.003  0.00  0.00    +0.391 N 
ATOM      9  H   UNL     1       0.306   4.382   2.496  0.00  0.00    -0.080 HD
ENDROOT
BRANCH   8  10
ATOM     10  C   UNL     1       1.099   3.477   0.826  0.00  0.00    -0.042 C 
BRANCH  10  16
ATOM     11  C   UNL     1      -0.979  -2.310   2.804  0.00  0.00    +0.001 A 
ATOM     12  C   UNL     1      -2.075  -1.479   2.577  0.00  0.00    +0.001 A 
ATOM     13  C   UNL     1      -1.907  -0.198   2.151  0.00  0.00    +0.008 A 
ATOM     14  C   UNL     1      -0.610   0.299   1.936  0.00  0.00    -0.018 A 
ATOM     15  C   UNL     1      -0.397   1.617   1.496  0.00  0.00    +0.010 A 
ATOM     16  C   UNL     1       0.874   2.063   1.298  0.00  0.00    -0.063 A 
ATOM     17  C   UNL     1       1.970   1.233   1.526  0.00  0.00    +0.002 A 
ATOM     18  C   UNL     1       1.802  -0.049   1.952  0.00  0.00    +0.009 A 
ATOM     19  C   UNL     1       0.505  -0.545   2.167  0.00  0.00    -0.018 A 
ATOM     20  C   UNL     1       0.291  -1.863   2.607  0.00  0.00    +0.008 A 
ENDBRANCH  10  16
ENDBRANCH   8  10
BRANCH   6  21
ATOM     21  C   UNL     1       0.350   6.319   0.799  0.00  0.00    +0.089 C 
BRANCH  21  22
ATOM     22  C   UNL     1      -0.881   6.269   1.666  0.00  0.00    +0.212 C 
ATOM     23  O   UNL     1      -0.839   5.725   2.749  0.00  0.00    -0.276 OA
ATOM     24  N   UNL     1      -2.030   6.830   1.238  0.00  0.00    -0.315 N 
ATOM     25  H   UNL     1      -2.063   7.265   0.371  0.00  0.00    +0.149 HD
BRANCH  24  26
ATOM     26  C   UNL     1      -3.227   6.782   2.080  0.00  0.00    +0.109 C 
BRANCH  26  27
ATOM     27  C   UNL     1      -4.383   7.485   1.365  0.00  0.00    +0.056 C 
BRANCH  27  28
ATOM     28  C   UNL     1      -5.614   7.436   2.232  0.00  0.00    -0.021 A 
ATOM     29  C   UNL     1      -6.599   6.526   2.169  0.00  0.00    +0.087 A 
ATOM     30  N   UNL     1      -7.551   6.802   3.112  0.00  0.00    -0.360 N 
ATOM     31  H   UNL     1      -8.357   6.284   3.259  0.00  0.00    +0.165 HD
ATOM     32  C   UNL     1      -7.193   7.926   3.823  0.00  0.00    +0.047 A 
ATOM     33  C   UNL     1      -5.961   8.369   3.307  0.00  0.00    +0.003 A 
ATOM     34  C   UNL     1      -5.352   9.507   3.838  0.00  0.00    +0.010 A 
ATOM     35  C   UNL     1      -5.952  10.180   4.865  0.00  0.00    +0.001 A 
ATOM     36  C   UNL     1      -7.163   9.744   5.382  0.00  0.00    +0.002 A 
ATOM     37  C   UNL     1      -7.785   8.626   4.869  0.00  0.00    +0.026 A 
ENDBRANCH  27  28
ENDBRANCH  26  27
ENDBRANCH  24  26
ENDBRANCH  21  22
ENDBRANCH   6  21
TORSDOF 7
