REMARK  Name = ZINC06078533
REMARK  10 active torsions:
REMARK  status: ('A' for Active; 'I' for Inactive)
REMARK    1  A    between atoms: C_1  and  C_2
REMARK    2  A    between atoms: C_2  and  N_3
REMARK    3  A    between atoms: N_3  and  C_4
REMARK    4  A    between atoms: N_3  and  C_6
REMARK    5  A    between atoms: C_4  and  C_5
REMARK    6  A    between atoms: C_18  and  N_37
REMARK    7  A    between atoms: C_19  and  C_35
REMARK    8  A    between atoms: C_20  and  C_22
REMARK    9  A    between atoms: C_25  and  C_34
REMARK   10  A    between atoms: C_27  and  C_33
REMARK                            x       y       z     vdW  Elec       q    Type
REMARK                         _______ _______ _______ _____ _____    ______ ____
ROOT
ATOM      1  C   UNL     1      -2.643  -3.418   4.771  0.00  0.00    +0.033 A 
ATOM      2  C   UNL     1      -2.351  -4.069   3.572  0.00  0.00    +0.024 A 
ATOM      3  C   UNL     1      -2.262  -3.363   2.407  0.00  0.00    +0.017 A 
ATOM      4  C   UNL     1      -2.466  -1.980   2.416  0.00  0.00    +0.060 A 
ATOM      5  C   UNL     1      -2.761  -1.317   3.620  0.00  0.00    +0.144 A 
ATOM      6  C   UNL     1      -2.847  -2.046   4.795  0.00  0.00    +0.070 A 
ATOM      7  O   UNL     1      -2.956   0.020   3.620  0.00  0.00    -0.422 OA
ATOM      8  C   UNL     1      -2.875   0.744   2.493  0.00  0.00    +0.345 A 
ATOM      9  O   UNL     1      -3.058   1.948   2.548  0.00  0.00    -0.245 OA
ATOM     10  C   UNL     1      -2.583   0.154   1.253  0.00  0.00    +0.092 A 
ATOM     11  C   UNL     1      -2.377  -1.193   1.178  0.00  0.00    +0.152 A 
ATOM     12  O   UNL     1      -2.098  -1.799   0.008  0.00  0.00    -0.440 OA
ATOM     13  C   UNL     1      -2.382  -1.182  -1.153  0.00  0.00    +0.199 C 
ATOM     14  C   UNL     1      -2.586   0.156  -1.214  0.00  0.00    +0.098 C 
ATOM     15  C   UNL     1      -2.501   1.012   0.019  0.00  0.00    +0.108 C 
ENDROOT
BRANCH  15  16
ATOM     16  C   UNL     1      -1.193   1.761   0.017  0.00  0.00    +0.003 A 
ATOM     17  C   UNL     1      -0.013   1.076   0.008  0.00  0.00    +0.017 A 
ATOM     18  C   UNL     1       1.185   1.815   0.001  0.00  0.00    +0.004 A 
ATOM     19  C   UNL     1       2.437   1.179  -0.014  0.00  0.00    -0.041 A 
ATOM     20  C   UNL     1       3.573   1.929  -0.022  0.00  0.00    +0.007 A 
ATOM     21  C   UNL     1       3.511   3.321  -0.013  0.00  0.00    -0.048 A 
ATOM     22  C   UNL     1       2.315   3.970   0.001  0.00  0.00    +0.031 A 
ATOM     23  C   UNL     1       1.119   3.231   0.009  0.00  0.00    +0.073 A 
ATOM     24  N   UNL     1      -0.070   3.841   0.024  0.00  0.00    -0.235 NA
ATOM     25  C   UNL     1      -1.188   3.156   0.031  0.00  0.00    +0.134 A 
ATOM     26 CL   UNL     1      -2.701   4.007   0.051  0.00  0.00    -0.062 Cl
ATOM     27  C   UNL     1       4.788   4.120  -0.021  0.00  0.00    +0.044 C 
ATOM     28  C   UNL     1       2.522  -0.326  -0.024  0.00  0.00    +0.044 C 
ENDBRANCH  15  16
BRANCH  13  29
ATOM     29  N   UNL     1      -2.468  -1.926  -2.303  0.00  0.00    -0.328 N 
ATOM     30  H   UNL     1      -2.672  -1.493  -3.147  0.00  0.00    +0.145 HD
ATOM     31  H   UNL     1      -2.324  -2.885  -2.272  0.00  0.00    +0.145 HD
ENDBRANCH  13  29
BRANCH  14  32
ATOM     32  C   UNL     1      -2.886   0.765  -2.475  0.00  0.00    +0.101 C 
ATOM     33  N   UNL     1      -3.124   1.248  -3.475  0.00  0.00    -0.191 NA
ENDBRANCH  14  32
BRANCH   1  34
ATOM     34  N   UNL     1      -2.729  -4.151   5.951  0.00  0.00    -0.330 N 
BRANCH  34  36
ATOM     35  C   UNL     1      -1.030  -5.898   6.156  0.00  0.00    +0.024 C 
ATOM     36  C   UNL     1      -2.514  -5.600   5.931  0.00  0.00    +0.102 C 
ENDBRANCH  34  36
BRANCH  34  37
ATOM     37  C   UNL     1      -3.035  -3.473   7.213  0.00  0.00    +0.102 C 
ATOM     38  C   UNL     1      -4.551  -3.443   7.421  0.00  0.00    +0.024 C 
ENDBRANCH  34  37
ENDBRANCH   1  34
TORSDOF 6
