REMARK  Name = ZINC66175531
REMARK  6 active torsions:
REMARK  status: ('A' for Active; 'I' for Inactive)
REMARK    1  A    between atoms: C_1  and  C_2
REMARK    2  A    between atoms: C_2  and  C_3
REMARK    3  A    between atoms: C_2  and  C_4
REMARK    4  A    between atoms: C_4  and  C_6
REMARK    5  A    between atoms: C_4  and  N_16
REMARK    6  A    between atoms: C_22  and  N_25
REMARK                            x       y       z     vdW  Elec       q    Type
REMARK                         _______ _______ _______ _____ _____    ______ ____
ROOT
ATOM      1  N   UNL     1      -1.413  -1.998   0.005  0.00  0.00    -0.292 N 
ATOM      2  C   UNL     1      -1.292  -2.677   1.163  0.00  0.00    +0.303 C 
ATOM      3  O   UNL     1      -1.198  -2.074   2.214  0.00  0.00    -0.253 OA
ATOM      4  N   UNL     1      -1.273  -4.025   1.155  0.00  0.00    -0.287 N 
ATOM      5  C   UNL     1      -1.371  -4.877  -0.039  0.00  0.00    +0.108 C 
ATOM      6  C   UNL     1      -1.278  -6.342   0.435  0.00  0.00    +0.005 C 
ATOM      7  C   UNL     1      -0.566  -6.220   1.808  0.00  0.00    -0.049 C 
ATOM      8  C   UNL     1      -1.146  -4.889   2.343  0.00  0.00    +0.094 C 
ATOM      9  H   UNL     1      -1.488  -2.480  -0.834  0.00  0.00    +0.151 HD
ENDROOT
BRANCH   7  10
ATOM     10  N   UNL     1      -0.920  -7.343   2.686  0.00  0.00    +0.383 N 
ATOM     11  C   UNL     1      -0.436  -8.620   2.104  0.00  0.00    -0.078 C 
ATOM     12  C   UNL     1      -0.363  -9.564   3.330  0.00  0.00    -0.020 C 
ATOM     13  C   UNL     1       0.132  -8.629   4.457  0.00  0.00    -0.020 C 
ATOM     14  C   UNL     1      -0.232  -7.207   3.989  0.00  0.00    -0.078 C 
ATOM     15  H   UNL     1      -1.919  -7.377   2.823  0.00  0.00    -0.081 HD
ENDBRANCH   7  10
BRANCH   1  16
ATOM     16  C   UNL     1      -1.433  -0.534   0.013  0.00  0.00    +0.107 C 
BRANCH  16  17
ATOM     17  C   UNL     1      -2.162  -0.034  -1.208  0.00  0.00    -0.023 A 
ATOM     18  C   UNL     1      -1.981  -0.664  -2.425  0.00  0.00    +0.009 A 
ATOM     19  C   UNL     1      -2.647  -0.208  -3.547  0.00  0.00    +0.050 A 
ATOM     20  C   UNL     1      -3.499   0.882  -3.455  0.00  0.00    +0.162 A 
ATOM     21  C   UNL     1      -3.683   1.513  -2.231  0.00  0.00    +0.162 A 
ATOM     22  C   UNL     1      -3.015   1.048  -1.108  0.00  0.00    +0.055 A 
ATOM     23  O   UNL     1      -4.521   2.580  -2.116  0.00  0.00    -0.485 OA
ATOM     24  C   UNL     1      -4.887   3.244  -3.331  0.00  0.00    +0.270 C 
ATOM     25  C   UNL     1      -5.274   2.177  -4.364  0.00  0.00    +0.270 C 
ATOM     26  O   UNL     1      -4.144   1.322  -4.570  0.00  0.00    -0.485 OA
ENDBRANCH  16  17
BRANCH  16  28
ATOM     27  C   UNL     1      -0.019   1.526   0.010  0.00  0.00    +0.009 C 
ATOM     28  C   UNL     1       0.002  -0.004   0.002  0.00  0.00    +0.008 C 
ATOM     29  C   UNL     1       0.742  -0.511   1.242  0.00  0.00    +0.009 C 
ENDBRANCH  16  28
ENDBRANCH   1  16
TORSDOF 4
