REMARK  Name = ZINC08417893
REMARK  9 active torsions:
REMARK  status: ('A' for Active; 'I' for Inactive)
REMARK    1  A    between atoms: C_1  and  C_2
REMARK    2  A    between atoms: C_7  and  N_12
REMARK    3  A    between atoms: C_9  and  C_11
REMARK    4  A    between atoms: N_12  and  C_13
REMARK    5  A    between atoms: C_13  and  N_15
REMARK    6  A    between atoms: N_15  and  N_16
REMARK    7  A    between atoms: C_17  and  C_19
REMARK    8  A    between atoms: C_19  and  N_20
REMARK    9  A    between atoms: C_21  and  C_23
REMARK                            x       y       z     vdW  Elec       q    Type
REMARK                         _______ _______ _______ _____ _____    ______ ____
ROOT
ATOM      1  N   UNL     1      -1.696   7.505   0.056  0.00  0.00    -0.234 N 
ATOM      2  C   UNL     1      -1.438   6.182   0.047  0.00  0.00    +0.246 C 
ATOM      3  O   UNL     1      -2.353   5.386   0.052  0.00  0.00    -0.273 OA
ATOM      4  H   UNL     1      -0.866   8.227   0.052  0.00  0.00    +0.173 HD
ENDROOT
BRANCH   1   5
ATOM      5  N   UNL     1      -3.021   7.961   0.071  0.00  0.00    -0.246 N 
ATOM      6  H   UNL     1      -3.850   7.239   0.075  0.00  0.00    +0.172 HD
BRANCH   5   7
ATOM      7  C   UNL     1      -3.278   9.284   0.080  0.00  0.00    +0.147 C 
ATOM      8  S   UNL     1      -4.897   9.840   0.098  0.00  0.00    -0.017 S 
BRANCH   7   9
ATOM      9  N   UNL     1      -2.261  10.168   0.075  0.00  0.00    -0.322 N 
ATOM     10  H   UNL     1      -1.221   9.810   0.063  0.00  0.00    +0.148 HD
BRANCH   9  16
ATOM     11  C   UNL     1      -2.892  14.126   1.538  0.00  0.00    +0.008 C 
ATOM     12  C   UNL     1      -1.642  13.855   0.697  0.00  0.00    -0.009 C 
ATOM     13  C   UNL     1      -1.877  14.339  -0.735  0.00  0.00    +0.003 C 
ATOM     14  C   UNL     1      -3.068  13.592  -1.337  0.00  0.00    +0.002 C 
ATOM     15  C   UNL     1      -2.776  12.090  -1.348  0.00  0.00    +0.022 C 
ATOM     16  C   UNL     1      -2.541  11.606   0.085  0.00  0.00    +0.075 C 
ATOM     17  C   UNL     1      -1.350  12.354   0.687  0.00  0.00    +0.009 C 
ATOM     18  C   UNL     1      -1.115  11.870   2.119  0.00  0.00    +0.009 C 
ENDBRANCH   9  16
ENDBRANCH   7   9
ENDBRANCH   5   7
ENDBRANCH   1   5
BRANCH   2  19
ATOM     19  C   UNL     1      -0.013   5.692   0.031  0.00  0.00    +0.202 C 
BRANCH  19  20
ATOM     20  N   UNL     1      -0.001   4.227   0.024  0.00  0.00    -0.303 N 
ATOM     21  C   UNL     1       1.172   3.563   0.009  0.00  0.00    +0.247 C 
ATOM     22  O   UNL     1       2.220   4.180   0.003  0.00  0.00    -0.270 OA
ATOM     23  H   UNL     1      -0.949   3.669   0.030  0.00  0.00    +0.150 HD
BRANCH  21  24
ATOM     24  C   UNL     1       1.185   2.087   0.002  0.00  0.00    +0.072 A 
ATOM     25  C   UNL     1      -0.017   1.374   0.010  0.00  0.00    +0.016 A 
ATOM     26  C   UNL     1       0.002  -0.004   0.002  0.00  0.00    +0.001 A 
ATOM     27  C   UNL     1       1.208  -0.685  -0.013  0.00  0.00    +0.003 A 
ATOM     28  C   UNL     1       2.402   0.011  -0.021  0.00  0.00    +0.039 A 
ATOM     29  C   UNL     1       2.400   1.394  -0.013  0.00  0.00    +0.135 A 
ATOM     30  F   UNL     1       3.567   2.074  -0.019  0.00  0.00    -0.205 F 
ENDBRANCH  21  24
ENDBRANCH  19  20
ENDBRANCH   2  19
TORSDOF 7
