REMARK  Name = ZINC18097819
REMARK  7 active torsions:
REMARK  status: ('A' for Active; 'I' for Inactive)
REMARK    1  A    between atoms: C_3  and  S_23
REMARK    2  A    between atoms: C_6  and  C_7
REMARK    3  A    between atoms: C_7  and  C_8
REMARK    4  A    between atoms: C_8  and  C_9
REMARK    5  A    between atoms: N_11  and  N_12
REMARK    6  A    between atoms: C_13  and  C_15
REMARK    7  A    between atoms: S_23  and  N_26
REMARK                            x       y       z     vdW  Elec       q    Type
REMARK                         _______ _______ _______ _____ _____    ______ ____
ROOT
ATOM      1  C   UNL     1       0.002  -0.004   0.002  0.00  0.00    +0.229 C 
ATOM      2  O   UNL     1      -0.506  -0.622   0.913  0.00  0.00    -0.274 OA
ATOM      3  N   UNL     1       0.585  -0.664  -1.018  0.00  0.00    -0.234 N 
ATOM      4  H   UNL     1       0.992  -0.170  -1.747  0.00  0.00    +0.173 HD
ENDROOT
BRANCH   3   5
ATOM      5  N   UNL     1       0.604  -2.065  -1.026  0.00  0.00    -0.230 N 
ATOM      6  C   UNL     1       1.187  -2.726  -2.046  0.00  0.00    +0.262 C 
ATOM      7  O   UNL     1       1.696  -2.106  -2.959  0.00  0.00    -0.269 OA
ATOM      8  H   UNL     1       0.198  -2.560  -0.297  0.00  0.00    +0.173 HD
BRANCH   6   9
ATOM      9  C   UNL     1       1.207  -4.203  -2.054  0.00  0.00    +0.058 A 
ATOM     10  C   UNL     1       0.628  -4.918  -1.004  0.00  0.00    +0.034 A 
ATOM     11  C   UNL     1       0.646  -6.298  -1.020  0.00  0.00    +0.042 A 
ATOM     12  C   UNL     1       1.246  -6.974  -2.070  0.00  0.00    +0.021 A 
ATOM     13  C   UNL     1       1.826  -6.272  -3.111  0.00  0.00    +0.022 A 
ATOM     14  C   UNL     1       1.810  -4.891  -3.109  0.00  0.00    +0.053 A 
ATOM     15 CL   UNL     1       2.539  -4.012  -4.417  0.00  0.00    -0.083 Cl
ATOM     16 CL   UNL     1      -0.080  -7.189   0.281  0.00  0.00    -0.084 Cl
ENDBRANCH   6   9
ENDBRANCH   3   5
BRANCH   1  17
ATOM     17  C   UNL     1      -0.018   1.503   0.010  0.00  0.00    +0.102 C 
BRANCH  17  18
ATOM     18  C   UNL     1      -0.735   1.996   1.269  0.00  0.00    +0.044 C 
BRANCH  18  24
ATOM     19  C   UNL     1       0.275   4.205   1.875  0.00  0.00    +0.005 A 
ATOM     20  C   UNL     1       0.259   5.587   1.879  0.00  0.00    +0.029 A 
ATOM     21  C   UNL     1      -0.793   6.267   1.293  0.00  0.00    +0.105 A 
ATOM     22  C   UNL     1      -1.825   5.565   0.700  0.00  0.00    +0.029 A 
ATOM     23  C   UNL     1      -1.807   4.183   0.693  0.00  0.00    +0.005 A 
ATOM     24  C   UNL     1      -0.755   3.503   1.277  0.00  0.00    -0.047 A 
BRANCH  21  25
ATOM     25  S   UNL     1      -0.816   8.029   1.302  0.00  0.00    +0.056 S 
ATOM     26  O   UNL     1       0.534   8.453   1.437  0.00  0.00    -0.153 OA
ATOM     27  O   UNL     1      -1.634   8.430   0.211  0.00  0.00    -0.153 OA
BRANCH  25  28
ATOM     28  N   UNL     1      -1.601   8.502   2.681  0.00  0.00    -0.204 NA
ATOM     29  H   UNL     1      -1.943   7.835   3.297  0.00  0.00    +0.144 HD
ATOM     30  H   UNL     1      -1.720   9.445   2.873  0.00  0.00    +0.144 HD
ENDBRANCH  25  28
ENDBRANCH  21  25
ENDBRANCH  18  24
ENDBRANCH  17  18
ENDBRANCH   1  17
TORSDOF 7
