REMARK  Name = ZINC05702177
REMARK  5 active torsions:
REMARK  status: ('A' for Active; 'I' for Inactive)
REMARK    1  A    between atoms: C_1  and  O_2
REMARK    2  A    between atoms: O_2  and  C_3
REMARK    3  A    between atoms: C_5  and  C_10
REMARK    4  A    between atoms: C_8  and  O_9
REMARK    5  A    between atoms: N_16  and  C_17
REMARK                            x       y       z     vdW  Elec       q    Type
REMARK                         _______ _______ _______ _____ _____    ______ ____
ROOT
ATOM      1  C   UNL     1       1.472   0.351  -5.035  0.00  0.00    +0.028 C 
ATOM      2  C   UNL     1       2.407  -0.252  -5.812  0.00  0.00    +0.078 C 
ATOM      3  C   UNL     1       2.795  -1.674  -5.877  0.00  0.00    +0.256 C 
ATOM      4  O   UNL     1       2.261  -2.512  -5.173  0.00  0.00    -0.269 OA
ATOM      5  N   UNL     1       3.748  -1.998  -6.734  0.00  0.00    -0.260 N 
ATOM      6  C   UNL     1       4.341  -1.034  -7.522  0.00  0.00    +0.166 C 
ATOM      7  N   UNL     1       5.293  -1.182  -8.416  0.00  0.00    -0.224 NA
ATOM      8  S   UNL     1       3.494   0.461  -7.038  0.00  0.00    -0.049 S 
ATOM      9  H   UNL     1       4.034  -2.921  -6.809  0.00  0.00    +0.157 HD
ENDROOT
BRANCH   7  10
ATOM     10  C   UNL     1       5.842  -0.082  -9.018  0.00  0.00    +0.086 A 
ATOM     11  C   UNL     1       6.271   1.000  -8.245  0.00  0.00    +0.029 A 
ATOM     12  C   UNL     1       6.824   2.105  -8.858  0.00  0.00    +0.004 A 
ATOM     13  C   UNL     1       6.956   2.144 -10.235  0.00  0.00    +0.021 A 
ATOM     14  C   UNL     1       6.533   1.076 -11.008  0.00  0.00    +0.061 A 
ATOM     15  C   UNL     1       5.982  -0.040 -10.407  0.00  0.00    +0.085 A 
ATOM     16 CL   UNL     1       5.460  -1.382 -11.376  0.00  0.00    -0.080 Cl
ATOM     17 CL   UNL     1       6.702   1.135 -12.735  0.00  0.00    -0.082 Cl
ENDBRANCH   7  10
BRANCH   1  20
ATOM     18  C   UNL     1      -1.153  -0.915  -2.674  0.00  0.00    +0.162 A 
ATOM     19  C   UNL     1      -0.543  -0.204  -3.689  0.00  0.00    +0.057 A 
ATOM     20  C   UNL     1       0.817  -0.401  -3.957  0.00  0.00    -0.020 A 
ATOM     21  C   UNL     1       1.550  -1.319  -3.195  0.00  0.00    +0.012 A 
ATOM     22  C   UNL     1       0.933  -2.023  -2.185  0.00  0.00    +0.050 A 
ATOM     23  C   UNL     1      -0.415  -1.822  -1.916  0.00  0.00    +0.158 A 
BRANCH  18  25
ATOM     24  C   UNL     1      -3.170   0.219  -3.227  0.00  0.00    +0.277 C 
ATOM     25  O   UNL     1      -2.474  -0.726  -2.411  0.00  0.00    -0.491 OA
ENDBRANCH  18  25
BRANCH  23  26
ATOM     26  O   UNL     1      -1.016  -2.516  -0.914  0.00  0.00    -0.503 OA
ATOM     27  H   UNL     1      -1.397  -3.360  -1.194  0.00  0.00    +0.292 HD
ENDBRANCH  23  26
ENDBRANCH   1  20
TORSDOF 4
