REMARK  Name = ZINC15547589
REMARK  9 active torsions:
REMARK  status: ('A' for Active; 'I' for Inactive)
REMARK    1  A    between atoms: C_1  and  C_2
REMARK    2  A    between atoms: C_5  and  S_22
REMARK    3  A    between atoms: C_7  and  N_8
REMARK    4  A    between atoms: C_9  and  C_11
REMARK    5  A    between atoms: C_11  and  N_52
REMARK    6  A    between atoms: C_19  and  C_21
REMARK    7  A    between atoms: S_22  and  N_25
REMARK    8  A    between atoms: N_25  and  C_26
REMARK    9  A    between atoms: N_25  and  C_27
REMARK                            x       y       z     vdW  Elec       q    Type
REMARK                         _______ _______ _______ _____ _____    ______ ____
ROOT
ATOM      1  N   UNL     1       1.139   2.192   0.003  0.00  0.00    -0.287 N 
ATOM      2  C   UNL     1      -0.018   1.502   0.006  0.00  0.00    +0.201 C 
ATOM      3  O   UNL     1      -1.077   2.094   0.024  0.00  0.00    -0.278 OA
ATOM      4  H   UNL     1       1.985   1.722   0.068  0.00  0.00    +0.155 HD
ENDROOT
BRANCH   1  11
ATOM      5  C   UNL     1       3.352   3.642   1.054  0.00  0.00    +0.045 C 
ATOM      6  C   UNL     1       2.181   4.334   0.405  0.00  0.00    -0.029 A 
ATOM      7  C   UNL     1       2.163   5.712   0.301  0.00  0.00    +0.007 A 
ATOM      8  C   UNL     1       1.087   6.348  -0.289  0.00  0.00    +0.029 A 
ATOM      9  C   UNL     1       0.028   5.608  -0.782  0.00  0.00    +0.107 A 
ATOM     10  C   UNL     1       0.042   4.231  -0.687  0.00  0.00    +0.052 A 
ATOM     11  C   UNL     1       1.122   3.588  -0.095  0.00  0.00    +0.038 A 
BRANCH   9  12
ATOM     12  S   UNL     1      -1.341   6.424  -1.533  0.00  0.00    +0.060 S 
ATOM     13  O   UNL     1      -0.864   7.683  -1.989  0.00  0.00    -0.153 OA
ATOM     14  O   UNL     1      -1.950   5.480  -2.403  0.00  0.00    -0.153 OA
BRANCH  12  15
ATOM     15  N   UNL     1      -2.440   6.741  -0.335  0.00  0.00    -0.183 NA
ATOM     16  C   UNL     1      -2.372   8.003   0.406  0.00  0.00    +0.131 C 
ATOM     17  C   UNL     1      -3.479   5.759  -0.016  0.00  0.00    +0.131 C 
ENDBRANCH  12  15
ENDBRANCH   9  12
ENDBRANCH   1  11
BRANCH   2  18
ATOM     18  C   UNL     1       0.003  -0.004  -0.017  0.00  0.00    +0.020 C 
BRANCH  18  28
ATOM     19  C   UNL     1      -2.058  -0.164   1.246  0.00  0.00    -0.072 C 
ATOM     20  C   UNL     1      -3.573  -0.340   1.051  0.00  0.00    +0.024 C 
ATOM     21  C   UNL     1      -3.796  -1.659   0.386  0.00  0.00    -0.010 A 
ATOM     22  C   UNL     1      -2.854  -2.432  -0.224  0.00  0.00    -0.051 A 
ATOM     23  C   UNL     1      -3.297  -3.631  -0.777  0.00  0.00    +0.010 A 
ATOM     24  C   UNL     1      -4.604  -3.974  -0.693  0.00  0.00    +0.045 A 
ATOM     25  S   UNL     1      -5.293  -2.585   0.195  0.00  0.00    -0.101 S 
ATOM     26  C   UNL     1      -1.405  -1.958  -0.269  0.00  0.00    -0.039 C 
ATOM     27  C   UNL     1      -0.814  -2.243  -1.651  0.00  0.00    -0.008 C 
ATOM     28  N   UNL     1      -1.389  -0.494  -0.036  0.00  0.00    +0.390 N 
ATOM     29  H   UNL     1      -1.895  -0.033  -0.801  0.00  0.00    -0.080 HD
ENDBRANCH  18  28
ENDBRANCH   2  18
TORSDOF 5
