REMARK  Name = ZINC40313807
REMARK  11 active torsions:
REMARK  status: ('A' for Active; 'I' for Inactive)
REMARK    1  A    between atoms: C_1  and  C_2
REMARK    2  A    between atoms: C_7  and  O_8
REMARK    3  A    between atoms: O_8  and  C_9
REMARK    4  A    between atoms: C_9  and  C_10
REMARK    5  A    between atoms: C_10  and  C_12
REMARK    6  A    between atoms: C_10  and  O_35
REMARK    7  A    between atoms: C_12  and  N_13
REMARK    8  A    between atoms: N_13  and  C_14
REMARK    9  A    between atoms: N_13  and  C_27
REMARK   10  A    between atoms: C_14  and  C_15
REMARK   11  A    between atoms: C_18  and  C_20
REMARK                            x       y       z     vdW  Elec       q    Type
REMARK                         _______ _______ _______ _____ _____    ______ ____
ROOT
ATOM      1  N   UNL     1      -0.391  -0.098   7.207  0.00  0.00    +0.389 N 
ATOM      2  H   UNL     1      -1.316   0.153   7.522  0.00  0.00    -0.081 HD
ENDROOT
BRANCH   1   3
ATOM      3  C   UNL     1       0.285   1.093   6.676  0.00  0.00    -0.045 C 
ATOM      4  C   UNL     1       0.211   2.235   7.704  0.00  0.00    +0.009 C 
ATOM      5  C   UNL     1       0.626   3.570   7.040  0.00  0.00    +0.164 C 
ATOM      6  S   UNL     1       0.165   3.307   5.279  0.00  0.00    -0.033 S 
ATOM      7  O   UNL     1       1.340   3.351   4.482  0.00  0.00    -0.174 OA
ATOM      8  O   UNL     1      -0.931   4.152   4.957  0.00  0.00    -0.174 OA
ATOM      9  C   UNL     1      -0.429   1.566   5.377  0.00  0.00    +0.151 C 
ENDBRANCH   1   3
BRANCH   1  10
ATOM     10  C   UNL     1      -0.491  -1.116   6.153  0.00  0.00    -0.043 C 
BRANCH  10  11
ATOM     11  C   UNL     1      -1.962  -1.345   5.804  0.00  0.00    +0.135 C 
BRANCH  11  12
ATOM     12  O   UNL     1      -2.635  -1.916   6.928  0.00  0.00    -0.390 OA
ATOM     13  H   UNL     1      -2.274  -2.766   7.212  0.00  0.00    +0.210 HD
ENDBRANCH  11  12
BRANCH  11  14
ATOM     14  C   UNL     1      -2.061  -2.299   4.612  0.00  0.00    +0.258 C 
BRANCH  14  15
ATOM     15  O   UNL     1      -3.428  -2.422   4.212  0.00  0.00    -0.489 OA
BRANCH  15  22
ATOM     16  C   UNL     1      -6.123  -2.680   3.406  0.00  0.00    +0.047 C 
ATOM     17  C   UNL     1      -4.995  -3.405   2.717  0.00  0.00    -0.009 A 
ATOM     18  C   UNL     1      -5.260  -4.232   1.642  0.00  0.00    +0.007 A 
ATOM     19  C   UNL     1      -4.226  -4.898   1.010  0.00  0.00    +0.000 A 
ATOM     20  C   UNL     1      -2.926  -4.739   1.452  0.00  0.00    +0.004 A 
ATOM     21  C   UNL     1      -2.656  -3.913   2.526  0.00  0.00    +0.046 A 
ATOM     22  C   UNL     1      -3.691  -3.239   3.159  0.00  0.00    +0.124 A 
ENDBRANCH  15  22
ENDBRANCH  14  15
ENDBRANCH  11  14
ENDBRANCH  10  11
ENDBRANCH   1  10
BRANCH   1  23
ATOM     23  C   UNL     1       0.382  -0.635   8.335  0.00  0.00    -0.003 C 
BRANCH  23  24
ATOM     24  C   UNL     1       0.359   0.350   9.475  0.00  0.00    +0.089 A 
ATOM     25  C   UNL     1      -0.733   0.720  10.172  0.00  0.00    +0.043 A 
ATOM     26  C   UNL     1      -0.309   1.653  11.140  0.00  0.00    +0.050 A 
ATOM     27  C   UNL     1       1.033   1.802  10.979  0.00  0.00    +0.135 A 
ATOM     28  O   UNL     1       1.425   1.001   9.969  0.00  0.00    -0.462 OA
BRANCH  27  29
ATOM     29  C   UNL     1       1.909   2.684  11.776  0.00  0.00    +0.019 A 
ATOM     30  C   UNL     1       1.374   3.458  12.808  0.00  0.00    +0.011 A 
ATOM     31  C   UNL     1       2.197   4.279  13.549  0.00  0.00    +0.002 A 
ATOM     32  C   UNL     1       3.551   4.339  13.272  0.00  0.00    +0.020 A 
ATOM     33  C   UNL     1       4.090   3.575  12.251  0.00  0.00    +0.042 A 
ATOM     34  C   UNL     1       3.277   2.744  11.506  0.00  0.00    +0.031 A 
ATOM     35 CL   UNL     1       5.790   3.658  11.911  0.00  0.00    -0.084 Cl
ENDBRANCH  27  29
ENDBRANCH  23  24
ENDBRANCH   1  23
TORSDOF 10
