REMARK  Name = ZINC39494277
REMARK  10 active torsions:
REMARK  status: ('A' for Active; 'I' for Inactive)
REMARK    1  A    between atoms: C_4  and  C_7
REMARK    2  A    between atoms: C_7  and  C_9
REMARK    3  A    between atoms: C_7  and  N_29
REMARK    4  A    between atoms: C_9  and  C_11
REMARK    5  A    between atoms: C_9  and  S_20
REMARK    6  A    between atoms: C_11  and  C_13
REMARK    7  A    between atoms: C_18  and  O_19
REMARK    8  A    between atoms: S_20  and  C_23
REMARK    9  A    between atoms: C_30  and  C_32
REMARK   10  A    between atoms: C_37  and  O_38
REMARK                            x       y       z     vdW  Elec       q    Type
REMARK                         _______ _______ _______ _____ _____    ______ ____
ROOT
ATOM      1  C   UNL     1       3.947  -1.174  -1.595  0.00  0.00    +0.231 C 
ENDROOT
BRANCH   1   2
ATOM      2  S   UNL     1       4.360  -0.142  -3.029  0.00  0.00    +0.009 S 
ATOM      3  O   UNL     1       3.247   0.664  -3.388  0.00  0.00    -0.169 OA
ATOM      4  O   UNL     1       5.648   0.433  -2.863  0.00  0.00    -0.169 OA
BRANCH   2   5
ATOM      5  C   UNL     1       4.543  -1.277  -4.365  0.00  0.00    +0.089 A 
ATOM      6  C   UNL     1       5.777  -1.838  -4.631  0.00  0.00    +0.027 A 
ATOM      7  C   UNL     1       5.921  -2.728  -5.679  0.00  0.00    +0.002 A 
ATOM      8  C   UNL     1       4.830  -3.056  -6.461  0.00  0.00    +0.000 A 
ATOM      9  C   UNL     1       3.594  -2.496  -6.194  0.00  0.00    +0.002 A 
ATOM     10  C   UNL     1       3.450  -1.609  -5.144  0.00  0.00    +0.027 A 
ENDBRANCH   2   5
ENDBRANCH   1   2
BRANCH   1  11
ATOM     11  C   UNL     1       4.998  -2.240  -1.424  0.00  0.00    +0.193 C 
ATOM     12  O   UNL     1       6.126  -1.933  -1.099  0.00  0.00    -0.290 OA
BRANCH  11  13
ATOM     13  C   UNL     1       4.657  -3.650  -1.649  0.00  0.00    +0.061 A 
ATOM     14  C   UNL     1       3.358  -4.009  -2.027  0.00  0.00    +0.015 A 
ATOM     15  C   UNL     1       3.046  -5.333  -2.237  0.00  0.00    +0.001 A 
ATOM     16  C   UNL     1       4.012  -6.314  -2.076  0.00  0.00    +0.004 A 
ATOM     17  C   UNL     1       5.298  -5.976  -1.702  0.00  0.00    +0.046 A 
ATOM     18  C   UNL     1       5.634  -4.647  -1.492  0.00  0.00    +0.127 A 
BRANCH  18  19
ATOM     19  O   UNL     1       6.897  -4.312  -1.131  0.00  0.00    -0.506 OA
ATOM     20  H   UNL     1       7.043  -4.298  -0.175  0.00  0.00    +0.292 HD
ENDBRANCH  18  19
ENDBRANCH  11  13
ENDBRANCH   1  11
BRANCH   1  21
ATOM     21  C   UNL     1       3.894  -0.303  -0.338  0.00  0.00    +0.136 C 
BRANCH  21  25
ATOM     22  C   UNL     1       0.684   2.495  -0.681  0.00  0.00    +0.000 A 
ATOM     23  C   UNL     1       1.981   2.895  -0.945  0.00  0.00    +0.000 A 
ATOM     24  C   UNL     1       3.020   1.990  -0.834  0.00  0.00    +0.005 A 
ATOM     25  C   UNL     1       2.762   0.684  -0.459  0.00  0.00    -0.025 A 
ATOM     26  C   UNL     1       1.465   0.285  -0.195  0.00  0.00    +0.005 A 
ATOM     27  C   UNL     1       0.426   1.190  -0.307  0.00  0.00    +0.000 A 
ENDBRANCH  21  25
BRANCH  21  28
ATOM     28  N   UNL     1       3.679  -1.152   0.836  0.00  0.00    -0.302 N 
ATOM     29  C   UNL     1       4.084  -0.736   2.052  0.00  0.00    +0.248 C 
ATOM     30  O   UNL     1       4.628   0.345   2.175  0.00  0.00    -0.270 OA
ATOM     31  H   UNL     1       3.245  -2.014   0.738  0.00  0.00    +0.150 HD
BRANCH  29  32
ATOM     32  C   UNL     1       3.867  -1.591   3.235  0.00  0.00    +0.078 A 
ATOM     33  C   UNL     1       3.248  -2.836   3.097  0.00  0.00    +0.017 A 
ATOM     34  C   UNL     1       3.049  -3.630   4.205  0.00  0.00    +0.001 A 
ATOM     35  C   UNL     1       3.460  -3.200   5.457  0.00  0.00    +0.004 A 
ATOM     36  C   UNL     1       4.074  -1.972   5.606  0.00  0.00    +0.046 A 
ATOM     37  C   UNL     1       4.287  -1.162   4.501  0.00  0.00    +0.129 A 
BRANCH  37  38
ATOM     38  O   UNL     1       4.894   0.042   4.646  0.00  0.00    -0.506 OA
ATOM     39  H   UNL     1       4.284   0.772   4.819  0.00  0.00    +0.292 HD
ENDBRANCH  37  38
ENDBRANCH  29  32
ENDBRANCH  21  28
ENDBRANCH   1  21
TORSDOF 10
