REMARK  Name = ZINC02733006
REMARK  10 active torsions:
REMARK  status: ('A' for Active; 'I' for Inactive)
REMARK    1  A    between atoms: C_1  and  C_2
REMARK    2  A    between atoms: C_2  and  N_3
REMARK    3  A    between atoms: C_4  and  C_22
REMARK    4  A    between atoms: C_5  and  C_17
REMARK    5  A    between atoms: C_6  and  C_11
REMARK    6  A    between atoms: C_17  and  O_19
REMARK    7  A    between atoms: O_19  and  C_20
REMARK    8  A    between atoms: C_20  and  C_21
REMARK    9  A    between atoms: C_22  and  N_64
REMARK   10  A    between atoms: C_28  and  C_30
REMARK                            x       y       z     vdW  Elec       q    Type
REMARK                         _______ _______ _______ _____ _____    ______ ____
ROOT
ATOM      1  N   UNL     1      -3.092   6.364  -1.778  0.00  0.00    -0.261 N 
ATOM      2  C   UNL     1      -1.941   5.839  -2.292  0.00  0.00    +0.010 C 
ATOM      3  C   UNL     1      -1.023   6.627  -2.892  0.00  0.00    +0.076 C 
ATOM      4  C   UNL     1      -1.319   8.110  -2.985  0.00  0.00    +0.143 C 
ATOM      5  N   UNL     1      -2.587   8.575  -2.401  0.00  0.00    -0.288 N 
ATOM      6  C   UNL     1      -3.402   7.666  -1.829  0.00  0.00    +0.307 C 
ATOM      7  O   UNL     1      -4.452   8.040  -1.343  0.00  0.00    -0.252 OA
ATOM      8  H   UNL     1      -2.831   9.514  -2.426  0.00  0.00    +0.151 HD
ENDROOT
BRANCH   4   9
ATOM      9  C   UNL     1      -1.307   8.499  -4.441  0.00  0.00    -0.023 A 
ATOM     10  C   UNL     1      -2.459   8.382  -5.196  0.00  0.00    +0.006 A 
ATOM     11  C   UNL     1      -2.450   8.742  -6.531  0.00  0.00    +0.000 A 
ATOM     12  C   UNL     1      -1.287   9.212  -7.112  0.00  0.00    +0.000 A 
ATOM     13  C   UNL     1      -0.134   9.324  -6.358  0.00  0.00    +0.000 A 
ATOM     14  C   UNL     1      -0.144   8.967  -5.022  0.00  0.00    +0.006 A 
ENDBRANCH   4   9
BRANCH   1  16
ATOM     15  C   UNL     1      -3.788   5.432   0.373  0.00  0.00    +0.025 C 
ATOM     16  C   UNL     1      -4.042   5.452  -1.136  0.00  0.00    +0.111 C 
ENDBRANCH   1  16
BRANCH   3  17
ATOM     17  C   UNL     1       0.173   6.085  -3.419  0.00  0.00    +0.339 C 
ATOM     18  O   UNL     1       0.328   4.878  -3.458  0.00  0.00    -0.245 OA
BRANCH  17  19
ATOM     19  O   UNL     1       1.141   6.905  -3.878  0.00  0.00    -0.462 OA
BRANCH  19  20
ATOM     20  C   UNL     1       2.321   6.290  -4.396  0.00  0.00    +0.229 C 
ATOM     21  C   UNL     1       3.297   7.371  -4.865  0.00  0.00    +0.048 C 
ENDBRANCH  19  20
ENDBRANCH  17  19
ENDBRANCH   3  17
BRANCH   2  22
ATOM     22  C   UNL     1      -1.689   4.357  -2.182  0.00  0.00    -0.026 C 
BRANCH  22  30
ATOM     23  C   UNL     1      -1.826   2.294  -3.441  0.00  0.00    -0.059 C 
ATOM     24  C   UNL     1      -2.645   1.552  -4.504  0.00  0.00    +0.089 C 
ATOM     25  N   UNL     1      -2.631   2.342  -5.744  0.00  0.00    -0.299 N 
ATOM     26  C   UNL     1      -2.989   3.767  -5.665  0.00  0.00    +0.089 C 
ATOM     27  C   UNL     1      -2.158   4.421  -4.557  0.00  0.00    -0.059 C 
ATOM     28  C   UNL     1      -2.295   1.777  -6.921  0.00  0.00    +0.282 C 
ATOM     29  O   UNL     1      -2.102   0.577  -6.986  0.00  0.00    -0.267 OA
ATOM     30  N   UNL     1      -2.361   3.666  -3.302  0.00  0.00    +0.385 N 
ATOM     31  H   UNL     1      -3.367   3.612  -3.105  0.00  0.00    -0.081 HD
BRANCH  28  32
ATOM     32  C   UNL     1      -2.163   2.607  -8.122  0.00  0.00    +0.189 A 
ATOM     33  C   UNL     1      -1.961   2.152  -9.394  0.00  0.00    +0.054 A 
ATOM     34  C   UNL     1      -1.898   3.284 -10.222  0.00  0.00    +0.042 A 
ATOM     35  C   UNL     1      -2.056   4.366  -9.429  0.00  0.00    +0.196 A 
ATOM     36  O   UNL     1      -2.215   3.954  -8.165  0.00  0.00    -0.458 OA
ENDBRANCH  28  32
ENDBRANCH  22  30
ENDBRANCH   2  22
TORSDOF 8
