REMARK  Name = ZINC11077207
REMARK  14 active torsions:
REMARK  status: ('A' for Active; 'I' for Inactive)
REMARK    1  A    between atoms: C_1  and  C_2
REMARK    2  A    between atoms: C_2  and  C_3
REMARK    3  A    between atoms: C_2  and  C_4
REMARK    4  A    between atoms: C_7  and  C_10
REMARK    5  A    between atoms: C_10  and  C_34
REMARK    6  A    between atoms: N_13  and  C_17
REMARK    7  A    between atoms: C_17  and  C_18
REMARK    8  A    between atoms: N_20  and  C_21
REMARK    9  A    between atoms: C_21  and  C_23
REMARK   10  A    between atoms: C_21  and  C_31
REMARK   11  A    between atoms: C_26  and  O_29
REMARK   12  A    between atoms: O_29  and  C_30
REMARK   13  A    between atoms: C_31  and  C_32
REMARK   14  A    between atoms: C_31  and  C_33
REMARK                            x       y       z     vdW  Elec       q    Type
REMARK                         _______ _______ _______ _____ _____    ______ ____
ROOT
ATOM      1  C   UNL     1       4.547   4.928  -0.649  0.00  0.00    +0.135 C 
ATOM      2  C   UNL     1       3.194   4.432  -1.120  0.00  0.00    +0.251 C 
ATOM      3  O   UNL     1       2.819   4.303  -2.265  0.00  0.00    -0.272 OA
ATOM      4  N   UNL     1       2.494   4.164   0.001  0.00  0.00    -0.215 N 
ATOM      5  C   UNL     1       3.208   4.424   1.102  0.00  0.00    +0.310 C 
ATOM      6  O   UNL     1       2.789   4.265   2.232  0.00  0.00    -0.252 OA
ATOM      7  N   UNL     1       4.442   4.877   0.820  0.00  0.00    -0.281 N 
ATOM      8  C   UNL     1       5.661   4.005  -1.145  0.00  0.00    +0.047 C 
ATOM      9  H   UNL     1       5.129   5.126   1.458  0.00  0.00    +0.152 HD
ENDROOT
BRANCH   1  13
ATOM     10  C   UNL     1       5.222   8.934  -1.970  0.00  0.00    -0.045 A 
ATOM     11  C   UNL     1       5.789   8.491  -0.790  0.00  0.00    +0.004 A 
ATOM     12  C   UNL     1       5.570   7.194  -0.362  0.00  0.00    +0.006 A 
ATOM     13  C   UNL     1       4.785   6.342  -1.115  0.00  0.00    -0.015 A 
ATOM     14  C   UNL     1       4.222   6.783  -2.298  0.00  0.00    +0.006 A 
ATOM     15  C   UNL     1       4.437   8.081  -2.723  0.00  0.00    +0.004 A 
BRANCH  10  17
ATOM     16  C   UNL     1       6.146  10.324  -3.804  0.00  0.00    +0.012 C 
ATOM     17  C   UNL     1       5.461  10.347  -2.436  0.00  0.00    +0.013 C 
ATOM     18  C   UNL     1       4.123  11.080  -2.549  0.00  0.00    +0.012 C 
ENDBRANCH  10  17
ENDBRANCH   1  13
BRANCH   4  19
ATOM     19  C   UNL     1       1.120   3.657   0.011  0.00  0.00    +0.213 C 
BRANCH  19  20
ATOM     20  C   UNL     1       1.140   2.151   0.003  0.00  0.00    +0.231 C 
ATOM     21  O   UNL     1       2.199   1.558  -0.011  0.00  0.00    -0.274 OA
ATOM     22  N   UNL     1      -0.018   1.461   0.010  0.00  0.00    -0.307 N 
ATOM     23  H   UNL     1      -0.864   1.934   0.017  0.00  0.00    +0.149 HD
BRANCH  22  24
ATOM     24  C   UNL     1       0.002  -0.004   0.002  0.00  0.00    +0.106 C 
BRANCH  24  25
ATOM     25  C   UNL     1      -1.284  -0.521  -0.589  0.00  0.00    -0.027 A 
ATOM     26  C   UNL     1      -2.483   0.093  -0.276  0.00  0.00    +0.009 A 
ATOM     27  C   UNL     1      -3.663  -0.375  -0.821  0.00  0.00    +0.046 A 
ATOM     28  C   UNL     1      -3.646  -1.469  -1.674  0.00  0.00    +0.120 A 
ATOM     29  C   UNL     1      -2.442  -2.087  -1.982  0.00  0.00    +0.046 A 
ATOM     30  C   UNL     1      -1.265  -1.611  -1.439  0.00  0.00    +0.009 A 
BRANCH  28  31
ATOM     31  O   UNL     1      -4.806  -1.935  -2.207  0.00  0.00    -0.495 OA
ATOM     32  C   UNL     1      -6.007  -1.249  -1.846  0.00  0.00    +0.277 C 
ENDBRANCH  28  31
ENDBRANCH  24  25
BRANCH  24  33
ATOM     33  C   UNL     1       0.148  -0.520   1.435  0.00  0.00    +0.008 C 
ATOM     34  C   UNL     1      -1.092  -0.137   2.244  0.00  0.00    +0.009 C 
ATOM     35  C   UNL     1       0.294  -2.043   1.416  0.00  0.00    +0.009 C 
ENDBRANCH  24  33
ENDBRANCH  22  24
ENDBRANCH  19  20
ENDBRANCH   4  19
TORSDOF 8
