REMARK  Name = ZINC01122731
REMARK  4 active torsions:
REMARK  status: ('A' for Active; 'I' for Inactive)
REMARK    1  A    between atoms: C_5  and  C_7
REMARK    2  A    between atoms: C_7  and  S_8
REMARK    3  A    between atoms: S_8  and  C_9
REMARK    4  A    between atoms: C_22  and  C_25
REMARK                            x       y       z     vdW  Elec       q    Type
REMARK                         _______ _______ _______ _____ _____    ______ ____
ROOT
ATOM      1  C   UNL     1       1.048   2.266  -4.417  0.00  0.00    +0.213 A 
ATOM      2  N   UNL     1       1.577   2.482  -3.216  0.00  0.00    -0.184 NA
ATOM      3  C   UNL     1       0.780   2.584  -2.167  0.00  0.00    +0.248 A 
ATOM      4  C   UNL     1      -0.615   2.456  -2.359  0.00  0.00    +0.156 A 
ATOM      5  N   UNL     1      -1.077   2.244  -3.581  0.00  0.00    -0.141 NA
ATOM      6  N   UNL     1      -0.264   2.153  -4.577  0.00  0.00    -0.122 NA
ATOM      7  C   UNL     1      -1.524   2.556  -1.198  0.00  0.00    +0.028 A 
ATOM      8  C   UNL     1      -2.663   3.352  -1.231  0.00  0.00    +0.012 A 
ATOM      9  C   UNL     1      -3.496   3.402  -0.147  0.00  0.00    +0.001 A 
ATOM     10  C   UNL     1      -3.209   2.664   0.989  0.00  0.00    +0.002 A 
ATOM     11  C   UNL     1      -2.076   1.874   1.043  0.00  0.00    +0.024 A 
ATOM     12  C   UNL     1      -1.222   1.819  -0.043  0.00  0.00    +0.039 A 
ATOM     13  N   UNL     1      -0.057   1.047  -0.015  0.00  0.00    -0.305 N 
ATOM     14  C   UNL     1       1.234   1.727  -0.001  0.00  0.00    +0.295 C 
ATOM     15  O   UNL     1       1.273   2.808  -0.925  0.00  0.00    -0.449 OA
ATOM     16  H   UNL     1      -0.106   0.078  -0.009  0.00  0.00    +0.150 HD
ENDROOT
BRANCH  14  17
ATOM     17  C   UNL     1       1.494   2.257   1.386  0.00  0.00    +0.029 A 
ATOM     18  C   UNL     1       2.097   3.493   1.563  0.00  0.00    +0.012 A 
ATOM     19  C   UNL     1       2.313   3.943   2.857  0.00  0.00    +0.020 A 
ATOM     20  C   UNL     1       1.931   3.145   3.919  0.00  0.00    +0.111 A 
ATOM     21  N   UNL     1       1.365   1.973   3.713  0.00  0.00    -0.263 NA
ATOM     22  C   UNL     1       1.140   1.515   2.497  0.00  0.00    +0.119 A 
ENDBRANCH  14  17
BRANCH   1  23
ATOM     23  S   UNL     1       2.107   2.128  -5.819  0.00  0.00    -0.080 S 
BRANCH  23  24
ATOM     24  C   UNL     1       0.876   1.851  -7.116  0.00  0.00    +0.114 C 
BRANCH  24  29
ATOM     25  C   UNL     1       2.609   0.310 -10.095  0.00  0.00    +0.000 A 
ATOM     26  C   UNL     1       2.848   1.421 -10.882  0.00  0.00    +0.001 A 
ATOM     27  C   UNL     1       2.448   2.672 -10.451  0.00  0.00    +0.020 A 
ATOM     28  C   UNL     1       1.805   2.811  -9.234  0.00  0.00    +0.045 A 
ATOM     29  C   UNL     1       1.571   1.700  -8.445  0.00  0.00    -0.019 A 
ATOM     30  C   UNL     1       1.970   0.449  -8.877  0.00  0.00    +0.006 A 
ATOM     31 CL   UNL     1       1.297   4.381  -8.695  0.00  0.00    -0.083 Cl
ENDBRANCH  24  29
ENDBRANCH  23  24
ENDBRANCH   1  23
TORSDOF 4
