REMARK  Name = ZINC00610192
REMARK  8 active torsions:
REMARK  status: ('A' for Active; 'I' for Inactive)
REMARK    1  A    between atoms: C_3  and  S_19
REMARK    2  A    between atoms: C_6  and  N_7
REMARK    3  A    between atoms: N_7  and  C_8
REMARK    4  A    between atoms: C_8  and  N_10
REMARK    5  A    between atoms: N_10  and  C_11
REMARK    6  A    between atoms: C_11  and  C_12
REMARK    7  A    between atoms: C_12  and  C_13
REMARK    8  A    between atoms: S_19  and  N_22
REMARK                            x       y       z     vdW  Elec       q    Type
REMARK                         _______ _______ _______ _____ _____    ______ ____
ROOT
ATOM      1  N   UNL     1      -0.011   0.966   0.007  0.00  0.00    -0.297 N 
ATOM      2  H   UNL     1       0.085   0.042   0.288  0.00  0.00    +0.154 HD
ENDROOT
BRANCH   1   8
ATOM      3  C   UNL     1      -2.094   1.426   1.140  0.00  0.00    +0.025 A 
ATOM      4  C   UNL     1      -3.333   2.037   1.165  0.00  0.00    +0.030 A 
ATOM      5  C   UNL     1      -3.756   2.789   0.084  0.00  0.00    +0.105 A 
ATOM      6  C   UNL     1      -2.939   2.937  -1.022  0.00  0.00    +0.030 A 
ATOM      7  C   UNL     1      -1.697   2.334  -1.050  0.00  0.00    +0.025 A 
ATOM      8  C   UNL     1      -1.269   1.578   0.033  0.00  0.00    +0.033 A 
BRANCH   5   9
ATOM      9  S   UNL     1      -5.340   3.560   0.117  0.00  0.00    +0.056 S 
ATOM     10  O   UNL     1      -5.686   3.719   1.486  0.00  0.00    -0.153 OA
ATOM     11  O   UNL     1      -5.277   4.656  -0.786  0.00  0.00    -0.153 OA
BRANCH   9  12
ATOM     12  N   UNL     1      -6.423   2.482  -0.522  0.00  0.00    -0.204 NA
ATOM     13  H   UNL     1      -6.119   1.612  -0.826  0.00  0.00    +0.144 HD
ATOM     14  H   UNL     1      -7.360   2.720  -0.593  0.00  0.00    +0.144 HD
ENDBRANCH   9  12
ENDBRANCH   5   9
ENDBRANCH   1   8
BRANCH   1  15
ATOM     15  C   UNL     1       1.067   1.658  -0.413  0.00  0.00    +0.135 C 
ATOM     16  S   UNL     1       0.881   3.251  -1.010  0.00  0.00    -0.019 S 
BRANCH  15  17
ATOM     17  N   UNL     1       2.290   1.095  -0.363  0.00  0.00    -0.326 N 
ATOM     18  H   UNL     1       2.395   0.192  -0.024  0.00  0.00    +0.148 HD
BRANCH  17  19
ATOM     19  C   UNL     1       3.462   1.847  -0.819  0.00  0.00    +0.107 C 
BRANCH  19  20
ATOM     20  C   UNL     1       4.716   0.985  -0.657  0.00  0.00    +0.049 C 
BRANCH  20  21
ATOM     21  C   UNL     1       5.921   1.759  -1.127  0.00  0.00    -0.072 C 
ATOM     22  C   UNL     1       6.611   2.404  -0.242  0.00  0.00    -0.028 C 
ATOM     23  C   UNL     1       7.827   3.224  -0.558  0.00  0.00    +0.027 C 
ATOM     24  C   UNL     1       8.368   2.853  -1.940  0.00  0.00    +0.004 C 
ATOM     25  C   UNL     1       7.203   2.875  -2.939  0.00  0.00    +0.005 C 
ATOM     26  C   UNL     1       6.250   1.728  -2.591  0.00  0.00    +0.030 C 
ENDBRANCH  20  21
ENDBRANCH  19  20
ENDBRANCH  17  19
ENDBRANCH  15  17
ENDBRANCH   1  15
TORSDOF 8
