REMARK  Name = ZINC66632801
REMARK  5 active torsions:
REMARK  status: ('A' for Active; 'I' for Inactive)
REMARK    1  A    between atoms: C_3  and  C_6
REMARK    2  A    between atoms: C_6  and  C_7
REMARK    3  A    between atoms: C_7  and  N_8
REMARK    4  A    between atoms: N_11  and  N_12
REMARK    5  A    between atoms: C_13  and  C_15
REMARK                            x       y       z     vdW  Elec       q    Type
REMARK                         _______ _______ _______ _____ _____    ______ ____
ROOT
ATOM      1  N   UNL     1       8.195   3.427   1.337  0.00  0.00    -0.229 N 
ATOM      2  C   UNL     1       9.463   3.883   1.327  0.00  0.00    +0.262 C 
ATOM      3  O   UNL     1      10.046   4.083   2.376  0.00  0.00    -0.269 OA
ATOM      4  H   UNL     1       7.730   3.267   0.501  0.00  0.00    +0.173 HD
ENDROOT
BRANCH   2   5
ATOM      5  C   UNL     1      10.142   4.138   0.049  0.00  0.00    +0.063 A 
ATOM      6  C   UNL     1       9.621   3.968  -1.200  0.00  0.00    +0.096 A 
ATOM      7  N   UNL     1      10.545   4.306  -2.131  0.00  0.00    -0.360 N 
ATOM      8  H   UNL     1      10.404   4.267  -3.090  0.00  0.00    +0.165 HD
ATOM      9  C   UNL     1      11.715   4.713  -1.524  0.00  0.00    +0.049 A 
ATOM     10  C   UNL     1      11.518   4.634  -0.135  0.00  0.00    +0.012 A 
ATOM     11  C   UNL     1      12.542   4.994   0.737  0.00  0.00    +0.012 A 
ATOM     12  C   UNL     1      13.747   5.431   0.232  0.00  0.00    +0.021 A 
ATOM     13  C   UNL     1      13.942   5.514  -1.139  0.00  0.00    +0.043 A 
ATOM     14  C   UNL     1      12.940   5.152  -2.015  0.00  0.00    +0.046 A 
ATOM     15 CL   UNL     1      15.466   6.068  -1.759  0.00  0.00    -0.083 Cl
ENDBRANCH   2   5
BRANCH   1  19
ATOM     16  N   UNL     1       5.633   2.506   1.403  0.00  0.00    -0.298 N 
ATOM     17  C   UNL     1       6.279   2.728   2.565  0.00  0.00    +0.316 C 
ATOM     18  O   UNL     1       5.717   2.517   3.623  0.00  0.00    -0.251 OA
ATOM     19  N   UNL     1       7.547   3.184   2.555  0.00  0.00    -0.218 N 
ATOM     20  H   UNL     1       6.082   2.674   0.560  0.00  0.00    +0.150 HD
ATOM     21  H   UNL     1       8.012   3.344   3.392  0.00  0.00    +0.174 HD
BRANCH  16  22
ATOM     22  C   UNL     1       4.255   2.011   1.414  0.00  0.00    +0.111 C 
BRANCH  22  23
ATOM     23  C   UNL     1       3.761   1.845  -0.024  0.00  0.00    +0.061 C 
BRANCH  23  26
ATOM     24  C   UNL     1      -0.016   1.351   0.009  0.00  0.00    +0.008 A 
ATOM     25  C   UNL     1       1.183   2.038   0.002  0.00  0.00    +0.011 A 
ATOM     26  C   UNL     1       2.343   1.336  -0.013  0.00  0.00    -0.009 A 
ATOM     27  S   UNL     1       1.754  -0.349  -0.017  0.00  0.00    -0.102 S 
ATOM     28  C   UNL     1       0.002  -0.004   0.002  0.00  0.00    +0.045 A 
ENDBRANCH  23  26
ENDBRANCH  22  23
ENDBRANCH  16  22
ENDBRANCH   1  19
TORSDOF 5
