REMARK  Name = ZINC57642222
REMARK  13 active torsions:
REMARK  status: ('A' for Active; 'I' for Inactive)
REMARK    1  A    between atoms: C_1  and  C_2
REMARK    2  A    between atoms: C_2  and  C_3
REMARK    3  A    between atoms: C_3  and  C_5
REMARK    4  A    between atoms: C_3  and  N_16
REMARK    5  A    between atoms: N_9  and  C_10
REMARK    6  A    between atoms: N_16  and  C_17
REMARK    7  A    between atoms: N_16  and  C_26
REMARK    8  A    between atoms: C_17  and  C_18
REMARK    9  A    between atoms: C_21  and  O_24
REMARK   10  A    between atoms: O_24  and  C_25
REMARK   11  A    between atoms: C_26  and  C_27
REMARK   12  A    between atoms: C_30  and  C_40
REMARK   13  A    between atoms: C_33  and  C_39
REMARK                            x       y       z     vdW  Elec       q    Type
REMARK                         _______ _______ _______ _____ _____    ______ ____
ROOT
ATOM      1  N   UNL     1      -0.001   0.108   1.880  0.00  0.00    -0.284 NA
ENDROOT
BRANCH   1   2
ATOM      2  C   UNL     1       0.986  -0.543   1.008  0.00  0.00    +0.127 C 
BRANCH   2   3
ATOM      3  C   UNL     1       0.652  -0.252  -0.433  0.00  0.00    +0.169 A 
ATOM      4  N   UNL     1       0.356   0.917  -0.947  0.00  0.00    -0.112 NA
ATOM      5  N   UNL     1       0.134   0.754  -2.205  0.00  0.00    -0.023 NA
ATOM      6  N   UNL     1       0.280  -0.489  -2.508  0.00  0.00    -0.044 NA
ATOM      7  N   UNL     1       0.605  -1.141  -1.442  0.00  0.00    -0.225 N 
BRANCH   7   8
ATOM      8  C   UNL     1       0.869  -2.579  -1.349  0.00  0.00    +0.111 C 
ATOM      9  C   UNL     1       2.043  -2.942  -2.261  0.00  0.00    +0.027 C 
ATOM     10  C   UNL     1       2.319  -4.444  -2.163  0.00  0.00    +0.002 C 
ATOM     11  C   UNL     1       1.075  -5.220  -2.599  0.00  0.00    +0.000 C 
ATOM     12  C   UNL     1      -0.099  -4.857  -1.687  0.00  0.00    +0.002 C 
ATOM     13  C   UNL     1      -0.375  -3.355  -1.785  0.00  0.00    +0.027 C 
ENDBRANCH   7   8
ENDBRANCH   2   3
BRANCH   2  15
ATOM     14  C   UNL     1       2.753  -0.370   2.765  0.00  0.00    +0.006 C 
ATOM     15  C   UNL     1       2.382  -0.005   1.326  0.00  0.00    +0.023 C 
ENDBRANCH   2  15
ENDBRANCH   1   2
BRANCH   1  16
ATOM     16  C   UNL     1      -1.314  -0.540   1.765  0.00  0.00    +0.120 C 
BRANCH  16  17
ATOM     17  C   UNL     1      -1.298  -1.845   2.519  0.00  0.00    -0.033 A 
ATOM     18  C   UNL     1      -0.865  -2.999   1.893  0.00  0.00    +0.008 A 
ATOM     19  C   UNL     1      -0.851  -4.196   2.582  0.00  0.00    +0.046 A 
ATOM     20  C   UNL     1      -1.270  -4.240   3.904  0.00  0.00    +0.120 A 
ATOM     21  C   UNL     1      -1.704  -3.080   4.530  0.00  0.00    +0.046 A 
ATOM     22  C   UNL     1      -1.712  -1.885   3.838  0.00  0.00    +0.008 A 
BRANCH  20  23
ATOM     23  O   UNL     1      -1.257  -5.416   4.584  0.00  0.00    -0.495 OA
ATOM     24  C   UNL     1      -1.805  -5.409   5.904  0.00  0.00    +0.277 C 
ENDBRANCH  20  23
ENDBRANCH  16  17
ENDBRANCH   1  16
BRANCH   1  25
ATOM     25  C   UNL     1      -0.095   1.544   1.589  0.00  0.00    +0.126 C 
BRANCH  25  26
ATOM     26  C   UNL     1      -0.767   2.247   2.740  0.00  0.00    +0.032 A 
ATOM     27  C   UNL     1      -0.017   2.795   3.728  0.00  0.00    +0.020 A 
ATOM     28  C   UNL     1      -0.700   3.471   4.832  0.00  0.00    +0.002 A 
ATOM     29  C   UNL     1       0.020   4.055   5.879  0.00  0.00    -0.041 A 
ATOM     30  C   UNL     1      -0.648   4.680   6.894  0.00  0.00    +0.004 A 
ATOM     31  C   UNL     1      -2.035   4.739   6.896  0.00  0.00    +0.005 A 
ATOM     32  C   UNL     1      -2.765   4.171   5.874  0.00  0.00    -0.026 A 
ATOM     33  C   UNL     1      -2.107   3.530   4.829  0.00  0.00    +0.052 A 
ATOM     34  N   UNL     1      -2.811   2.954   3.795  0.00  0.00    -0.322 N 
ATOM     35  H   UNL     1      -3.780   2.995   3.795  0.00  0.00    +0.169 HD
ATOM     36  C   UNL     1      -2.175   2.339   2.782  0.00  0.00    +0.254 A 
ATOM     37  O   UNL     1      -2.830   1.845   1.881  0.00  0.00    -0.268 OA
ATOM     38  C   UNL     1      -4.270   4.242   5.889  0.00  0.00    +0.046 C 
ATOM     39  C   UNL     1       1.526   3.995   5.888  0.00  0.00    +0.044 C 
ENDBRANCH  25  26
ENDBRANCH   1  25
TORSDOF 9
