REMARK  Name = ZINC08919782
REMARK  13 active torsions:
REMARK  status: ('A' for Active; 'I' for Inactive)
REMARK    1  A    between atoms: C_1  and  C_2
REMARK    2  A    between atoms: C_2  and  C_3
REMARK    3  A    between atoms: C_3  and  C_4
REMARK    4  A    between atoms: C_3  and  C_5
REMARK    5  A    between atoms: C_3  and  C_6
REMARK    6  A    between atoms: C_15  and  O_37
REMARK    7  A    between atoms: C_17  and  C_20
REMARK    8  A    between atoms: C_23  and  O_29
REMARK    9  A    between atoms: C_24  and  O_26
REMARK   10  A    between atoms: O_26  and  C_27
REMARK   11  A    between atoms: C_27  and  C_28
REMARK   12  A    between atoms: O_29  and  C_30
REMARK   13  A    between atoms: C_30  and  C_32
REMARK                            x       y       z     vdW  Elec       q    Type
REMARK                         _______ _______ _______ _____ _____    ______ ____
ROOT
ATOM      1  C   UNL     1      -0.839   3.090   1.192  0.00  0.00    -0.000 C 
ATOM      2  C   UNL     1       0.604   3.602   1.198  0.00  0.00    +0.009 C 
ATOM      3  C   UNL     1       0.620   5.106   1.480  0.00  0.00    +0.037 C 
ATOM      4  C   UNL     1      -0.321   5.799   0.501  0.00  0.00    -0.023 A 
ATOM      5  C   UNL     1      -1.271   5.099  -0.160  0.00  0.00    -0.004 A 
ATOM      6  S   UNL     1      -2.103   6.299  -1.167  0.00  0.00    -0.078 S 
ATOM      7  C   UNL     1      -1.209   7.687  -0.720  0.00  0.00    +0.080 A 
ATOM      8  C   UNL     1      -0.273   7.221   0.212  0.00  0.00    +0.068 A 
ATOM      9  C   UNL     1       0.667   8.217   0.786  0.00  0.00    +0.220 C 
ATOM     10  N   UNL     1       0.430   9.480   0.558  0.00  0.00    -0.223 NA
ATOM     11  C   UNL     1      -0.743   9.991  -0.141  0.00  0.00    +0.224 C 
ATOM     12  N   UNL     1      -1.276   9.006  -1.100  0.00  0.00    -0.313 N 
ATOM     13  C   UNL     1      -1.553   3.632  -0.055  0.00  0.00    +0.046 C 
ATOM     14  H   UNL     1      -1.654   9.275  -1.952  0.00  0.00    +0.149 HD
ENDROOT
BRANCH  11  15
ATOM     15  C   UNL     1      -1.811  10.322   0.870  0.00  0.00    -0.002 A 
ATOM     16  C   UNL     1      -3.145  10.228   0.518  0.00  0.00    +0.011 A 
ATOM     17  C   UNL     1      -4.129  10.526   1.443  0.00  0.00    +0.050 A 
ATOM     18  C   UNL     1      -3.779  10.930   2.721  0.00  0.00    +0.173 A 
ATOM     19  C   UNL     1      -2.436  11.030   3.073  0.00  0.00    +0.163 A 
ATOM     20  C   UNL     1      -1.455  10.724   2.143  0.00  0.00    +0.056 A 
BRANCH  19  21
ATOM     21  O   UNL     1      -2.087  11.426   4.326  0.00  0.00    -0.489 OA
BRANCH  21  22
ATOM     22  C   UNL     1      -0.690  11.506   4.616  0.00  0.00    +0.226 C 
ATOM     23  C   UNL     1      -0.495  11.965   6.062  0.00  0.00    +0.048 C 
ENDBRANCH  21  22
ENDBRANCH  19  21
BRANCH  18  24
ATOM     24  O   UNL     1      -4.745  11.229   3.630  0.00  0.00    -0.418 OA
BRANCH  24  25
ATOM     25  C   UNL     1      -5.039  12.534   3.804  0.00  0.00    +0.351 C 
ATOM     26  O   UNL     1      -4.521  13.374   3.094  0.00  0.00    -0.244 OA
BRANCH  25  27
ATOM     27  C   UNL     1      -5.982  12.939   4.848  0.00  0.00    +0.097 A 
ATOM     28  C   UNL     1      -6.416  14.211   5.189  0.00  0.00    +0.022 A 
ATOM     29  C   UNL     1      -7.316  14.309   6.221  0.00  0.00    +0.008 A 
ATOM     30  C   UNL     1      -7.732  13.177   6.848  0.00  0.00    +0.046 A 
ATOM     31  S   UNL     1      -6.879  11.923   6.009  0.00  0.00    -0.090 S 
ENDBRANCH  25  27
ENDBRANCH  24  25
ENDBRANCH  18  24
ENDBRANCH  11  15
BRANCH   1  32
ATOM     32  C   UNL     1      -0.840   1.560   1.159  0.00  0.00    -0.032 C 
ATOM     33  C   UNL     1      -0.117   1.077  -0.099  0.00  0.00    +0.011 C 
ATOM     34  C   UNL     1      -0.122   1.023   2.399  0.00  0.00    +0.011 C 
BRANCH  32  36
ATOM     35  C   UNL     1      -2.284  -0.478   1.113  0.00  0.00    +0.004 C 
ATOM     36  C   UNL     1      -2.283   1.052   1.145  0.00  0.00    +0.003 C 
ENDBRANCH  32  36
ENDBRANCH   1  32
BRANCH   9  37
ATOM     37  O   UNL     1       1.734   7.828   1.522  0.00  0.00    -0.492 OA
ATOM     38  H   UNL     1       2.277   8.560   1.845  0.00  0.00    +0.294 HD
ENDBRANCH   9  37
TORSDOF 9
