REMARK  Name = ZINC16070437
REMARK  10 active torsions:
REMARK  status: ('A' for Active; 'I' for Inactive)
REMARK    1  A    between atoms: C_1  and  C_2
REMARK    2  A    between atoms: C_6  and  O_9
REMARK    3  A    between atoms: C_7  and  C_8
REMARK    4  A    between atoms: O_9  and  C_10
REMARK    5  A    between atoms: C_10  and  C_12
REMARK    6  A    between atoms: C_10  and  C_13
REMARK    7  A    between atoms: N_15  and  N_16
REMARK    8  A    between atoms: C_17  and  C_19
REMARK    9  A    between atoms: N_22  and  C_25
REMARK   10  A    between atoms: C_30  and  N_31
REMARK                            x       y       z     vdW  Elec       q    Type
REMARK                         _______ _______ _______ _____ _____    ______ ____
ROOT
ATOM      1  N   UNL     1      -4.336   0.869  -2.503  0.00  0.00    -0.234 N 
ATOM      2  C   UNL     1      -3.006   0.997  -2.327  0.00  0.00    +0.232 C 
ATOM      3  O   UNL     1      -2.333   1.553  -3.169  0.00  0.00    -0.274 OA
ATOM      4  H   UNL     1      -4.873   0.424  -1.829  0.00  0.00    +0.173 HD
ENDROOT
BRANCH   2   5
ATOM      5  C   UNL     1      -2.354   0.449  -1.083  0.00  0.00    +0.079 C 
ATOM      6  C   UNL     1      -0.849   0.724  -1.131  0.00  0.00    +0.032 C 
ATOM      7  C   UNL     1      -0.201   0.218   0.160  0.00  0.00    +0.106 C 
ATOM      8  N   UNL     1      -0.806   0.900   1.312  0.00  0.00    -0.328 N 
ATOM      9  C   UNL     1      -2.243   0.613   1.405  0.00  0.00    +0.106 C 
ATOM     10  C   UNL     1      -2.951   1.130   0.151  0.00  0.00    +0.032 C 
BRANCH   8  11
ATOM     11  C   UNL     1      -0.149   0.560   2.497  0.00  0.00    +0.060 A 
ATOM     12  C   UNL     1      -0.106  -0.765   2.913  0.00  0.00    +0.025 A 
ATOM     13  C   UNL     1       0.549  -1.099   4.081  0.00  0.00    +0.002 A 
ATOM     14  C   UNL     1       1.152  -0.115   4.844  0.00  0.00    +0.002 A 
ATOM     15  C   UNL     1       1.105   1.206   4.436  0.00  0.00    +0.034 A 
ATOM     16  C   UNL     1       0.457   1.546   3.264  0.00  0.00    +0.147 A 
BRANCH  16  17
ATOM     17  N   UNL     1       0.407   2.959   2.829  0.00  0.00    +0.058 N 
ATOM     18  O   UNL     1       0.939   3.823   3.502  0.00  0.00    -0.126 OA
ATOM     19  O   UNL     1      -0.165   3.259   1.796  0.00  0.00    -0.126 OA
ENDBRANCH  16  17
ENDBRANCH   8  11
ENDBRANCH   2   5
BRANCH   1  22
ATOM     20  C   UNL     1      -6.271   1.251  -3.835  0.00  0.00    +0.270 C 
ATOM     21  O   UNL     1      -6.944   0.695  -2.993  0.00  0.00    -0.270 OA
ATOM     22  N   UNL     1      -4.941   1.379  -3.659  0.00  0.00    -0.231 N 
ATOM     23  H   UNL     1      -4.404   1.824  -4.332  0.00  0.00    +0.173 HD
BRANCH  20  24
ATOM     24  C   UNL     1      -6.923   1.799  -5.078  0.00  0.00    +0.257 C 
ATOM     25  C   UNL     1      -6.683   3.308  -5.157  0.00  0.00    +0.062 C 
BRANCH  24  26
ATOM     26  O   UNL     1      -8.328   1.542  -5.033  0.00  0.00    -0.480 OA
BRANCH  26  32
ATOM     27  C   UNL     1     -12.443   0.674  -7.511  0.00  0.00    +0.044 C 
ATOM     28  C   UNL     1     -10.986   1.058  -7.470  0.00  0.00    -0.044 A 
ATOM     29  C   UNL     1     -10.313   1.344  -8.644  0.00  0.00    +0.004 A 
ATOM     30  C   UNL     1      -8.977   1.696  -8.610  0.00  0.00    +0.004 A 
ATOM     31  C   UNL     1      -8.312   1.769  -7.401  0.00  0.00    +0.046 A 
ATOM     32  C   UNL     1      -8.982   1.477  -6.222  0.00  0.00    +0.125 A 
ATOM     33  C   UNL     1     -10.323   1.123  -6.259  0.00  0.00    -0.006 A 
ATOM     34  C   UNL     1     -11.056   0.811  -4.980  0.00  0.00    +0.048 C 
ENDBRANCH  26  32
ENDBRANCH  24  26
ENDBRANCH  20  24
ENDBRANCH   1  22
TORSDOF 7
