REMARK  Name = ZINC36207658
REMARK  10 active torsions:
REMARK  status: ('A' for Active; 'I' for Inactive)
REMARK    1  A    between atoms: C_1  and  C_2
REMARK    2  A    between atoms: C_7  and  C_8
REMARK    3  A    between atoms: C_17  and  C_19
REMARK    4  A    between atoms: C_19  and  N_20
REMARK    5  A    between atoms: N_20  and  C_21
REMARK    6  A    between atoms: N_20  and  C_27
REMARK    7  A    between atoms: C_21  and  C_22
REMARK    8  A    between atoms: C_27  and  C_28
REMARK    9  A    between atoms: C_28  and  C_30
REMARK   10  A    between atoms: C_28  and  O_31
REMARK                            x       y       z     vdW  Elec       q    Type
REMARK                         _______ _______ _______ _____ _____    ______ ____
ROOT
ATOM      1  C   UNL     1      -0.005   0.063   2.356  0.00  0.00    +0.004 A 
ATOM      2  C   UNL     1       1.035  -0.088   3.212  0.00  0.00    +0.056 A 
ATOM      3  S   UNL     1       0.513   0.816   4.657  0.00  0.00    -0.076 S 
ATOM      4  C   UNL     1      -1.072   1.370   4.084  0.00  0.00    +0.116 A 
ATOM      5  C   UNL     1      -1.158   0.846   2.784  0.00  0.00    +0.080 A 
ATOM      6  C   UNL     1      -2.361   1.150   2.071  0.00  0.00    +0.260 A 
ATOM      7  O   UNL     1      -2.530   0.736   0.937  0.00  0.00    -0.267 OA
ATOM      8  N   UNL     1      -3.303   1.900   2.672  0.00  0.00    -0.312 N 
ATOM      9  H   UNL     1      -4.121   2.110   2.194  0.00  0.00    +0.170 HD
ATOM     10  C   UNL     1      -3.132   2.369   3.934  0.00  0.00    +0.094 A 
ATOM     11  N   UNL     1      -2.049   2.102   4.613  0.00  0.00    -0.229 NA
ENDROOT
BRANCH   1  18
ATOM     12  C   UNL     1       0.042   1.756   0.010  0.00  0.00    +0.044 C 
ATOM     13  C   UNL     1       0.055   0.256  -0.129  0.00  0.00    -0.043 A 
ATOM     14  C   UNL     1       0.095  -0.322  -1.382  0.00  0.00    +0.004 A 
ATOM     15  C   UNL     1       0.107  -1.698  -1.512  0.00  0.00    +0.000 A 
ATOM     16  C   UNL     1       0.079  -2.505  -0.388  0.00  0.00    +0.001 A 
ATOM     17  C   UNL     1       0.039  -1.939   0.870  0.00  0.00    +0.009 A 
ATOM     18  C   UNL     1       0.032  -0.551   1.007  0.00  0.00    -0.014 A 
ENDBRANCH   1  18
BRANCH  10  19
ATOM     19  C   UNL     1      -4.215   3.206   4.567  0.00  0.00    -0.003 C 
BRANCH  19  20
ATOM     20  N   UNL     1      -3.751   3.704   5.869  0.00  0.00    +0.391 N 
ATOM     21  H   UNL     1      -3.426   2.930   6.428  0.00  0.00    -0.080 HD
BRANCH  20  22
ATOM     22  C   UNL     1      -2.651   4.657   5.665  0.00  0.00    -0.002 C 
BRANCH  22  23
ATOM     23  C   UNL     1      -2.095   5.074   7.002  0.00  0.00    +0.089 A 
ATOM     24  C   UNL     1      -1.090   4.467   7.660  0.00  0.00    +0.042 A 
ATOM     25  C   UNL     1      -0.896   5.184   8.863  0.00  0.00    +0.041 A 
ATOM     26  C   UNL     1      -1.794   6.186   8.868  0.00  0.00    +0.195 A 
ATOM     27  O   UNL     1      -2.513   6.117   7.736  0.00  0.00    -0.470 OA
ENDBRANCH  22  23
ENDBRANCH  20  22
BRANCH  20  28
ATOM     28  C   UNL     1      -4.860   4.375   6.559  0.00  0.00    -0.046 C 
BRANCH  28  29
ATOM     29  C   UNL     1      -5.947   3.352   6.895  0.00  0.00    +0.095 C 
ATOM     30  C   UNL     1      -7.108   4.055   7.600  0.00  0.00    +0.035 C 
BRANCH  29  31
ATOM     31  O   UNL     1      -5.405   2.347   7.754  0.00  0.00    -0.394 OA
ATOM     32  H   UNL     1      -6.011   1.614   7.933  0.00  0.00    +0.210 HD
ENDBRANCH  29  31
ENDBRANCH  28  29
ENDBRANCH  20  28
ENDBRANCH  19  20
ENDBRANCH  10  19
TORSDOF 8
