REMARK  Name = ZINC12658379
REMARK  6 active torsions:
REMARK  status: ('A' for Active; 'I' for Inactive)
REMARK    1  A    between atoms: C_4  and  C_7
REMARK    2  A    between atoms: C_8  and  C_9
REMARK    3  A    between atoms: C_8  and  N_22
REMARK    4  A    between atoms: N_11  and  C_12
REMARK    5  A    between atoms: C_23  and  C_25
REMARK    6  A    between atoms: C_29  and  N_31
REMARK                            x       y       z     vdW  Elec       q    Type
REMARK                         _______ _______ _______ _____ _____    ______ ____
ROOT
ATOM      1  C   UNL     1      -0.339   8.057   0.011  0.00  0.00    +0.036 C 
ATOM      2  C   UNL     1       0.850   7.554  -0.393  0.00  0.00    +0.097 C 
ENDROOT
BRANCH   1   6
ATOM      3  C   UNL     1      -3.720   5.515   0.321  0.00  0.00    +0.000 A 
ATOM      4  C   UNL     1      -3.692   6.710   1.018  0.00  0.00    +0.001 A 
ATOM      5  C   UNL     1      -2.596   7.542   0.922  0.00  0.00    +0.008 A 
ATOM      6  C   UNL     1      -1.512   7.175   0.119  0.00  0.00    -0.023 A 
ATOM      7  C   UNL     1      -1.551   5.968  -0.587  0.00  0.00    +0.008 A 
ATOM      8  C   UNL     1      -2.651   5.144  -0.476  0.00  0.00    +0.001 A 
ENDBRANCH   1   6
BRANCH   2   9
ATOM      9  C   UNL     1       1.985   8.457  -0.637  0.00  0.00    +0.262 C 
ATOM     10  O   UNL     1       3.054   8.005  -1.000  0.00  0.00    -0.268 OA
ATOM     11  N   UNL     1       1.840   9.785  -0.457  0.00  0.00    -0.280 N 
ATOM     12  H   UNL     1       1.009  10.139  -0.103  0.00  0.00    +0.155 HD
BRANCH  11  13
ATOM     13  C   UNL     1       2.887  10.652  -0.782  0.00  0.00    +0.034 A 
ATOM     14  C   UNL     1       4.211  10.248  -0.572  0.00  0.00    +0.024 A 
ATOM     15  C   UNL     1       5.249  11.069  -0.883  0.00  0.00    +0.010 A 
ATOM     16  C   UNL     1       4.998  12.347  -1.413  0.00  0.00    -0.018 A 
ATOM     17  C   UNL     1       6.051  13.219  -1.738  0.00  0.00    +0.008 A 
ATOM     18  C   UNL     1       5.774  14.450  -2.248  0.00  0.00    +0.001 A 
ATOM     19  C   UNL     1       4.459  14.861  -2.455  0.00  0.00    +0.001 A 
ATOM     20  C   UNL     1       3.413  14.044  -2.153  0.00  0.00    +0.008 A 
ATOM     21  C   UNL     1       3.660  12.766  -1.623  0.00  0.00    -0.016 A 
ATOM     22  C   UNL     1       2.605  11.897  -1.299  0.00  0.00    +0.031 A 
ENDBRANCH  11  13
ENDBRANCH   2   9
BRANCH   2  23
ATOM     23  N   UNL     1       1.000   6.177  -0.579  0.00  0.00    -0.277 N 
ATOM     24  C   UNL     1       1.387   5.697  -1.778  0.00  0.00    +0.248 C 
ATOM     25  O   UNL     1       1.688   6.465  -2.671  0.00  0.00    -0.270 OA
ATOM     26  H   UNL     1       0.826   5.567   0.155  0.00  0.00    +0.155 HD
BRANCH  24  27
ATOM     27  C   UNL     1       1.444   4.238  -2.006  0.00  0.00    +0.039 A 
ATOM     28  C   UNL     1       1.207   3.354  -0.952  0.00  0.00    +0.013 A 
ATOM     29  C   UNL     1       1.262   1.993  -1.172  0.00  0.00    +0.003 A 
ATOM     30  C   UNL     1       1.551   1.504  -2.433  0.00  0.00    +0.033 A 
ATOM     31  C   UNL     1       1.793   2.375  -3.481  0.00  0.00    +0.127 A 
ATOM     32  C   UNL     1       1.735   3.738  -3.276  0.00  0.00    +0.045 A 
BRANCH  31  33
ATOM     33  N   UNL     1       2.108   1.843  -4.826  0.00  0.00    +0.056 N 
ATOM     34  O   UNL     1       2.154   0.640  -5.009  0.00  0.00    -0.126 OA
ATOM     35  O   UNL     1       2.321   2.608  -5.749  0.00  0.00    -0.126 OA
ENDBRANCH  31  33
ENDBRANCH  24  27
ENDBRANCH   2  23
TORSDOF 6
