REMARK  Name = ZINC39677236
REMARK  7 active torsions:
REMARK  status: ('A' for Active; 'I' for Inactive)
REMARK    1  A    between atoms: C_1  and  C_2
REMARK    2  A    between atoms: C_6  and  C_7
REMARK    3  A    between atoms: C_7  and  N_8
REMARK    4  A    between atoms: C_9  and  C_11
REMARK    5  A    between atoms: C_22  and  C_24
REMARK    6  A    between atoms: C_24  and  O_25
REMARK    7  A    between atoms: O_25  and  C_26
REMARK                            x       y       z     vdW  Elec       q    Type
REMARK                         _______ _______ _______ _____ _____    ______ ____
ROOT
ATOM      1  C   UNL     1      -3.007   0.580   4.784  0.00  0.00    +0.100 C 
ATOM      2  C   UNL     1      -3.718   1.716   4.016  0.00  0.00    +0.121 C 
ATOM      3  N   UNL     1      -4.572   2.377   5.030  0.00  0.00    -0.297 N 
ATOM      4  C   UNL     1      -3.741   2.392   6.258  0.00  0.00    +0.115 C 
ATOM      5  C   UNL     1      -3.024   1.028   6.256  0.00  0.00    -0.004 C 
ATOM      6  C   UNL     1      -1.599   1.181   6.778  0.00  0.00    -0.010 C 
ATOM      7  C   UNL     1      -1.641   1.569   8.258  0.00  0.00    -0.082 C 
ATOM      8  N   UNL     1      -2.353   0.534   9.018  0.00  0.00    +0.379 N 
ATOM      9  C   UNL     1      -3.749   0.459   8.572  0.00  0.00    -0.082 C 
ATOM     10  C   UNL     1      -3.796   0.023   7.105  0.00  0.00    -0.010 C 
ATOM     11  C   UNL     1      -5.822   2.857   4.873  0.00  0.00    +0.253 C 
ATOM     12  O   UNL     1      -6.394   3.376   5.807  0.00  0.00    -0.272 OA
ATOM     13  H   UNL     1      -1.905  -0.357   8.870  0.00  0.00    -0.086 HD
ATOM     14  H   UNL     1      -2.326   0.762  10.000  0.00  0.00    -0.086 HD
ENDROOT
BRANCH   1  16
ATOM     15  N   UNL     1      -0.981  -0.776   4.365  0.00  0.00    -0.310 N 
ATOM     16  C   UNL     1      -1.589   0.425   4.299  0.00  0.00    +0.218 C 
ATOM     17  O   UNL     1      -0.995   1.381   3.848  0.00  0.00    -0.275 OA
ATOM     18  H   UNL     1      -1.457  -1.541   4.726  0.00  0.00    +0.149 HD
BRANCH  15  19
ATOM     19  C   UNL     1       0.398  -0.926   3.894  0.00  0.00    +0.147 C 
BRANCH  19  25
ATOM     20  C   UNL     1       0.102  -3.211   1.862  0.00  0.00    +0.044 C 
ATOM     21  C   UNL     1       0.733  -3.398   3.217  0.00  0.00    -0.039 A 
ATOM     22  C   UNL     1       1.218  -4.635   3.601  0.00  0.00    +0.011 A 
ATOM     23  C   UNL     1       1.780  -4.769   4.827  0.00  0.00    +0.046 A 
ATOM     24  S   UNL     1       1.633  -3.115   5.484  0.00  0.00    -0.100 S 
ATOM     25  C   UNL     1       0.838  -2.356   4.077  0.00  0.00    +0.010 A 
ENDBRANCH  19  25
ENDBRANCH  15  19
ENDBRANCH   1  16
BRANCH  11  26
ATOM     26  C   UNL     1      -6.508   2.748   3.535  0.00  0.00    +0.324 C 
BRANCH  26  27
ATOM     27  O   UNL     1      -7.813   3.323   3.621  0.00  0.00    -0.483 OA
BRANCH  27  28
ATOM     28  C   UNL     1      -8.570   3.306   2.493  0.00  0.00    +0.123 A 
ATOM     29  C   UNL     1      -8.069   2.741   1.328  0.00  0.00    +0.046 A 
ATOM     30  C   UNL     1      -8.840   2.724   0.182  0.00  0.00    +0.005 A 
ATOM     31  C   UNL     1     -10.110   3.269   0.194  0.00  0.00    +0.020 A 
ATOM     32  C   UNL     1     -10.613   3.833   1.353  0.00  0.00    +0.044 A 
ATOM     33  C   UNL     1      -9.847   3.847   2.504  0.00  0.00    +0.065 A 
ATOM     34 CL   UNL     1     -12.209   4.516   1.365  0.00  0.00    -0.083 Cl
ENDBRANCH  27  28
ENDBRANCH  26  27
ENDBRANCH  11  26
TORSDOF 6
