REMARK  Name = ZINC11867026
REMARK  10 active torsions:
REMARK  status: ('A' for Active; 'I' for Inactive)
REMARK    1  A    between atoms: C_1  and  C_2
REMARK    2  A    between atoms: C_3  and  C_37
REMARK    3  A    between atoms: C_11  and  O_13
REMARK    4  A    between atoms: O_13  and  C_14
REMARK    5  A    between atoms: C_14  and  C_15
REMARK    6  A    between atoms: N_17  and  C_18
REMARK    7  A    between atoms: C_18  and  C_19
REMARK    8  A    between atoms: N_21  and  C_22
REMARK    9  A    between atoms: C_22  and  C_23
REMARK   10  A    between atoms: C_28  and  O_36
REMARK                            x       y       z     vdW  Elec       q    Type
REMARK                         _______ _______ _______ _____ _____    ______ ____
ROOT
ATOM      1  C   UNL     1      -3.401   5.067  11.426  0.00  0.00    +0.200 C 
ENDROOT
BRANCH   1   4
ATOM      2  C   UNL     1      -3.001   4.316   9.143  0.00  0.00    +0.251 C 
ATOM      3  O   UNL     1      -4.188   4.440   8.926  0.00  0.00    -0.272 OA
ATOM      4  N   UNL     1      -2.506   4.604  10.363  0.00  0.00    -0.304 N 
ATOM      5  H   UNL     1      -1.557   4.505  10.537  0.00  0.00    +0.149 HD
BRANCH   2   6
ATOM      6  C   UNL     1      -2.080   3.839   8.049  0.00  0.00    +0.324 C 
BRANCH   6   7
ATOM      7  O   UNL     1      -2.836   3.602   6.860  0.00  0.00    -0.483 OA
BRANCH   7  18
ATOM      8  C   UNL     1       1.476   1.578   2.433  0.00  0.00    +0.045 C 
ATOM      9  C   UNL     1      -0.013   1.802   2.386  0.00  0.00    -0.030 A 
ATOM     10  C   UNL     1      -0.718   1.572   1.248  0.00  0.00    +0.037 A 
ATOM     11  C   UNL     1      -2.110   1.794   1.228  0.00  0.00    +0.340 A 
ATOM     12  O   UNL     1      -2.729   1.588   0.199  0.00  0.00    -0.245 OA
ATOM     13  O   UNL     1      -2.772   2.222   2.314  0.00  0.00    -0.422 OA
ATOM     14  C   UNL     1      -2.131   2.470   3.477  0.00  0.00    +0.143 A 
ATOM     15  C   UNL     1      -0.740   2.274   3.566  0.00  0.00    +0.021 A 
ATOM     16  C   UNL     1      -0.073   2.530   4.769  0.00  0.00    +0.015 A 
ATOM     17  C   UNL     1      -0.775   2.969   5.854  0.00  0.00    +0.046 A 
ATOM     18  C   UNL     1      -2.152   3.165   5.772  0.00  0.00    +0.125 A 
ATOM     19  C   UNL     1      -2.829   2.917   4.589  0.00  0.00    +0.092 A 
ATOM     20  C   UNL     1      -0.013   1.086   0.008  0.00  0.00    +0.051 C 
ENDBRANCH   7  18
ENDBRANCH   6   7
ENDBRANCH   2   6
ENDBRANCH   1   4
BRANCH   1  21
ATOM     21  C   UNL     1      -2.604   5.318  12.680  0.00  0.00    +0.231 C 
ATOM     22  O   UNL     1      -1.406   5.128  12.685  0.00  0.00    -0.274 OA
ATOM     23  N   UNL     1      -3.222   5.753  13.796  0.00  0.00    -0.305 N 
ATOM     24  H   UNL     1      -4.180   5.904  13.792  0.00  0.00    +0.149 HD
BRANCH  23  25
ATOM     25  C   UNL     1      -2.447   5.996  15.015  0.00  0.00    +0.200 C 
BRANCH  25  26
ATOM     26  C   UNL     1      -3.368   6.472  16.109  0.00  0.00    +0.233 C 
ATOM     27  O   UNL     1      -4.555   6.596  15.892  0.00  0.00    -0.274 OA
ATOM     28  N   UNL     1      -2.873   6.761  17.329  0.00  0.00    -0.300 N 
ATOM     29  C   UNL     1      -1.438   6.610  17.610  0.00  0.00    +0.110 C 
ATOM     30  C   UNL     1      -0.910   7.937  18.175  0.00  0.00    +0.054 C 
ATOM     31  C   UNL     1      -1.747   8.337  19.393  0.00  0.00    +0.072 C 
ATOM     32  C   UNL     1      -1.204   9.648  19.969  0.00  0.00    +0.035 C 
ATOM     33  C   UNL     1      -1.274  10.739  18.898  0.00  0.00    +0.003 C 
ATOM     34  C   UNL     1      -2.727  10.937  18.463  0.00  0.00    +0.001 C 
ATOM     35  C   UNL     1      -3.274   9.626  17.895  0.00  0.00    +0.008 C 
ATOM     36  C   UNL     1      -3.204   8.538  18.968  0.00  0.00    +0.038 C 
ATOM     37  C   UNL     1      -3.757   7.226  18.406  0.00  0.00    +0.114 C 
BRANCH  31  38
ATOM     38  O   UNL     1      -1.676   7.313  20.387  0.00  0.00    -0.388 OA
ATOM     39  H   UNL     1      -0.780   7.132  20.703  0.00  0.00    +0.210 HD
ENDBRANCH  31  38
ENDBRANCH  25  26
ENDBRANCH  23  25
ENDBRANCH   1  21
TORSDOF 8
