REMARK  Name = ZINC39494214
REMARK  9 active torsions:
REMARK  status: ('A' for Active; 'I' for Inactive)
REMARK    1  A    between atoms: C_4  and  C_7
REMARK    2  A    between atoms: C_7  and  C_9
REMARK    3  A    between atoms: C_7  and  C_27
REMARK    4  A    between atoms: C_9  and  C_11
REMARK    5  A    between atoms: C_9  and  N_17
REMARK    6  A    between atoms: C_18  and  C_20
REMARK    7  A    between atoms: C_25  and  O_26
REMARK    8  A    between atoms: C_27  and  C_29
REMARK    9  A    between atoms: C_34  and  O_35
REMARK                            x       y       z     vdW  Elec       q    Type
REMARK                         _______ _______ _______ _____ _____    ______ ____
ROOT
ATOM      1  C   UNL     1       3.817  -1.592   1.206  0.00  0.00    +0.118 C 
ENDROOT
BRANCH   1   2
ATOM      2  C   UNL     1       5.132  -2.327   1.189  0.00  0.00    -0.026 A 
ATOM      3  C   UNL     1       6.288  -1.687   1.595  0.00  0.00    +0.005 A 
ATOM      4  C   UNL     1       7.495  -2.362   1.579  0.00  0.00    +0.000 A 
ATOM      5  C   UNL     1       7.545  -3.677   1.157  0.00  0.00    +0.000 A 
ATOM      6  C   UNL     1       6.389  -4.318   0.752  0.00  0.00    +0.000 A 
ATOM      7  C   UNL     1       5.182  -3.645   0.772  0.00  0.00    +0.005 A 
ENDBRANCH   1   2
BRANCH   1   8
ATOM      8  N   UNL     1       3.741  -0.757   2.407  0.00  0.00    -0.303 N 
ATOM      9  C   UNL     1       3.312  -1.286   3.570  0.00  0.00    +0.248 C 
ATOM     10  O   UNL     1       2.989  -2.457   3.623  0.00  0.00    -0.270 OA
ATOM     11  H   UNL     1       3.998   0.178   2.366  0.00  0.00    +0.150 HD
BRANCH   9  12
ATOM     12  C   UNL     1       3.235  -0.445   4.780  0.00  0.00    +0.078 A 
ATOM     13  C   UNL     1       3.600   0.902   4.723  0.00  0.00    +0.017 A 
ATOM     14  C   UNL     1       3.525   1.682   5.856  0.00  0.00    +0.001 A 
ATOM     15  C   UNL     1       3.090   1.137   7.053  0.00  0.00    +0.004 A 
ATOM     16  C   UNL     1       2.727  -0.193   7.123  0.00  0.00    +0.046 A 
ATOM     17  C   UNL     1       2.791  -0.992   5.991  0.00  0.00    +0.129 A 
BRANCH  17  18
ATOM     18  O   UNL     1       2.429  -2.298   6.057  0.00  0.00    -0.506 OA
ATOM     19  H   UNL     1       3.155  -2.896   6.282  0.00  0.00    +0.292 HD
ENDBRANCH  17  18
ENDBRANCH   9  12
ENDBRANCH   1   8
BRANCH   1  20
ATOM     20  C   UNL     1       3.711  -0.707  -0.038  0.00  0.00    +0.115 C 
BRANCH  20  24
ATOM     21  C   UNL     1      -0.017   1.378   0.010  0.00  0.00    +0.000 A 
ATOM     22  C   UNL     1       1.171   2.086   0.002  0.00  0.00    +0.000 A 
ATOM     23  C   UNL     1       2.377   1.411  -0.013  0.00  0.00    +0.004 A 
ATOM     24  C   UNL     1       2.396   0.029  -0.020  0.00  0.00    -0.035 A 
ATOM     25  C   UNL     1       1.208  -0.679  -0.012  0.00  0.00    +0.004 A 
ATOM     26  C   UNL     1       0.002  -0.004   0.002  0.00  0.00    +0.000 A 
ENDBRANCH  20  24
BRANCH  20  27
ATOM     27  C   UNL     1       3.790  -1.566  -1.273  0.00  0.00    +0.176 C 
ATOM     28  O   UNL     1       3.383  -2.708  -1.245  0.00  0.00    -0.291 OA
BRANCH  27  29
ATOM     29  C   UNL     1       4.359  -1.021  -2.511  0.00  0.00    +0.059 A 
ATOM     30  C   UNL     1       4.835   0.295  -2.548  0.00  0.00    +0.015 A 
ATOM     31  C   UNL     1       5.368   0.800  -3.713  0.00  0.00    +0.001 A 
ATOM     32  C   UNL     1       5.435   0.011  -4.851  0.00  0.00    +0.004 A 
ATOM     33  C   UNL     1       4.969  -1.288  -4.831  0.00  0.00    +0.046 A 
ATOM     34  C   UNL     1       4.434  -1.817  -3.666  0.00  0.00    +0.127 A 
BRANCH  34  35
ATOM     35  O   UNL     1       3.982  -3.095  -3.643  0.00  0.00    -0.506 OA
ATOM     36  H   UNL     1       3.049  -3.186  -3.881  0.00  0.00    +0.292 HD
ENDBRANCH  34  35
ENDBRANCH  27  29
ENDBRANCH  20  27
ENDBRANCH   1  20
TORSDOF 9
