REMARK  Name = ZINC63383568
REMARK  9 active torsions:
REMARK  status: ('A' for Active; 'I' for Inactive)
REMARK    1  A    between atoms: C_1  and  C_2
REMARK    2  A    between atoms: C_2  and  C_3
REMARK    3  A    between atoms: C_2  and  C_4
REMARK    4  A    between atoms: C_4  and  C_5
REMARK    5  A    between atoms: C_5  and  C_7
REMARK    6  A    between atoms: C_5  and  N_17
REMARK    7  A    between atoms: N_9  and  C_10
REMARK    8  A    between atoms: C_10  and  C_11
REMARK    9  A    between atoms: C_18  and  C_20
REMARK                            x       y       z     vdW  Elec       q    Type
REMARK                         _______ _______ _______ _____ _____    ______ ____
ROOT
ATOM      1  C   UNL     1      -1.960   3.157   1.699  0.00  0.00    +0.167 C 
ATOM      2  C   UNL     1      -2.141   3.739   3.114  0.00  0.00    +0.065 C 
ATOM      3  C   UNL     1      -3.593   4.122   3.252  0.00  0.00    -0.034 C 
ATOM      4  C   UNL     1      -4.152   5.264   3.644  0.00  0.00    -0.001 A 
ATOM      5  C   UNL     1      -3.566   6.509   4.166  0.00  0.00    +0.010 A 
ATOM      6  C   UNL     1      -4.442   7.506   4.460  0.00  0.00    +0.001 A 
ATOM      7  C   UNL     1      -5.825   7.390   4.288  0.00  0.00    +0.002 A 
ATOM      8  C   UNL     1      -6.450   6.280   3.821  0.00  0.00    +0.026 A 
ATOM      9  C   UNL     1      -5.633   5.161   3.483  0.00  0.00    +0.043 A 
ATOM     10  N   UNL     1      -5.961   3.985   3.037  0.00  0.00    -0.375 N 
ATOM     11  C   UNL     1      -4.743   3.183   2.914  0.00  0.00    +0.131 C 
ATOM     12  C   UNL     1      -4.522   2.690   1.485  0.00  0.00    +0.134 C 
ATOM     13  N   UNL     1      -3.246   3.252   0.997  0.00  0.00    -0.276 N 
ATOM     14  C   UNL     1      -3.472   3.872  -0.177  0.00  0.00    +0.248 C 
ATOM     15  O   UNL     1      -2.609   4.332  -0.899  0.00  0.00    -0.270 OA
ATOM     16  C   UNL     1      -4.909   3.911  -0.456  0.00  0.00    +0.042 A 
ATOM     17  C   UNL     1      -5.592   3.175   0.564  0.00  0.00    -0.013 A 
ATOM     18  C   UNL     1      -6.961   3.024   0.582  0.00  0.00    +0.006 A 
ATOM     19  C   UNL     1      -7.676   3.612  -0.458  0.00  0.00    +0.000 A 
ATOM     20  C   UNL     1      -7.047   4.314  -1.466  0.00  0.00    +0.001 A 
ATOM     21  C   UNL     1      -5.620   4.506  -1.502  0.00  0.00    +0.013 A 
ATOM     22  H   UNL     1      -6.860   3.689   2.823  0.00  0.00    +0.160 HD
ENDROOT
BRANCH   1  24
ATOM     23  N   UNL     1      -0.386   1.387   2.414  0.00  0.00    -0.302 N 
ATOM     24  C   UNL     1      -1.538   1.713   1.793  0.00  0.00    +0.235 C 
ATOM     25  O   UNL     1      -2.233   0.845   1.311  0.00  0.00    -0.274 OA
ATOM     26  H   UNL     1       0.134   2.072   2.862  0.00  0.00    +0.150 HD
BRANCH  23  27
ATOM     27  C   UNL     1       0.080  -0.002   2.410  0.00  0.00    +0.159 C 
BRANCH  27  28
ATOM     28  C   UNL     1       0.899  -0.260   3.648  0.00  0.00    +0.233 C 
ATOM     29  O   UNL     1       1.370   0.669   4.269  0.00  0.00    -0.274 OA
ATOM     30  N   UNL     1       1.107  -1.524   4.067  0.00  0.00    -0.311 N 
ATOM     31  H   UNL     1       0.791  -2.270   3.534  0.00  0.00    +0.149 HD
BRANCH  30  32
ATOM     32  C   UNL     1       1.812  -1.772   5.327  0.00  0.00    +0.135 C 
BRANCH  32  33
ATOM     33  C   UNL     1       1.914  -3.279   5.567  0.00  0.00    +0.135 C 
ATOM     34  C   UNL     1       2.626  -3.563   6.913  0.00  0.00    +0.035 C 
ATOM     35  C   UNL     1       2.063  -4.970   7.254  0.00  0.00    +0.031 C 
ATOM     36  C   UNL     1       0.628  -4.895   6.689  0.00  0.00    +0.160 C 
ATOM     37  O   UNL     1       0.604  -3.853   5.705  0.00  0.00    -0.375 OA
ENDBRANCH  32  33
ENDBRANCH  30  32
ENDBRANCH  27  28
BRANCH  27  38
ATOM     38  C   UNL     1       0.940  -0.248   1.169  0.00  0.00    +0.034 C 
BRANCH  38  40
ATOM     39  C   UNL     1       0.061  -2.563   0.844  0.00  0.00    +0.007 C 
ATOM     40  C   UNL     1       1.318  -1.728   1.095  0.00  0.00    -0.015 C 
ATOM     41  C   UNL     1       2.311  -1.946  -0.048  0.00  0.00    +0.007 C 
ENDBRANCH  38  40
ENDBRANCH  27  38
ENDBRANCH  23  27
ENDBRANCH   1  24
TORSDOF 7
