REMARK  Name = ZINC18196519
REMARK  6 active torsions:
REMARK  status: ('A' for Active; 'I' for Inactive)
REMARK    1  A    between atoms: C_1  and  N_2
REMARK    2  A    between atoms: N_2  and  C_3
REMARK    3  A    between atoms: N_2  and  C_4
REMARK    4  A    between atoms: C_7  and  C_10
REMARK    5  A    between atoms: C_17  and  O_18
REMARK    6  A    between atoms: C_25  and  C_28
REMARK                            x       y       z     vdW  Elec       q    Type
REMARK                         _______ _______ _______ _____ _____    ______ ____
ROOT
ATOM      1  C   UNL     1       2.452   3.934   0.006  0.00  0.00    +0.092 C 
ATOM      2  C   UNL     1       2.525   4.802   1.230  0.00  0.00    +0.067 A 
ATOM      3  C   UNL     1       2.363   6.160   1.178  0.00  0.00    +0.126 A 
ATOM      4  N   UNL     1       2.481   6.637   2.432  0.00  0.00    -0.260 N 
ATOM      5  H   UNL     1       2.408   7.595   2.708  0.00  0.00    +0.190 HD
ATOM      6  N   UNL     1       2.726   5.549   3.282  0.00  0.00    -0.134 NA
ATOM      7  C   UNL     1       2.752   4.452   2.558  0.00  0.00    +0.237 A 
ATOM      8  N   UNL     1       2.123   6.815  -0.024  0.00  0.00    -0.303 N 
ATOM      9  C   UNL     1       2.347   6.137  -1.196  0.00  0.00    +0.017 C 
ATOM     10  C   UNL     1       2.519   4.798  -1.235  0.00  0.00    +0.024 C 
ATOM     11  C   UNL     1       2.773   4.139  -2.451  0.00  0.00    +0.162 C 
ATOM     12  O   UNL     1       2.917   2.932  -2.454  0.00  0.00    -0.292 OA
ATOM     13  C   UNL     1       2.872   4.893  -3.748  0.00  0.00    +0.088 C 
ATOM     14  C   UNL     1       3.363   6.315  -3.459  0.00  0.00    +0.039 C 
ATOM     15  C   UNL     1       2.400   6.962  -2.462  0.00  0.00    +0.060 C 
ATOM     16  H   UNL     1       1.805   7.731  -0.034  0.00  0.00    +0.153 HD
ENDROOT
BRANCH   1  20
ATOM     17  C   UNL     1      -1.224   1.755   0.019  0.00  0.00    +0.029 A 
ATOM     18  C   UNL     1      -0.013   1.076   0.024  0.00  0.00    +0.023 A 
ATOM     19  C   UNL     1       1.174   1.783   0.018  0.00  0.00    +0.006 A 
ATOM     20  C   UNL     1       1.156   3.166   0.012  0.00  0.00    -0.035 A 
ATOM     21  C   UNL     1      -0.049   3.845   0.013  0.00  0.00    +0.006 A 
ATOM     22  C   UNL     1      -1.239   3.144   0.018  0.00  0.00    +0.023 A 
BRANCH  17  24
ATOM     23  C   UNL     1      -2.412  -0.418  -0.101  0.00  0.00    +0.129 C 
ATOM     24  N   UNL     1      -2.426   1.042   0.019  0.00  0.00    -0.336 N 
ATOM     25  C   UNL     1      -3.700   1.755   0.140  0.00  0.00    +0.129 C 
ENDBRANCH  17  24
ENDBRANCH   1  20
BRANCH  14  26
ATOM     26  C   UNL     1       3.385   7.115  -4.736  0.00  0.00    -0.006 A 
ATOM     27  C   UNL     1       4.432   7.726  -5.343  0.00  0.00    +0.011 A 
ATOM     28  C   UNL     1       4.216   8.408  -6.525  0.00  0.00    +0.008 A 
ATOM     29  C   UNL     1       2.962   8.456  -7.038  0.00  0.00    +0.045 A 
ATOM     30  S   UNL     1       2.038   7.509  -5.839  0.00  0.00    -0.101 S 
ENDBRANCH  14  26
BRANCH   7  31
ATOM     31  O   UNL     1       2.964   3.192   3.025  0.00  0.00    -0.491 OA
ATOM     32  H   UNL     1       3.099   3.223   4.015  0.00  0.00    +0.294 HD
ENDBRANCH   7  31
TORSDOF 4
