REMARK  Name = ZINC67331707
REMARK  7 active torsions:
REMARK  status: ('A' for Active; 'I' for Inactive)
REMARK    1  A    between atoms: C_4  and  C_7
REMARK    2  A    between atoms: C_7  and  C_8
REMARK    3  A    between atoms: C_8  and  C_10
REMARK    4  A    between atoms: C_8  and  N_22
REMARK    5  A    between atoms: N_12  and  C_13
REMARK    6  A    between atoms: C_13  and  C_14
REMARK    7  A    between atoms: C_14  and  C_15
REMARK                            x       y       z     vdW  Elec       q    Type
REMARK                         _______ _______ _______ _____ _____    ______ ____
ROOT
ATOM      1  C   UNL     1       4.171  -0.963   1.399  0.00  0.00    +0.165 C 
ENDROOT
BRANCH   1   2
ATOM      2  N   UNL     1       4.451   0.315   2.057  0.00  0.00    -0.288 N 
ATOM      3  C   UNL     1       5.392   1.140   1.556  0.00  0.00    +0.298 C 
ATOM      4  O   UNL     1       6.009   0.822   0.557  0.00  0.00    -0.253 OA
ATOM      5  N   UNL     1       5.649   2.316   2.162  0.00  0.00    -0.313 N 
ATOM      6  H   UNL     1       3.959   0.568   2.854  0.00  0.00    +0.151 HD
ATOM      7  H   UNL     1       5.157   2.569   2.959  0.00  0.00    +0.146 HD
ATOM      8  H   UNL     1       6.327   2.909   1.801  0.00  0.00    +0.146 HD
ENDBRANCH   1   2
BRANCH   1   9
ATOM      9  C   UNL     1       5.422  -1.804   1.383  0.00  0.00    +0.234 C 
ATOM     10  O   UNL     1       6.506  -1.282   1.528  0.00  0.00    -0.274 OA
ATOM     11  N   UNL     1       5.334  -3.138   1.209  0.00  0.00    -0.313 N 
ATOM     12  H   UNL     1       4.467  -3.557   1.094  0.00  0.00    +0.149 HD
BRANCH  11  13
ATOM     13  C   UNL     1       6.550  -3.956   1.194  0.00  0.00    +0.109 C 
BRANCH  13  14
ATOM     14  C   UNL     1       6.174  -5.424   0.982  0.00  0.00    +0.055 C 
BRANCH  14  15
ATOM     15  C   UNL     1       7.424  -6.265   0.967  0.00  0.00    -0.028 A 
ATOM     16  C   UNL     1       8.029  -6.583  -0.235  0.00  0.00    +0.005 A 
ATOM     17  C   UNL     1       9.175  -7.355  -0.249  0.00  0.00    +0.000 A 
ATOM     18  C   UNL     1       9.719  -7.809   0.938  0.00  0.00    +0.001 A 
ATOM     19  C   UNL     1       9.116  -7.491   2.140  0.00  0.00    +0.020 A 
ATOM     20  C   UNL     1       7.971  -6.714   2.156  0.00  0.00    +0.044 A 
ATOM     21 CL   UNL     1       7.216  -6.310   3.666  0.00  0.00    -0.083 Cl
ENDBRANCH  14  15
ENDBRANCH  13  14
ENDBRANCH  11  13
ENDBRANCH   1   9
BRANCH   1  22
ATOM     22  C   UNL     1       3.711  -0.707  -0.038  0.00  0.00    +0.067 C 
BRANCH  22  26
ATOM     23  C   UNL     1      -0.017   1.378   0.010  0.00  0.00    +0.000 A 
ATOM     24  C   UNL     1       1.171   2.086   0.002  0.00  0.00    +0.000 A 
ATOM     25  C   UNL     1       2.377   1.411  -0.013  0.00  0.00    +0.004 A 
ATOM     26  C   UNL     1       2.396   0.029  -0.020  0.00  0.00    -0.045 A 
ATOM     27  C   UNL     1       1.208  -0.679  -0.012  0.00  0.00    +0.004 A 
ATOM     28  C   UNL     1       0.002  -0.004   0.002  0.00  0.00    +0.000 A 
ENDBRANCH  22  26
ENDBRANCH   1  22
TORSDOF 7
