REMARK  Name = ZINC22121981
REMARK  3 active torsions:
REMARK  status: ('A' for Active; 'I' for Inactive)
REMARK    1  A    between atoms: C_1  and  C_2
REMARK    2  A    between atoms: C_3  and  N_11
REMARK    3  A    between atoms: C_4  and  N_10
REMARK                            x       y       z     vdW  Elec       q    Type
REMARK                         _______ _______ _______ _____ _____    ______ ____
ROOT
ATOM      1  C   UNL     1       1.017   3.575   0.323  0.00  0.00    +0.047 C 
ATOM      2  C   UNL     1       1.109   2.080   0.152  0.00  0.00    -0.008 A 
ATOM      3  C   UNL     1       2.348   1.471   0.033  0.00  0.00    +0.055 A 
ATOM      4  C   UNL     1       2.429   0.088  -0.125  0.00  0.00    +0.048 A 
ATOM      5  C   UNL     1       1.269  -0.671  -0.163  0.00  0.00    +0.046 A 
ATOM      6  C   UNL     1       0.035  -0.056  -0.044  0.00  0.00    +0.061 A 
ATOM      7  C   UNL     1      -0.045   1.317   0.113  0.00  0.00    +0.064 A 
ATOM      8 CL   UNL     1      -1.596   2.083   0.255  0.00  0.00    -0.082 Cl
ATOM      9 CL   UNL     1      -1.415  -1.008  -0.092  0.00  0.00    -0.082 Cl
ENDROOT
BRANCH   3  10
ATOM     10  N   UNL     1       3.517   2.242   0.072  0.00  0.00    -0.328 N 
ATOM     11  C   UNL     1       4.231   2.181  -1.210  0.00  0.00    +0.105 C 
ATOM     12  C   UNL     1       5.418   3.145  -1.181  0.00  0.00    +0.019 C 
ATOM     13  C   UNL     1       6.356   2.758  -0.034  0.00  0.00    +0.003 C 
ATOM     14  C   UNL     1       5.576   2.783   1.283  0.00  0.00    +0.019 C 
ATOM     15  C   UNL     1       4.384   1.829   1.183  0.00  0.00    +0.105 C 
ENDBRANCH   3  10
BRANCH   4  16
ATOM     16  N   UNL     1       3.679  -0.533  -0.247  0.00  0.00    -0.356 N 
ATOM     17  H   UNL     1       3.741  -1.625  -0.372  0.00  0.00    +0.142 HD
ATOM     18  H   UNL     1       4.598   0.070  -0.217  0.00  0.00    +0.142 HD
ENDBRANCH   4  16
TORSDOF 2
