REMARK  Name = ZINC40481183
REMARK  7 active torsions:
REMARK  status: ('A' for Active; 'I' for Inactive)
REMARK    1  A    between atoms: C_1  and  C_2
REMARK    2  A    between atoms: C_2  and  C_3
REMARK    3  A    between atoms: C_3  and  C_4
REMARK    4  A    between atoms: C_4  and  C_6
REMARK    5  A    between atoms: C_4  and  N_20
REMARK    6  A    between atoms: N_8  and  C_9
REMARK    7  A    between atoms: C_10  and  C_17
REMARK                            x       y       z     vdW  Elec       q    Type
REMARK                         _______ _______ _______ _____ _____    ______ ____
ROOT
ATOM      1  C   UNL     1       1.010  -3.026   2.440  0.00  0.00    +0.203 C 
ATOM      2  O   UNL     1       1.877  -3.869   2.344  0.00  0.00    -0.277 OA
ATOM      3  N   UNL     1       0.650  -2.565   3.654  0.00  0.00    -0.285 N 
ATOM      4  H   UNL     1       0.016  -1.835   3.727  0.00  0.00    +0.155 HD
ENDROOT
BRANCH   3   5
ATOM      5  C   UNL     1       1.188  -3.138   4.804  0.00  0.00    +0.066 A 
ATOM      6  C   UNL     1       0.342  -3.595   5.827  0.00  0.00    +0.087 A 
ATOM      7  C   UNL     1       0.896  -4.168   6.976  0.00  0.00    +0.037 A 
ATOM      8  C   UNL     1       2.264  -4.279   7.098  0.00  0.00    +0.043 A 
ATOM      9  C   UNL     1       3.097  -3.826   6.087  0.00  0.00    +0.042 A 
ATOM     10  C   UNL     1       2.565  -3.263   4.942  0.00  0.00    +0.064 A 
ATOM     11 CL   UNL     1       3.618  -2.707   3.679  0.00  0.00    -0.082 Cl
ATOM     12 CL   UNL     1       2.949  -4.991   8.526  0.00  0.00    -0.083 Cl
BRANCH   6  13
ATOM     13  C   UNL     1      -1.118  -3.473   5.690  0.00  0.00    +0.388 C 
ATOM     14  O   UNL     1      -1.847  -3.776   6.625  0.00  0.00    -0.241 OA
ATOM     15  O   UNL     1      -1.603  -3.068   4.643  0.00  0.00    -0.241 OA
ENDBRANCH   6  13
ENDBRANCH   3   5
BRANCH   1  16
ATOM     16  C   UNL     1       0.336  -2.494   1.202  0.00  0.00    +0.013 C 
BRANCH  16  17
ATOM     17  N   UNL     1       0.527  -3.441   0.095  0.00  0.00    +0.386 N 
ATOM     18  H   UNL     1       1.513  -3.556  -0.082  0.00  0.00    -0.089 HD
ATOM     19  H   UNL     1       0.123  -4.332   0.341  0.00  0.00    -0.089 HD
ATOM     20  H   UNL     1       0.075  -3.084  -0.734  0.00  0.00    -0.089 HD
ENDBRANCH  16  17
BRANCH  16  21
ATOM     21  C   UNL     1       0.949  -1.143   0.828  0.00  0.00    -0.007 C 
BRANCH  21  23
ATOM     22  C   UNL     1       0.795   0.807  -0.726  0.00  0.00    +0.004 C 
ATOM     23  C   UNL     1       0.182  -0.544  -0.353  0.00  0.00    -0.005 C 
ENDBRANCH  21  23
ENDBRANCH  16  21
ENDBRANCH   1  16
TORSDOF 6
