REMARK  Name = ZINC06273315
REMARK  13 active torsions:
REMARK  status: ('A' for Active; 'I' for Inactive)
REMARK    1  A    between atoms: C_1  and  C_2
REMARK    2  A    between atoms: C_2  and  C_3
REMARK    3  A    between atoms: C_3  and  C_4
REMARK    4  A    between atoms: C_4  and  C_5
REMARK    5  A    between atoms: C_5  and  C_6
REMARK    6  A    between atoms: C_6  and  C_7
REMARK    7  A    between atoms: C_7  and  C_9
REMARK    8  A    between atoms: C_7  and  N_10
REMARK    9  A    between atoms: C_11  and  C_13
REMARK   10  A    between atoms: C_16  and  C_18
REMARK   11  A    between atoms: C_18  and  C_20
REMARK   12  A    between atoms: C_18  and  N_58
REMARK   13  A    between atoms: C_20  and  C_21
REMARK                            x       y       z     vdW  Elec       q    Type
REMARK                         _______ _______ _______ _____ _____    ______ ____
ROOT
ATOM      1  C   UNL     1       3.549   1.718  -0.194  0.00  0.00    +0.163 A 
ATOM      2  C   UNL     1       3.102   2.951   0.170  0.00  0.00    +0.230 A 
ATOM      3  O   UNL     1       1.767   2.865   0.284  0.00  0.00    -0.449 OA
ATOM      4  C   UNL     1       1.401   1.607  -0.003  0.00  0.00    +0.182 A 
ATOM      5  N   UNL     1       2.459   0.908  -0.286  0.00  0.00    -0.210 NA
ENDROOT
BRANCH   1   7
ATOM      6  N   UNL     1       5.248   0.066  -0.794  0.00  0.00    -0.307 N 
ATOM      7  C   UNL     1       4.950   1.331  -0.437  0.00  0.00    +0.266 C 
ATOM      8  O   UNL     1       5.838   2.153  -0.315  0.00  0.00    -0.268 OA
ATOM      9  H   UNL     1       4.540  -0.590  -0.891  0.00  0.00    +0.149 HD
BRANCH   6  10
ATOM     10  C   UNL     1       6.641  -0.319  -1.036  0.00  0.00    +0.070 C 
ATOM     11  C   UNL     1       7.021   0.022  -2.478  0.00  0.00    +0.028 C 
BRANCH  10  12
ATOM     12  C   UNL     1       6.801  -1.823  -0.807  0.00  0.00    +0.022 C 
BRANCH  12  13
ATOM     13  C   UNL     1       6.542  -2.146   0.665  0.00  0.00    +0.002 C 
BRANCH  13  14
ATOM     14  C   UNL     1       6.703  -3.651   0.893  0.00  0.00    +0.000 C 
BRANCH  14  15
ATOM     15  C   UNL     1       6.443  -3.974   2.366  0.00  0.00    -0.000 C 
BRANCH  15  17
ATOM     16  C   UNL     1       6.344  -5.801   4.067  0.00  0.00    +0.004 C 
ATOM     17  C   UNL     1       6.604  -5.478   2.594  0.00  0.00    -0.003 C 
ENDBRANCH  15  17
ENDBRANCH  14  15
ENDBRANCH  13  14
ENDBRANCH  12  13
ENDBRANCH  10  12
ENDBRANCH   6  10
ENDBRANCH   1   7
BRANCH   4  18
ATOM     18  C   UNL     1      -0.013   1.086   0.008  0.00  0.00    +0.017 C 
BRANCH  18  21
ATOM     19  H   UNL     1      -0.269   1.185   2.048  0.00  0.00    -0.089 HD
ATOM     20  H   UNL     1      -0.727   2.568   1.246  0.00  0.00    -0.089 HD
ATOM     21  N   UNL     1      -0.723   1.550   1.213  0.00  0.00    +0.386 N 
ATOM     22  H   UNL     1      -1.692   1.212   1.184  0.00  0.00    -0.089 HD
ENDBRANCH  18  21
BRANCH  18  23
ATOM     23  C   UNL     1      -0.753   1.593  -1.232  0.00  0.00    +0.030 C 
BRANCH  23  24
ATOM     24  C   UNL     1      -2.126   0.973  -1.285  0.00  0.00    -0.023 A 
ATOM     25  C   UNL     1      -2.479  -0.127  -1.969  0.00  0.00    +0.087 A 
ATOM     26  N   UNL     1      -3.808  -0.388  -1.777  0.00  0.00    -0.360 N 
ATOM     27  H   UNL     1      -4.292  -1.132  -2.168  0.00  0.00    +0.165 HD
ATOM     28  C   UNL     1      -4.359   0.567  -0.951  0.00  0.00    +0.047 A 
ATOM     29  C   UNL     1      -3.329   1.461  -0.607  0.00  0.00    +0.003 A 
ATOM     30  C   UNL     1      -3.598   2.544   0.232  0.00  0.00    +0.010 A 
ATOM     31  C   UNL     1      -4.862   2.729   0.716  0.00  0.00    +0.001 A 
ATOM     32  C   UNL     1      -5.882   1.850   0.379  0.00  0.00    +0.002 A 
ATOM     33  C   UNL     1      -5.638   0.775  -0.447  0.00  0.00    +0.026 A 
ENDBRANCH  23  24
ENDBRANCH  18  23
ENDBRANCH   4  18
TORSDOF 11
