REMARK  Name = ZINC36057459
REMARK  2 active torsions:
REMARK  status: ('A' for Active; 'I' for Inactive)
REMARK    1  A    between atoms: C_4  and  C_8
REMARK    2  A    between atoms: C_11  and  N_13
REMARK                            x       y       z     vdW  Elec       q    Type
REMARK                         _______ _______ _______ _____ _____    ______ ____
ROOT
ATOM      1  C   UNL     1       3.692  -0.653  -0.040  0.00  0.00    +0.082 A 
ATOM      2  C   UNL     1       3.708  -2.019  -0.051  0.00  0.00    +0.077 A 
ATOM      3  S   UNL     1       5.468  -2.334  -0.066  0.00  0.00    -0.056 S 
ATOM      4  C   UNL     1       6.000  -0.627  -0.056  0.00  0.00    +0.196 A 
ATOM      5  N   UNL     1       4.838   0.012  -0.048  0.00  0.00    -0.221 NA
ENDROOT
BRANCH   1   9
ATOM      6  C   UNL     1      -0.005   1.450   0.002  0.00  0.00    +0.021 A 
ATOM      7  C   UNL     1       1.187   2.152  -0.006  0.00  0.00    +0.022 A 
ATOM      8  C   UNL     1       2.390   1.475  -0.019  0.00  0.00    +0.050 A 
ATOM      9  C   UNL     1       2.403   0.080  -0.025  0.00  0.00    +0.021 A 
ATOM     10  C   UNL     1       1.199  -0.622  -0.018  0.00  0.00    +0.031 A 
ATOM     11  C   UNL     1       0.002   0.066  -0.005  0.00  0.00    +0.042 A 
ATOM     12 CL   UNL     1      -1.499  -0.807   0.004  0.00  0.00    -0.084 Cl
ATOM     13 CL   UNL     1       3.885   2.358  -0.028  0.00  0.00    -0.083 Cl
ENDBRANCH   1   9
BRANCH   4  14
ATOM     14  N   UNL     1       7.261  -0.120  -0.059  0.00  0.00    -0.189 NA
ATOM     15  C   UNL     1       7.840   0.214   1.075  0.00  0.00    +0.195 C 
ATOM     16  N   UNL     1       7.216  -0.051   2.266  0.00  0.00    -0.370 N 
ATOM     17  N   UNL     1       9.065   0.828   1.064  0.00  0.00    -0.370 N 
ATOM     18  H   UNL     1       6.386  -0.552   2.278  0.00  0.00    +0.159 HD
ATOM     19  H   UNL     1       9.506   1.016   0.221  0.00  0.00    +0.159 HD
ATOM     20  H   UNL     1       9.492   1.074   1.900  0.00  0.00    +0.159 HD
ATOM     21  H   UNL     1       7.606   0.262   3.097  0.00  0.00    +0.159 HD
ENDBRANCH   4  14
TORSDOF 2
