REMARK  Name = ZINC14708782
REMARK  12 active torsions:
REMARK  status: ('A' for Active; 'I' for Inactive)
REMARK    1  A    between atoms: C_1  and  C_2
REMARK    2  A    between atoms: C_2  and  C_36
REMARK    3  A    between atoms: C_3  and  C_4
REMARK    4  A    between atoms: C_4  and  O_5
REMARK    5  A    between atoms: O_5  and  C_6
REMARK    6  A    between atoms: C_8  and  C_22
REMARK    7  A    between atoms: C_13  and  C_20
REMARK    8  A    between atoms: C_13  and  C_21
REMARK    9  A    between atoms: C_14  and  O_19
REMARK   10  A    between atoms: C_16  and  O_18
REMARK   11  A    between atoms: C_28  and  O_35
REMARK   12  A    between atoms: C_30  and  O_34
REMARK                            x       y       z     vdW  Elec       q    Type
REMARK                         _______ _______ _______ _____ _____    ______ ____
ROOT
ATOM      1  C   UNL     1      -2.366   3.947   0.964  0.00  0.00    +0.163 A 
ATOM      2  C   UNL     1      -3.506   3.622   0.250  0.00  0.00    +0.056 A 
ATOM      3  C   UNL     1      -4.636   4.410   0.359  0.00  0.00    -0.003 A 
ATOM      4  C   UNL     1      -4.626   5.522   1.178  0.00  0.00    +0.017 A 
ATOM      5  C   UNL     1      -3.488   5.856   1.894  0.00  0.00    +0.029 A 
ATOM      6  C   UNL     1      -2.357   5.066   1.797  0.00  0.00    +0.169 A 
ATOM      7  O   UNL     1      -1.224   5.348   2.494  0.00  0.00    -0.480 OA
ATOM      8  C   UNL     1      -1.083   6.662   3.036  0.00  0.00    +0.134 C 
ATOM      9  C   UNL     1      -2.373   7.014   3.789  0.00  0.00    +0.190 C 
ATOM     10  C   UNL     1      -3.515   7.084   2.768  0.00  0.00    +0.180 C 
ATOM     11  C   UNL     1       0.103   6.696   4.001  0.00  0.00    +0.058 C 
ATOM     12  C   UNL     1      -0.856   7.665   1.904  0.00  0.00    +0.058 C 
ENDROOT
BRANCH   3  13
ATOM     13  C   UNL     1      -5.879   4.057  -0.416  0.00  0.00    +0.211 C 
ATOM     14  C   UNL     1      -6.700   3.027   0.373  0.00  0.00    +0.129 C 
ATOM     15  C   UNL     1      -7.917   2.683  -0.467  0.00  0.00    +0.174 C 
ATOM     16  O   UNL     1      -9.014   2.535   0.030  0.00  0.00    -0.292 OA
ATOM     17  C   UNL     1      -7.699   2.541  -1.911  0.00  0.00    +0.101 A 
ATOM     18  C   UNL     1      -8.690   1.982  -2.733  0.00  0.00    +0.134 A 
ATOM     19  C   UNL     1      -8.463   1.869  -4.093  0.00  0.00    +0.091 A 
ATOM     20  C   UNL     1      -7.260   2.304  -4.636  0.00  0.00    +0.124 A 
ATOM     21  C   UNL     1      -6.274   2.853  -3.827  0.00  0.00    +0.092 A 
ATOM     22  C   UNL     1      -6.480   2.975  -2.464  0.00  0.00    +0.139 A 
ATOM     23  O   UNL     1      -5.511   3.501  -1.679  0.00  0.00    -0.483 OA
BRANCH  20  24
ATOM     24  O   UNL     1      -7.047   2.191  -5.972  0.00  0.00    -0.507 OA
ATOM     25  H   UNL     1      -6.639   1.355  -6.236  0.00  0.00    +0.292 HD
ENDBRANCH  20  24
BRANCH  18  26
ATOM     26  O   UNL     1      -9.861   1.557  -2.198  0.00  0.00    -0.506 OA
ATOM     27  H   UNL     1     -10.550   2.236  -2.168  0.00  0.00    +0.292 HD
ENDBRANCH  18  26
ENDBRANCH   3  13
BRANCH  10  28
ATOM     28  O   UNL     1      -3.374   8.250   1.955  0.00  0.00    -0.384 OA
ATOM     29  H   UNL     1      -4.072   8.355   1.293  0.00  0.00    +0.210 HD
ENDBRANCH  10  28
BRANCH   9  30
ATOM     30  O   UNL     1      -2.649   6.011   4.768  0.00  0.00    -0.385 OA
ATOM     31  H   UNL     1      -3.452   6.172   5.282  0.00  0.00    +0.210 HD
ENDBRANCH   9  30
BRANCH   1  32
ATOM     32  O   UNL     1      -1.254   3.172   0.858  0.00  0.00    -0.484 OA
BRANCH  32  33
ATOM     33  C   UNL     1      -1.334   2.038  -0.008  0.00  0.00    +0.257 C 
BRANCH  33  36
ATOM     34  C   UNL     1       1.310  -0.745  -0.025  0.00  0.00    +0.038 C 
ATOM     35  C   UNL     1       0.004  -0.002   0.096  0.00  0.00    -0.076 C 
ATOM     36  C   UNL     1      -0.017   1.304   0.002  0.00  0.00    +0.012 C 
ATOM     37  C   UNL     1      -1.277  -0.762   0.325  0.00  0.00    +0.038 C 
ENDBRANCH  33  36
ENDBRANCH  32  33
ENDBRANCH   1  32
TORSDOF 8
