REMARK  Name = ZINC13632925
REMARK  6 active torsions:
REMARK  status: ('A' for Active; 'I' for Inactive)
REMARK    1  A    between atoms: C_4  and  C_7
REMARK    2  A    between atoms: C_12  and  S_30
REMARK    3  A    between atoms: C_20  and  S_25
REMARK    4  A    between atoms: S_25  and  N_28
REMARK    5  A    between atoms: S_30  and  C_31
REMARK    6  A    between atoms: C_36  and  N_37
REMARK                            x       y       z     vdW  Elec       q    Type
REMARK                         _______ _______ _______ _____ _____    ______ ____
ROOT
ATOM      1  C   UNL     1       3.663   3.255  -0.035  0.00  0.00    +0.104 C 
ATOM      2  C   UNL     1       3.486   1.957  -0.803  0.00  0.00    +0.024 C 
ATOM      3  C   UNL     1       4.702   1.030  -0.877  0.00  0.00    +0.022 C 
ATOM      4  C   UNL     1       4.060  -0.357  -1.159  0.00  0.00    +0.070 C 
ATOM      5  C   UNL     1       2.605  -0.280  -0.628  0.00  0.00    +0.101 C 
ATOM      6  C   UNL     1       2.491   1.092   0.018  0.00  0.00    +0.045 C 
ATOM      7  C   UNL     1       1.173   1.779   0.000  0.00  0.00    -0.020 A 
ATOM      8  C   UNL     1      -0.013   1.076   0.008  0.00  0.00    +0.034 A 
ATOM      9  C   UNL     1      -1.221   1.748   0.017  0.00  0.00    +0.105 A 
ATOM     10  C   UNL     1      -1.242   3.131   0.030  0.00  0.00    +0.030 A 
ATOM     11  C   UNL     1      -0.060   3.842   0.016  0.00  0.00    +0.025 A 
ATOM     12  C   UNL     1       1.160   3.175  -0.006  0.00  0.00    +0.031 A 
ATOM     13  N   UNL     1       2.344   3.921  -0.055  0.00  0.00    -0.336 N 
ATOM     14 CL   UNL     1       2.314  -1.574   0.593  0.00  0.00    -0.120 Cl
ATOM     15  H   UNL     1       2.298   4.888  -0.104  0.00  0.00    +0.147 HD
ENDROOT
BRANCH   1  19
ATOM     16  C   UNL     1       6.584   5.713  -1.952  0.00  0.00    +0.000 A 
ATOM     17  C   UNL     1       6.912   5.018  -0.803  0.00  0.00    +0.000 A 
ATOM     18  C   UNL     1       5.967   4.222  -0.183  0.00  0.00    +0.005 A 
ATOM     19  C   UNL     1       4.694   4.122  -0.711  0.00  0.00    -0.027 A 
ATOM     20  C   UNL     1       4.367   4.813  -1.863  0.00  0.00    +0.005 A 
ATOM     21  C   UNL     1       5.311   5.612  -2.481  0.00  0.00    +0.000 A 
ENDBRANCH   1  19
BRANCH   9  22
ATOM     22  S   UNL     1      -2.733   0.844   0.019  0.00  0.00    +0.056 S 
ATOM     23  O   UNL     1      -3.723   1.707  -0.522  0.00  0.00    -0.153 OA
ATOM     24  O   UNL     1      -2.445  -0.431  -0.540  0.00  0.00    -0.153 OA
BRANCH  22  25
ATOM     25  N   UNL     1      -3.146   0.583   1.602  0.00  0.00    -0.204 NA
ATOM     26  H   UNL     1      -4.080   0.512   1.854  0.00  0.00    +0.144 HD
ATOM     27  H   UNL     1      -2.454   0.502   2.277  0.00  0.00    +0.144 HD
ENDBRANCH  22  25
ENDBRANCH   9  22
BRANCH   4  28
ATOM     28  S   UNL     1       4.974  -1.657  -0.283  0.00  0.00    -0.118 S 
BRANCH  28  29
ATOM     29  C   UNL     1       4.183  -3.148  -0.789  0.00  0.00    +0.038 A 
ATOM     30  C   UNL     1       3.108  -3.103  -1.668  0.00  0.00    +0.017 A 
ATOM     31  C   UNL     1       2.495  -4.274  -2.067  0.00  0.00    +0.001 A 
ATOM     32  C   UNL     1       2.942  -5.490  -1.583  0.00  0.00    +0.002 A 
ATOM     33  C   UNL     1       4.007  -5.539  -0.703  0.00  0.00    +0.034 A 
ATOM     34  C   UNL     1       4.630  -4.372  -0.305  0.00  0.00    +0.140 A 
BRANCH  34  35
ATOM     35  N   UNL     1       5.771  -4.425   0.637  0.00  0.00    +0.058 N 
ATOM     36  O   UNL     1       6.161  -5.498   1.060  0.00  0.00    -0.126 OA
ATOM     37  O   UNL     1       6.319  -3.395   0.987  0.00  0.00    -0.126 OA
ENDBRANCH  34  35
ENDBRANCH  28  29
ENDBRANCH   4  28
TORSDOF 6
