REMARK  Name = ZINC36359267
REMARK  2 active torsions:
REMARK  status: ('A' for Active; 'I' for Inactive)
REMARK    1  A    between atoms: C_6  and  C_7
REMARK    2  A    between atoms: N_17  and  C_18
REMARK                            x       y       z     vdW  Elec       q    Type
REMARK                         _______ _______ _______ _____ _____    ______ ____
ROOT
ATOM      1  C   UNL     1      -1.293  -0.775   0.010  0.00  0.00    +0.080 C 
ATOM      2  C   UNL     1      -1.350  -1.674   1.248  0.00  0.00    +0.110 C 
ATOM      3  C   UNL     1      -0.473  -2.883   1.090  0.00  0.00    +0.219 C 
ATOM      4  O   UNL     1       0.120  -3.309   2.058  0.00  0.00    -0.275 OA
ATOM      5  N   UNL     1      -0.326  -3.512  -0.097  0.00  0.00    -0.270 N 
ATOM      6  C   UNL     1      -0.907  -2.929  -1.223  0.00  0.00    +0.133 A 
ATOM      7  C   UNL     1      -1.373  -1.647  -1.217  0.00  0.00    +0.089 A 
ATOM      8  N   UNL     1      -1.863  -1.377  -2.425  0.00  0.00    -0.238 NA
ATOM      9  C   UNL     1      -1.730  -2.430  -3.191  0.00  0.00    +0.205 A 
ATOM     10  N   UNL     1      -1.133  -3.428  -2.468  0.00  0.00    -0.287 N 
ATOM     11  H   UNL     1       0.170  -4.343  -0.163  0.00  0.00    +0.156 HD
ENDROOT
BRANCH   1  17
ATOM     12  C   UNL     1      -0.017   1.378   0.010  0.00  0.00    +0.007 A 
ATOM     13  C   UNL     1       1.170   2.086   0.002  0.00  0.00    +0.038 A 
ATOM     14  C   UNL     1       2.379   1.410  -0.013  0.00  0.00    +0.123 A 
ATOM     15  C   UNL     1       2.396   0.026  -0.021  0.00  0.00    +0.038 A 
ATOM     16  C   UNL     1       1.208  -0.680  -0.013  0.00  0.00    +0.007 A 
ATOM     17  C   UNL     1       0.002  -0.004   0.002  0.00  0.00    -0.038 A 
ATOM     18  F   UNL     1       3.540   2.101  -0.021  0.00  0.00    -0.205 F 
ENDBRANCH   1  17
BRANCH  10  19
ATOM     19  C   UNL     1      -0.816  -4.716  -2.923  0.00  0.00    +0.049 A 
ATOM     20  C   UNL     1       0.457  -5.231  -2.719  0.00  0.00    +0.029 A 
ATOM     21  C   UNL     1       0.768  -6.500  -3.168  0.00  0.00    +0.040 A 
ATOM     22  C   UNL     1      -0.190  -7.258  -3.822  0.00  0.00    +0.124 A 
ATOM     23  C   UNL     1      -1.460  -6.745  -4.026  0.00  0.00    +0.040 A 
ATOM     24  C   UNL     1      -1.776  -5.480  -3.573  0.00  0.00    +0.029 A 
ATOM     25  F   UNL     1       0.116  -8.498  -4.260  0.00  0.00    -0.205 F 
ENDBRANCH  10  19
TORSDOF 2
