REMARK  Name = ZINC36495410
REMARK  16 active torsions:
REMARK  status: ('A' for Active; 'I' for Inactive)
REMARK    1  A    between atoms: C_1  and  C_2
REMARK    2  A    between atoms: C_4  and  C_15
REMARK    3  A    between atoms: C_12  and  C_13
REMARK    4  A    between atoms: C_12  and  C_14
REMARK    5  A    between atoms: N_17  and  C_18
REMARK    6  A    between atoms: N_17  and  C_24
REMARK    7  A    between atoms: C_18  and  C_19
REMARK    8  A    between atoms: C_24  and  C_26
REMARK    9  A    between atoms: C_24  and  C_35
REMARK   10  A    between atoms: C_27  and  O_34
REMARK   11  A    between atoms: C_29  and  O_33
REMARK   12  A    between atoms: C_31  and  O_32
REMARK   13  A    between atoms: N_37  and  C_38
REMARK   14  A    between atoms: C_38  and  C_39
REMARK   15  A    between atoms: C_38  and  C_40
REMARK   16  A    between atoms: C_38  and  C_41
REMARK                            x       y       z     vdW  Elec       q    Type
REMARK                         _______ _______ _______ _____ _____    ______ ____
ROOT
ATOM      1  C   UNL     1      -0.961  -3.249  -4.191  0.00  0.00    +0.200 C 
ENDROOT
BRANCH   1   2
ATOM      2  C   UNL     1      -0.631  -4.596  -3.599  0.00  0.00    +0.065 A 
ATOM      3  C   UNL     1       0.650  -4.853  -3.135  0.00  0.00    +0.129 A 
ATOM      4  C   UNL     1       0.954  -6.092  -2.590  0.00  0.00    +0.091 A 
ATOM      5  C   UNL     1      -0.023  -7.072  -2.510  0.00  0.00    +0.124 A 
ATOM      6  C   UNL     1      -1.304  -6.814  -2.973  0.00  0.00    +0.091 A 
ATOM      7  C   UNL     1      -1.609  -5.574  -3.514  0.00  0.00    +0.129 A 
BRANCH   7   8
ATOM      8  O   UNL     1      -2.866  -5.320  -3.964  0.00  0.00    -0.506 OA
ATOM      9  H   UNL     1      -3.003  -5.543  -4.895  0.00  0.00    +0.292 HD
ENDBRANCH   7   8
BRANCH   5  10
ATOM     10  O   UNL     1       0.276  -8.287  -1.977  0.00  0.00    -0.507 OA
ATOM     11  H   UNL     1       0.132  -8.343  -1.022  0.00  0.00    +0.292 HD
ENDBRANCH   5  10
BRANCH   3  12
ATOM     12  O   UNL     1       1.608  -3.892  -3.214  0.00  0.00    -0.506 OA
ATOM     13  H   UNL     1       1.715  -3.376  -2.403  0.00  0.00    +0.292 HD
ENDBRANCH   3  12
ENDBRANCH   1   2
BRANCH   1  14
ATOM     14  C   UNL     1      -0.333  -3.133  -5.556  0.00  0.00    +0.239 C 
ATOM     15  O   UNL     1       0.546  -2.320  -5.752  0.00  0.00    -0.273 OA
ATOM     16  N   UNL     1      -0.748  -3.932  -6.559  0.00  0.00    -0.309 N 
ATOM     17  H   UNL     1      -1.450  -4.582  -6.402  0.00  0.00    +0.149 HD
BRANCH  16  18
ATOM     18  C   UNL     1      -0.137  -3.819  -7.886  0.00  0.00    +0.026 C 
ATOM     19  C   UNL     1       1.363  -4.103  -7.783  0.00  0.00    +0.031 C 
ATOM     20  C   UNL     1      -0.784  -4.831  -8.833  0.00  0.00    +0.031 C 
ATOM     21  C   UNL     1      -0.352  -2.404  -8.427  0.00  0.00    +0.031 C 
ENDBRANCH  16  18
ENDBRANCH   1  14
BRANCH   1  24
ATOM     22  C   UNL     1      -1.133  -1.814  -2.230  0.00  0.00    +0.220 C 
ATOM     23  O   UNL     1      -2.138  -2.413  -1.912  0.00  0.00    -0.275 OA
ATOM     24  N   UNL     1      -0.439  -2.192  -3.322  0.00  0.00    -0.278 N 
BRANCH  22  27
ATOM     25  C   UNL     1      -2.038   1.351  -0.699  0.00  0.00    +0.008 C 
ATOM     26  C   UNL     1      -1.771  -0.137  -0.495  0.00  0.00    +0.001 C 
ATOM     27  C   UNL     1      -0.659  -0.646  -1.403  0.00  0.00    +0.079 C 
ATOM     28  C   UNL     1       0.616  -1.001  -0.647  0.00  0.00    +0.017 C 
ATOM     29  C   UNL     1       0.338  -1.364   0.814  0.00  0.00    -0.004 C 
ATOM     30  C   UNL     1      -1.051  -1.981   1.042  0.00  0.00    +0.008 C 
ATOM     31  C   UNL     1      -1.552  -0.514   0.966  0.00  0.00    -0.001 C 
ATOM     32  C   UNL     1      -0.209  -0.154   1.598  0.00  0.00    -0.029 C 
ATOM     33  C   UNL     1       0.414   1.186   1.218  0.00  0.00    +0.011 C 
ATOM     34  C   UNL     1      -0.171  -0.365   3.123  0.00  0.00    +0.011 C 
ENDBRANCH  22  27
BRANCH  24  35
ATOM     35  C   UNL     1       0.837  -1.546  -3.639  0.00  0.00    +0.183 C 
BRANCH  35  36
ATOM     36  C   UNL     1       0.577  -0.246  -4.355  0.00  0.00    +0.122 A 
ATOM     37  C   UNL     1       0.547   0.973  -3.786  0.00  0.00    +0.046 A 
ATOM     38  C   UNL     1       0.272   1.900  -4.818  0.00  0.00    +0.041 A 
ATOM     39  C   UNL     1       0.150   1.192  -5.955  0.00  0.00    +0.195 A 
ATOM     40  O   UNL     1       0.342  -0.106  -5.670  0.00  0.00    -0.466 OA
ENDBRANCH  35  36
ENDBRANCH  24  35
ENDBRANCH   1  24
TORSDOF 10
