REMARK  Name = ZINC12368811
REMARK  11 active torsions:
REMARK  status: ('A' for Active; 'I' for Inactive)
REMARK    1  A    between atoms: C_1  and  O_2
REMARK    2  A    between atoms: O_2  and  C_3
REMARK    3  A    between atoms: C_4  and  C_23
REMARK    4  A    between atoms: C_7  and  S_8
REMARK    5  A    between atoms: S_8  and  N_11
REMARK    6  A    between atoms: N_11  and  C_12
REMARK    7  A    between atoms: C_12  and  C_13
REMARK    8  A    between atoms: C_16  and  S_19
REMARK    9  A    between atoms: S_19  and  N_22
REMARK   10  A    between atoms: C_23  and  O_25
REMARK   11  A    between atoms: O_25  and  C_26
REMARK                            x       y       z     vdW  Elec       q    Type
REMARK                         _______ _______ _______ _____ _____    ______ ____
ROOT
ATOM      1  N   UNL     1      -6.328   0.020   5.361  0.00  0.00    -0.185 NA
ATOM      2  H   UNL     1      -6.803  -0.774   5.069  0.00  0.00    +0.148 HD
ENDROOT
BRANCH   1   3
ATOM      3  S   UNL     1      -6.352   1.389   4.429  0.00  0.00    +0.069 S 
ATOM      4  O   UNL     1      -6.683   2.465   5.296  0.00  0.00    -0.152 OA
ATOM      5  O   UNL     1      -7.117   1.079   3.273  0.00  0.00    -0.152 OA
BRANCH   3  10
ATOM      6  C   UNL     1      -4.101   1.222   2.759  0.00  0.00    +0.168 A 
ATOM      7  C   UNL     1      -2.726   1.610   2.551  0.00  0.00    +0.109 A 
ATOM      8  C   UNL     1      -2.146   2.405   3.521  0.00  0.00    +0.066 A 
ATOM      9  S   UNL     1      -3.422   2.629   4.669  0.00  0.00    -0.072 S 
ATOM     10  C   UNL     1      -4.702   1.674   3.880  0.00  0.00    +0.185 A 
BRANCH   6  12
ATOM     11  C   UNL     1      -4.689  -0.977   2.065  0.00  0.00    +0.277 C 
ATOM     12  O   UNL     1      -4.761   0.436   1.865  0.00  0.00    -0.492 OA
ENDBRANCH   6  12
BRANCH   7  13
ATOM     13  C   UNL     1      -1.975   1.173   1.366  0.00  0.00    +0.343 C 
ATOM     14  O   UNL     1      -2.511   0.469   0.532  0.00  0.00    -0.245 OA
BRANCH  13  15
ATOM     15  O   UNL     1      -0.692   1.554   1.203  0.00  0.00    -0.464 OA
ATOM     16  C   UNL     1      -0.013   1.086   0.008  0.00  0.00    +0.280 C 
ENDBRANCH  13  15
ENDBRANCH   7  13
ENDBRANCH   3  10
ENDBRANCH   1   3
BRANCH   1  17
ATOM     17  C   UNL     1      -5.589   0.008   6.626  0.00  0.00    +0.141 C 
BRANCH  17  18
ATOM     18  C   UNL     1      -6.013  -1.184   7.444  0.00  0.00    -0.032 A 
ATOM     19  C   UNL     1      -7.066  -1.073   8.333  0.00  0.00    +0.007 A 
ATOM     20  C   UNL     1      -7.458  -2.168   9.081  0.00  0.00    +0.029 A 
ATOM     21  C   UNL     1      -6.791  -3.371   8.946  0.00  0.00    +0.105 A 
ATOM     22  C   UNL     1      -5.735  -3.481   8.060  0.00  0.00    +0.029 A 
ATOM     23  C   UNL     1      -5.346  -2.388   7.310  0.00  0.00    +0.007 A 
BRANCH  21  24
ATOM     24  S   UNL     1      -7.288  -4.766   9.902  0.00  0.00    +0.056 S 
ATOM     25  O   UNL     1      -8.648  -4.553  10.254  0.00  0.00    -0.153 OA
ATOM     26  O   UNL     1      -6.857  -5.919   9.192  0.00  0.00    -0.153 OA
BRANCH  24  27
ATOM     27  N   UNL     1      -6.422  -4.726  11.312  0.00  0.00    -0.204 NA
ATOM     28  H   UNL     1      -6.803  -5.092  12.126  0.00  0.00    +0.144 HD
ATOM     29  H   UNL     1      -5.533  -4.337  11.325  0.00  0.00    +0.144 HD
ENDBRANCH  24  27
ENDBRANCH  21  24
ENDBRANCH  17  18
ENDBRANCH   1  17
TORSDOF 9
