REMARK  Name = ZINC17665399
REMARK  10 active torsions:
REMARK  status: ('A' for Active; 'I' for Inactive)
REMARK    1  A    between atoms: C_1  and  C_2
REMARK    2  A    between atoms: C_5  and  C_8
REMARK    3  A    between atoms: C_8  and  C_10
REMARK    4  A    between atoms: C_8  and  N_15
REMARK    5  A    between atoms: C_16  and  C_18
REMARK    6  A    between atoms: C_18  and  S_19
REMARK    7  A    between atoms: S_19  and  C_20
REMARK    8  A    between atoms: C_23  and  C_26
REMARK    9  A    between atoms: N_24  and  N_25
REMARK   10  A    between atoms: C_30  and  C_31
REMARK                            x       y       z     vdW  Elec       q    Type
REMARK                         _______ _______ _______ _____ _____    ______ ____
ROOT
ATOM      1  N   UNL     1      -1.640  -1.854   0.008  0.00  0.00    -0.303 N 
ATOM      2  C   UNL     1      -1.412  -0.526   0.013  0.00  0.00    +0.224 C 
ATOM      3  O   UNL     1      -2.344   0.250   0.026  0.00  0.00    -0.275 OA
ATOM      4  H   UNL     1      -0.894  -2.474  -0.003  0.00  0.00    +0.150 HD
ENDROOT
BRANCH   1   5
ATOM      5  C   UNL     1      -3.014  -2.361   0.018  0.00  0.00    +0.140 C 
BRANCH   5  10
ATOM      6  C   UNL     1      -3.091  -7.673   2.293  0.00  0.00    +0.044 C 
ATOM      7  C   UNL     1      -3.071  -6.287   1.700  0.00  0.00    -0.050 A 
ATOM      8  C   UNL     1      -4.076  -5.390   2.007  0.00  0.00    +0.004 A 
ATOM      9  C   UNL     1      -4.058  -4.119   1.463  0.00  0.00    +0.006 A 
ATOM     10  C   UNL     1      -3.034  -3.746   0.611  0.00  0.00    -0.022 A 
ATOM     11  C   UNL     1      -2.032  -4.646   0.300  0.00  0.00    +0.006 A 
ATOM     12  C   UNL     1      -2.048  -5.915   0.848  0.00  0.00    +0.004 A 
ENDBRANCH   5  10
BRANCH   5  13
ATOM     13  C   UNL     1      -3.542  -2.411  -1.393  0.00  0.00    +0.014 A 
ATOM     14  C   UNL     1      -4.778  -2.099  -1.853  0.00  0.00    +0.013 A 
ATOM     15  C   UNL     1      -5.039  -2.219  -3.205  0.00  0.00    +0.008 A 
ATOM     16  C   UNL     1      -4.055  -2.654  -4.029  0.00  0.00    +0.045 A 
ATOM     17  S   UNL     1      -2.704  -2.904  -2.890  0.00  0.00    -0.099 S 
ENDBRANCH   5  13
ENDBRANCH   1   5
BRANCH   2  18
ATOM     18  C   UNL     1       0.002  -0.004   0.002  0.00  0.00    +0.173 C 
BRANCH  18  19
ATOM     19  S   UNL     1      -0.022   1.806   0.012  0.00  0.00    -0.075 S 
BRANCH  19  20
ATOM     20  C   UNL     1       1.708   2.135  -0.003  0.00  0.00    +0.209 A 
ATOM     21  N   UNL     1       2.671   1.243  -0.017  0.00  0.00    -0.121 NA
ATOM     22  N   UNL     1       3.816   1.827  -0.025  0.00  0.00    -0.127 NA
ATOM     23  C   UNL     1       3.654   3.130  -0.016  0.00  0.00    +0.185 A 
ATOM     24  N   UNL     1       2.299   3.368  -0.007  0.00  0.00    -0.224 N 
BRANCH  23  25
ATOM     25  C   UNL     1       4.726   4.149  -0.020  0.00  0.00    +0.061 A 
ATOM     26  C   UNL     1       4.562   5.608  -0.010  0.00  0.00    +0.053 A 
ATOM     27  C   UNL     1       5.803   6.121  -0.018  0.00  0.00    +0.196 A 
ATOM     28  O   UNL     1       6.692   5.116  -0.032  0.00  0.00    -0.467 OA
ATOM     29  C   UNL     1       6.068   3.929  -0.028  0.00  0.00    +0.112 A 
ATOM     30  C   UNL     1       6.740   2.580  -0.035  0.00  0.00    +0.087 C 
ENDBRANCH  23  25
BRANCH  24  31
ATOM     31  N   UNL     1       1.675   4.583  -0.001  0.00  0.00    -0.295 N 
ATOM     32  H   UNL     1       1.518   4.904   0.942  0.00  0.00    +0.163 HD
ATOM     33  H   UNL     1       2.200   5.262  -0.532  0.00  0.00    +0.163 HD
ENDBRANCH  24  31
ENDBRANCH  19  20
ENDBRANCH  18  19
ENDBRANCH   2  18
TORSDOF 8
