REMARK  Name = ZINC52541755
REMARK  8 active torsions:
REMARK  status: ('A' for Active; 'I' for Inactive)
REMARK    1  A    between atoms: C_1  and  C_2
REMARK    2  A    between atoms: C_2  and  C_3
REMARK    3  A    between atoms: C_2  and  C_4
REMARK    4  A    between atoms: C_2  and  N_36
REMARK    5  A    between atoms: N_6  and  C_7
REMARK    6  A    between atoms: C_7  and  C_9
REMARK    7  A    between atoms: C_7  and  C_19
REMARK    8  A    between atoms: C_9  and  C_10
REMARK                            x       y       z     vdW  Elec       q    Type
REMARK                         _______ _______ _______ _____ _____    ______ ____
ROOT
ATOM      1  C   UNL     1      -3.465  -1.164  -1.134  0.00  0.00    +0.163 C 
ENDROOT
BRANCH   1   2
ATOM      2  C   UNL     1      -3.485  -2.550  -0.541  0.00  0.00    +0.236 C 
ATOM      3  O   UNL     1      -2.564  -2.925   0.155  0.00  0.00    -0.274 OA
ATOM      4  N   UNL     1      -4.525  -3.372  -0.783  0.00  0.00    -0.296 N 
ATOM      5  C   UNL     1      -5.643  -2.933  -1.628  0.00  0.00    +0.108 C 
ATOM      6  C   UNL     1      -5.855  -3.965  -2.741  0.00  0.00    +0.023 C 
ATOM      7  C   UNL     1      -6.043  -5.351  -2.119  0.00  0.00    +0.051 C 
ATOM      8  C   UNL     1      -4.787  -5.733  -1.334  0.00  0.00    +0.127 C 
ATOM      9  C   UNL     1      -4.558  -4.725  -0.211  0.00  0.00    +0.155 C 
ATOM     10  C   UNL     1      -4.962  -7.133  -0.734  0.00  0.00    +0.054 C 
ATOM     11  C   UNL     1      -5.286  -8.109  -1.868  0.00  0.00    +0.043 C 
ATOM     12  C   UNL     1      -4.315  -7.907  -3.004  0.00  0.00    -0.006 A 
ATOM     13  C   UNL     1      -4.178  -8.911  -3.948  0.00  0.00    +0.007 A 
ATOM     14  C   UNL     1      -3.302  -8.759  -5.005  0.00  0.00    +0.000 A 
ATOM     15  C   UNL     1      -2.559  -7.599  -5.125  0.00  0.00    +0.004 A 
ATOM     16  C   UNL     1      -2.689  -6.597  -4.186  0.00  0.00    +0.046 A 
ATOM     17  C   UNL     1      -3.568  -6.748  -3.118  0.00  0.00    +0.125 A 
ATOM     18  O   UNL     1      -3.658  -5.746  -2.204  0.00  0.00    -0.484 OA
ENDBRANCH   1   2
BRANCH   1  21
ATOM     19  C   UNL     1      -1.412  -0.526   0.013  0.00  0.00    +0.202 C 
ATOM     20  O   UNL     1      -1.939  -0.827   1.062  0.00  0.00    -0.277 OA
ATOM     21  N   UNL     1      -2.090  -0.657  -1.144  0.00  0.00    -0.305 N 
ATOM     22  H   UNL     1      -1.669  -0.416  -1.984  0.00  0.00    +0.149 HD
BRANCH  19  24
ATOM     23  C   UNL     1      -0.019   1.526   0.010  0.00  0.00    -0.001 C 
ATOM     24  C   UNL     1       0.002  -0.004   0.002  0.00  0.00    +0.001 C 
ATOM     25  C   UNL     1       0.742  -0.511   1.242  0.00  0.00    -0.001 C 
BRANCH  24  26
ATOM     26  N   UNL     1       0.690  -0.478  -1.207  0.00  0.00    +0.387 N 
ATOM     27  H   UNL     1       1.636  -0.129  -1.214  0.00  0.00    -0.089 HD
ATOM     28  H   UNL     1       0.703  -1.487  -1.212  0.00  0.00    -0.089 HD
ATOM     29  H   UNL     1       0.202  -0.144  -2.024  0.00  0.00    -0.089 HD
ENDBRANCH  24  26
ENDBRANCH  19  24
ENDBRANCH   1  21
BRANCH   1  30
ATOM     30  C   UNL     1      -4.344  -0.237  -0.293  0.00  0.00    +0.065 C 
BRANCH  30  31
ATOM     31  C   UNL     1      -4.423   1.115  -0.954  0.00  0.00    -0.039 C 
ATOM     32  C   UNL     1      -5.391   1.557  -1.789  0.00  0.00    -0.001 A 
ATOM     33  C   UNL     1      -6.612   0.934  -2.313  0.00  0.00    +0.010 A 
ATOM     34  C   UNL     1      -7.402   1.643  -3.152  0.00  0.00    +0.001 A 
ATOM     35  C   UNL     1      -7.083   2.954  -3.533  0.00  0.00    +0.002 A 
ATOM     36  C   UNL     1      -5.979   3.593  -3.092  0.00  0.00    +0.026 A 
ATOM     37  C   UNL     1      -5.077   2.943  -2.205  0.00  0.00    +0.043 A 
ATOM     38  N   UNL     1      -3.959   3.342  -1.649  0.00  0.00    -0.380 N 
ATOM     39  C   UNL     1      -3.440   2.256  -0.811  0.00  0.00    +0.144 C 
ATOM     40  H   UNL     1      -3.547   4.212  -1.769  0.00  0.00    +0.160 HD
ENDBRANCH  30  31
ENDBRANCH   1  30
TORSDOF 6
