REMARK  Name = ZINC13500091
REMARK  15 active torsions:
REMARK  status: ('A' for Active; 'I' for Inactive)
REMARK    1  A    between atoms: C_1  and  C_2
REMARK    2  A    between atoms: C_2  and  C_3
REMARK    3  A    between atoms: C_3  and  C_4
REMARK    4  A    between atoms: C_4  and  C_6
REMARK    5  A    between atoms: C_4  and  N_18
REMARK    6  A    between atoms: N_10  and  C_11
REMARK    7  A    between atoms: C_11  and  C_12
REMARK    8  A    between atoms: N_18  and  C_19
REMARK    9  A    between atoms: N_18  and  C_28
REMARK   10  A    between atoms: C_19  and  C_20
REMARK   11  A    between atoms: C_20  and  C_21
REMARK   12  A    between atoms: C_21  and  N_22
REMARK   13  A    between atoms: C_28  and  C_29
REMARK   14  A    between atoms: C_33  and  C_42
REMARK   15  A    between atoms: C_35  and  C_41
REMARK                            x       y       z     vdW  Elec       q    Type
REMARK                         _______ _______ _______ _____ _____    ______ ____
ROOT
ATOM      1  N   UNL     1      -0.675   0.605   0.243  0.00  0.00    +0.389 N 
ATOM      2  H   UNL     1      -0.278   0.583   1.268  0.00  0.00    -0.080 HD
ENDROOT
BRANCH   1   3
ATOM      3  C   UNL     1      -0.724   2.007  -0.192  0.00  0.00    +0.003 C 
BRANCH   3   4
ATOM      4  C   UNL     1       0.438   2.759   0.403  0.00  0.00    +0.138 A 
ATOM      5  N   UNL     1       1.685   2.358   0.456  0.00  0.00    -0.115 NA
ATOM      6  N   UNL     1       2.375   3.277   1.038  0.00  0.00    -0.023 NA
ATOM      7  N   UNL     1       1.600   4.254   1.359  0.00  0.00    -0.044 NA
ATOM      8  N   UNL     1       0.399   3.975   0.979  0.00  0.00    -0.228 N 
BRANCH   8   9
ATOM      9  C   UNL     1      -0.785   4.821   1.147  0.00  0.00    +0.178 C 
BRANCH   9  10
ATOM     10  C   UNL     1      -1.455   4.501   2.484  0.00  0.00    +0.140 C 
ATOM     11  C   UNL     1      -2.767   5.303   2.618  0.00  0.00    +0.035 C 
ATOM     12  C   UNL     1      -2.753   5.710   4.117  0.00  0.00    +0.031 C 
ATOM     13  C   UNL     1      -1.234   5.906   4.354  0.00  0.00    +0.160 C 
ATOM     14  O   UNL     1      -0.597   4.890   3.563  0.00  0.00    -0.375 OA
ENDBRANCH   9  10
ENDBRANCH   8   9
ENDBRANCH   3   4
BRANCH   3  15
ATOM     15  C   UNL     1      -0.644   2.071  -1.719  0.00  0.00    -0.008 C 
BRANCH  15  17
ATOM     16  C   UNL     1      -1.844   1.518  -3.840  0.00  0.00    +0.004 C 
ATOM     17  C   UNL     1      -1.830   1.315  -2.323  0.00  0.00    -0.005 C 
ENDBRANCH  15  17
ENDBRANCH   3  15
ENDBRANCH   1   3
BRANCH   1  18
ATOM     18  C   UNL     1      -2.020   0.014   0.268  0.00  0.00    -0.076 C 
BRANCH  18  19
ATOM     19  C   UNL     1      -2.805   0.582   1.452  0.00  0.00    -0.003 C 
BRANCH  19  20
ATOM     20  C   UNL     1      -4.154  -0.132   1.560  0.00  0.00    +0.083 C 
BRANCH  20  21
ATOM     21  N   UNL     1      -4.961   0.501   2.611  0.00  0.00    -0.298 NA
ATOM     22  C   UNL     1      -4.329   0.339   3.929  0.00  0.00    +0.112 C 
ATOM     23  C   UNL     1      -5.170   1.063   4.984  0.00  0.00    +0.175 C 
ATOM     24  O   UNL     1      -6.505   0.550   4.957  0.00  0.00    -0.377 OA
ATOM     25  C   UNL     1      -7.150   0.691   3.688  0.00  0.00    +0.175 C 
ATOM     26  C   UNL     1      -6.329  -0.036   2.620  0.00  0.00    +0.112 C 
ENDBRANCH  20  21
ENDBRANCH  19  20
ENDBRANCH  18  19
ENDBRANCH   1  18
BRANCH   1  27
ATOM     27  C   UNL     1       0.229  -0.179  -0.609  0.00  0.00    -0.037 C 
BRANCH  27  28
ATOM     28  C   UNL     1       0.568  -1.476   0.080  0.00  0.00    +0.001 A 
ATOM     29  C   UNL     1      -0.153  -2.592  -0.189  0.00  0.00    +0.017 A 
ATOM     30  C   UNL     1       0.202  -3.837   0.496  0.00  0.00    -0.001 A 
ATOM     31  C   UNL     1      -0.505  -5.020   0.260  0.00  0.00    +0.013 A 
ATOM     32  C   UNL     1      -0.148  -6.164   0.915  0.00  0.00    -0.050 A 
ATOM     33  C   UNL     1       0.910  -6.163   1.814  0.00  0.00    +0.008 A 
ATOM     34  C   UNL     1       1.621  -5.009   2.062  0.00  0.00    -0.026 A 
ATOM     35  C   UNL     1       1.276  -3.831   1.406  0.00  0.00    +0.052 A 
ATOM     36  N   UNL     1       1.969  -2.662   1.636  0.00  0.00    -0.322 N 
ATOM     37  H   UNL     1       2.806  -2.650   2.350  0.00  0.00    +0.169 HD
ATOM     38  C   UNL     1       1.639  -1.526   0.998  0.00  0.00    +0.251 A 
ATOM     39  O   UNL     1       2.278  -0.512   1.221  0.00  0.00    -0.268 OA
ATOM     40  C   UNL     1       2.768  -5.022   3.040  0.00  0.00    +0.046 C 
ATOM     41  C   UNL     1      -0.910  -7.439   0.660  0.00  0.00    +0.044 C 
ENDBRANCH  27  28
ENDBRANCH   1  27
TORSDOF 12
