REMARK  Name = ZINC06444001
REMARK  12 active torsions:
REMARK  status: ('A' for Active; 'I' for Inactive)
REMARK    1  A    between atoms: C_1  and  C_2
REMARK    2  A    between atoms: C_12  and  C_14
REMARK    3  A    between atoms: C_14  and  C_16
REMARK    4  A    between atoms: C_14  and  N_64
REMARK    5  A    between atoms: N_20  and  C_21
REMARK    6  A    between atoms: C_21  and  C_22
REMARK    7  A    between atoms: C_22  and  O_23
REMARK    8  A    between atoms: O_23  and  C_24
REMARK    9  A    between atoms: C_25  and  C_26
REMARK   10  A    between atoms: C_25  and  N_64
REMARK   11  A    between atoms: C_33  and  C_34
REMARK   12  A    between atoms: C_33  and  N_64
REMARK                            x       y       z     vdW  Elec       q    Type
REMARK                         _______ _______ _______ _____ _____    ______ ____
ROOT
ATOM      1  C   UNL     1       0.619  -2.105   4.634  0.00  0.00    +0.040 C 
ENDROOT
BRANCH   1  13
ATOM      2  C   UNL     1       1.718   1.308  -0.876  0.00  0.00    +0.046 C 
ATOM      3  C   UNL     1       1.867  -0.160  -0.568  0.00  0.00    -0.026 A 
ATOM      4  C   UNL     1       2.299  -1.032  -1.544  0.00  0.00    +0.005 A 
ATOM      5  C   UNL     1       2.445  -2.385  -1.272  0.00  0.00    +0.001 A 
ATOM      6  C   UNL     1       2.153  -2.880  -0.032  0.00  0.00    +0.010 A 
ATOM      7  C   UNL     1       1.708  -2.015   0.973  0.00  0.00    -0.001 A 
ATOM      8  C   UNL     1       1.564  -0.641   0.702  0.00  0.00    +0.052 A 
ATOM      9  N   UNL     1       1.125   0.207   1.696  0.00  0.00    -0.322 N 
ATOM     10  H   UNL     1       1.026   1.154   1.508  0.00  0.00    +0.169 HD
ATOM     11  C   UNL     1       0.831  -0.258   2.923  0.00  0.00    +0.251 A 
ATOM     12  O   UNL     1       0.445   0.520   3.777  0.00  0.00    -0.268 OA
ATOM     13  C   UNL     1       0.959  -1.626   3.246  0.00  0.00    +0.011 A 
ATOM     14  C   UNL     1       1.386  -2.512   2.312  0.00  0.00    +0.017 A 
ENDBRANCH   1  13
BRANCH   1  15
ATOM     15  C   UNL     1      -0.853  -1.903   4.888  0.00  0.00    +0.143 A 
ATOM     16  N   UNL     1      -1.418  -0.840   5.407  0.00  0.00    -0.115 NA
ATOM     17  N   UNL     1      -2.688  -1.051   5.460  0.00  0.00    -0.023 NA
ATOM     18  N   UNL     1      -2.946  -2.224   4.995  0.00  0.00    -0.044 NA
ATOM     19  N   UNL     1      -1.841  -2.780   4.633  0.00  0.00    -0.228 N 
BRANCH  19  20
ATOM     20  C   UNL     1      -1.688  -4.117   4.052  0.00  0.00    +0.175 C 
BRANCH  20  21
ATOM     21  C   UNL     1      -1.569  -5.150   5.174  0.00  0.00    +0.183 C 
BRANCH  21  22
ATOM     22  O   UNL     1      -1.447  -6.456   4.608  0.00  0.00    -0.381 OA
ATOM     23  C   UNL     1      -1.329  -7.501   5.576  0.00  0.00    +0.194 C 
ENDBRANCH  21  22
ENDBRANCH  20  21
ENDBRANCH  19  20
ENDBRANCH   1  15
BRANCH   1  24
ATOM     24  N   UNL     1       1.384  -1.315   5.621  0.00  0.00    +0.397 N 
ATOM     25  H   UNL     1       0.952  -0.388   5.714  0.00  0.00    -0.079 HD
BRANCH  24  26
ATOM     26  C   UNL     1       1.358  -1.989   6.936  0.00  0.00    -0.041 C 
BRANCH  26  27
ATOM     27  C   UNL     1       0.049  -1.677   7.613  0.00  0.00    -0.064 A 
ATOM     28  C   UNL     1      -0.241  -0.379   7.992  0.00  0.00    +0.004 A 
ATOM     29  C   UNL     1      -1.444  -0.090   8.608  0.00  0.00    +0.038 A 
ATOM     30  C   UNL     1      -2.355  -1.103   8.856  0.00  0.00    +0.123 A 
ATOM     31  C   UNL     1      -2.062  -2.403   8.480  0.00  0.00    +0.038 A 
ATOM     32  C   UNL     1      -0.860  -2.689   7.860  0.00  0.00    +0.004 A 
ATOM     33  F   UNL     1      -3.529  -0.823   9.462  0.00  0.00    -0.205 F 
ENDBRANCH  26  27
ENDBRANCH  24  26
BRANCH  24  34
ATOM     34  C   UNL     1       2.780  -1.151   5.165  0.00  0.00    -0.001 C 
BRANCH  34  35
ATOM     35  C   UNL     1       3.432  -0.065   5.981  0.00  0.00    +0.089 A 
ATOM     36  C   UNL     1       4.199  -0.252   7.070  0.00  0.00    +0.042 A 
ATOM     37  C   UNL     1       4.598   1.030   7.515  0.00  0.00    +0.041 A 
ATOM     38  C   UNL     1       4.050   1.923   6.672  0.00  0.00    +0.195 A 
ATOM     39  O   UNL     1       3.349   1.254   5.742  0.00  0.00    -0.470 OA
ENDBRANCH  34  35
ENDBRANCH  24  34
ENDBRANCH   1  24
TORSDOF 10
