REMARK  Name = ZINC09669559
REMARK  10 active torsions:
REMARK  status: ('A' for Active; 'I' for Inactive)
REMARK    1  A    between atoms: C_1  and  C_2
REMARK    2  A    between atoms: C_2  and  C_4
REMARK    3  A    between atoms: C_2  and  N_52
REMARK    4  A    between atoms: C_7  and  S_16
REMARK    5  A    between atoms: N_8  and  C_9
REMARK    6  A    between atoms: S_16  and  C_17
REMARK    7  A    between atoms: C_17  and  C_18
REMARK    8  A    between atoms: C_21  and  C_23
REMARK    9  A    between atoms: C_30  and  N_52
REMARK   10  A    between atoms: C_31  and  N_52
REMARK                            x       y       z     vdW  Elec       q    Type
REMARK                         _______ _______ _______ _____ _____    ______ ____
ROOT
ATOM      1  C   UNL     1       0.959   0.411  -4.653  0.00  0.00    +0.125 A 
ATOM      2  N   UNL     1       1.683  -0.085  -3.689  0.00  0.00    -0.135 NA
ATOM      3  N   UNL     1       1.195   0.253  -2.550  0.00  0.00    -0.122 NA
ATOM      4  C   UNL     1       0.122   0.990  -2.724  0.00  0.00    +0.197 A 
ATOM      5  N   UNL     1      -0.066   1.111  -4.073  0.00  0.00    -0.275 N 
ENDROOT
BRANCH   5   6
ATOM      6  C   UNL     1      -1.093   1.808  -4.727  0.00  0.00    +0.050 A 
ATOM      7  C   UNL     1      -2.018   1.119  -5.500  0.00  0.00    +0.028 A 
ATOM      8  C   UNL     1      -3.030   1.807  -6.139  0.00  0.00    +0.022 A 
ATOM      9  C   UNL     1      -3.117   3.183  -6.018  0.00  0.00    +0.041 A 
ATOM     10  C   UNL     1      -2.193   3.872  -5.252  0.00  0.00    +0.022 A 
ATOM     11  C   UNL     1      -1.181   3.188  -4.607  0.00  0.00    +0.028 A 
ATOM     12 CL   UNL     1      -4.388   4.046  -6.827  0.00  0.00    -0.084 Cl
ENDBRANCH   5   6
BRANCH   1  14
ATOM     13  C   UNL     1       2.375   1.125  -6.559  0.00  0.00    -0.005 C 
ATOM     14  C   UNL     1       1.202   0.242  -6.130  0.00  0.00    -0.003 C 
BRANCH  14  17
ATOM     15  C   UNL     1       0.452  -2.052  -5.932  0.00  0.00    -0.096 C 
ATOM     16  C   UNL     1       1.760  -1.368  -7.851  0.00  0.00    -0.096 C 
ATOM     17  N   UNL     1       1.542  -1.171  -6.402  0.00  0.00    +0.382 N 
ATOM     18  H   UNL     1       2.404  -1.409  -5.899  0.00  0.00    -0.082 HD
ENDBRANCH  14  17
ENDBRANCH   1  14
BRANCH   4  19
ATOM     19  S   UNL     1      -0.888   1.685  -1.458  0.00  0.00    -0.076 S 
BRANCH  19  20
ATOM     20  C   UNL     1      -0.013   1.086   0.008  0.00  0.00    +0.173 C 
BRANCH  20  21
ATOM     21  C   UNL     1      -0.718   1.572   1.248  0.00  0.00    +0.206 A 
ATOM     22  N   UNL     1      -1.677   0.944   1.868  0.00  0.00    -0.220 NA
ATOM     23  C   UNL     1      -2.059   1.671   2.928  0.00  0.00    +0.161 A 
ATOM     24  C   UNL     1      -1.300   2.797   2.946  0.00  0.00    +0.155 A 
ATOM     25  O   UNL     1      -0.464   2.722   1.887  0.00  0.00    -0.439 OA
BRANCH  24  26
ATOM     26  C   UNL     1      -1.375   3.895   3.933  0.00  0.00    +0.019 A 
ATOM     27  C   UNL     1      -2.299   3.836   4.977  0.00  0.00    +0.013 A 
ATOM     28  C   UNL     1      -2.361   4.861   5.898  0.00  0.00    +0.021 A 
ATOM     29  C   UNL     1      -1.516   5.952   5.782  0.00  0.00    +0.041 A 
ATOM     30  C   UNL     1      -0.600   6.018   4.745  0.00  0.00    +0.021 A 
ATOM     31  C   UNL     1      -0.526   4.997   3.821  0.00  0.00    +0.013 A 
ATOM     32 CL   UNL     1      -1.603   7.241   6.942  0.00  0.00    -0.084 Cl
ENDBRANCH  24  26
ENDBRANCH  20  21
ENDBRANCH  19  20
ENDBRANCH   4  19
TORSDOF 7
