REMARK  Name = ZINC39669324
REMARK  5 active torsions:
REMARK  status: ('A' for Active; 'I' for Inactive)
REMARK    1  A    between atoms: C_4  and  C_37
REMARK    2  A    between atoms: C_5  and  C_7
REMARK    3  A    between atoms: C_11  and  C_20
REMARK    4  A    between atoms: N_22  and  C_23
REMARK    5  A    between atoms: C_23  and  C_24
REMARK                            x       y       z     vdW  Elec       q    Type
REMARK                         _______ _______ _______ _____ _____    ______ ____
ROOT
ATOM      1  C   UNL     1       1.196  -1.947  -0.094  0.00  0.00    +0.247 C 
ATOM      2  O   UNL     1       1.137  -0.733  -0.113  0.00  0.00    -0.270 OA
ATOM      3  N   UNL     1       0.065  -2.678  -0.134  0.00  0.00    -0.296 N 
ATOM      4  C   UNL     1      -1.324  -2.193  -0.317  0.00  0.00    +0.121 C 
ATOM      5  C   UNL     1      -1.986  -3.245  -1.236  0.00  0.00    +0.100 C 
ATOM      6  C   UNL     1      -1.161  -4.526  -1.024  0.00  0.00    -0.004 C 
ATOM      7  C   UNL     1      -0.071  -4.149  -0.010  0.00  0.00    +0.115 C 
ATOM      8  C   UNL     1      -0.522  -4.965  -2.338  0.00  0.00    -0.010 C 
ATOM      9  C   UNL     1       0.246  -6.271  -2.114  0.00  0.00    -0.082 C 
ATOM     10  N   UNL     1      -0.675  -7.304  -1.625  0.00  0.00    +0.379 N 
ATOM     11  C   UNL     1      -1.215  -6.916  -0.317  0.00  0.00    -0.082 C 
ATOM     12  C   UNL     1      -2.044  -5.636  -0.464  0.00  0.00    -0.010 C 
ATOM     13  H   UNL     1      -1.434  -7.415  -2.281  0.00  0.00    -0.086 HD
ATOM     14  H   UNL     1      -0.181  -8.180  -1.537  0.00  0.00    -0.086 HD
ENDROOT
BRANCH   1  19
ATOM     15  C   UNL     1       3.938  -4.306   0.918  0.00  0.00    +0.001 A 
ATOM     16  C   UNL     1       4.972  -3.884   0.100  0.00  0.00    +0.001 A 
ATOM     17  C   UNL     1       4.781  -2.834  -0.781  0.00  0.00    +0.013 A 
ATOM     18  C   UNL     1       3.557  -2.200  -0.849  0.00  0.00    +0.067 A 
ATOM     19  C   UNL     1       2.510  -2.621  -0.027  0.00  0.00    +0.049 A 
ATOM     20  C   UNL     1       2.709  -3.681   0.859  0.00  0.00    +0.013 A 
BRANCH  18  21
ATOM     21  C   UNL     1       3.351  -1.056  -1.808  0.00  0.00    +0.418 C 
ATOM     22  F   UNL     1       4.534  -0.822  -2.516  0.00  0.00    -0.166 F 
ATOM     23  F   UNL     1       2.327  -1.379  -2.705  0.00  0.00    -0.166 F 
ATOM     24  F   UNL     1       2.999   0.094  -1.093  0.00  0.00    -0.166 F 
ENDBRANCH  18  21
ENDBRANCH   1  19
BRANCH   5  25
ATOM     25  C   UNL     1      -3.420  -3.468  -0.829  0.00  0.00    +0.218 C 
ATOM     26  O   UNL     1      -3.746  -3.350   0.333  0.00  0.00    -0.275 OA
ATOM     27  N   UNL     1      -4.339  -3.799  -1.757  0.00  0.00    -0.315 N 
ATOM     28  H   UNL     1      -4.078  -3.893  -2.687  0.00  0.00    +0.149 HD
BRANCH  27  29
ATOM     29  C   UNL     1      -5.733  -4.016  -1.362  0.00  0.00    +0.109 C 
BRANCH  29  30
ATOM     30  C   UNL     1      -6.563  -4.377  -2.596  0.00  0.00    +0.024 C 
ATOM     31  C   UNL     1      -7.991  -4.724  -2.168  0.00  0.00    +0.008 C 
ATOM     32  C   UNL     1      -8.812  -5.117  -3.398  0.00  0.00    +0.019 C 
ATOM     33  C   UNL     1      -8.872  -3.932  -4.367  0.00  0.00    +0.108 C 
ATOM     34  N   UNL     1      -7.501  -3.499  -4.671  0.00  0.00    -0.299 N 
ATOM     35  C   UNL     1      -6.597  -3.184  -3.557  0.00  0.00    +0.113 C 
ATOM     36  C   UNL     1      -7.070  -3.391  -5.981  0.00  0.00    +0.218 A 
ATOM     37  N   UNL     1      -5.826  -3.003  -6.223  0.00  0.00    -0.223 NA
ATOM     38  C   UNL     1      -5.382  -2.890  -7.463  0.00  0.00    +0.116 A 
ATOM     39  C   UNL     1      -6.235  -3.182  -8.516  0.00  0.00    +0.039 A 
ATOM     40  C   UNL     1      -7.529  -3.585  -8.228  0.00  0.00    +0.116 A 
ATOM     41  N   UNL     1      -7.909  -3.683  -6.964  0.00  0.00    -0.223 NA
ENDBRANCH  29  30
ENDBRANCH  27  29
ENDBRANCH   5  25
TORSDOF 5
