REMARK  Name = ZINC02776694
REMARK  7 active torsions:
REMARK  status: ('A' for Active; 'I' for Inactive)
REMARK    1  A    between atoms: C_3  and  C_6
REMARK    2  A    between atoms: C_8  and  C_28
REMARK    3  A    between atoms: C_10  and  S_12
REMARK    4  A    between atoms: S_12  and  C_13
REMARK    5  A    between atoms: C_13  and  C_14
REMARK    6  A    between atoms: N_16  and  C_17
REMARK    7  A    between atoms: C_18  and  C_25
REMARK                            x       y       z     vdW  Elec       q    Type
REMARK                         _______ _______ _______ _____ _____    ______ ____
ROOT
ATOM      1  C   UNL     1      -1.876   5.799   0.052  0.00  0.00    +0.173 C 
ENDROOT
BRANCH   1   2
ATOM      2  C   UNL     1      -2.155   7.280   0.063  0.00  0.00    +0.228 C 
ATOM      3  O   UNL     1      -1.236   8.071   0.059  0.00  0.00    -0.275 OA
ATOM      4  N   UNL     1      -3.427   7.726   0.077  0.00  0.00    -0.279 N 
ATOM      5  H   UNL     1      -4.162   7.093   0.081  0.00  0.00    +0.155 HD
BRANCH   4   6
ATOM      6  C   UNL     1      -3.684   9.088   0.087  0.00  0.00    +0.084 A 
ATOM      7  C   UNL     1      -4.909   9.732   0.097  0.00  0.00    +0.068 A 
ATOM      8  C   UNL     1      -4.905  11.195   0.111  0.00  0.00    -0.023 A 
ATOM      9  C   UNL     1      -3.686  11.763   0.103  0.00  0.00    -0.004 A 
ATOM     10  S   UNL     1      -2.551  10.397   0.084  0.00  0.00    -0.077 S 
ATOM     11  C   UNL     1      -3.764  13.266   0.115  0.00  0.00    +0.043 C 
ATOM     12  C   UNL     1      -5.207  13.577   0.569  0.00  0.00    +0.010 C 
ATOM     13  C   UNL     1      -5.957  12.305   0.125  0.00  0.00    +0.037 C 
BRANCH   7  14
ATOM     14  C   UNL     1      -6.165   8.976   0.098  0.00  0.00    +0.244 C 
ATOM     15  O   UNL     1      -6.682   8.655   1.152  0.00  0.00    -0.270 OA
ATOM     16  N   UNL     1      -6.747   8.636  -1.069  0.00  0.00    -0.325 N 
ATOM     17  H   UNL     1      -6.335   8.891  -1.910  0.00  0.00    +0.145 HD
ATOM     18  H   UNL     1      -7.578   8.135  -1.069  0.00  0.00    +0.145 HD
ENDBRANCH   7  14
ENDBRANCH   4   6
ENDBRANCH   1   2
BRANCH   1  19
ATOM     19  S   UNL     1      -0.087   5.523   0.033  0.00  0.00    -0.077 S 
BRANCH  19  24
ATOM     20  C   UNL     1       1.181   1.809   0.001  0.00  0.00    +0.111 A 
ATOM     21  C   UNL     1      -0.013   1.076   0.008  0.00  0.00    +0.064 A 
ATOM     22  C   UNL     1      -1.209   1.767   0.017  0.00  0.00    +0.149 A 
ATOM     23  N   UNL     1      -1.194   3.091   0.030  0.00  0.00    -0.218 NA
ATOM     24  C   UNL     1      -0.050   3.761   0.023  0.00  0.00    +0.190 A 
ATOM     25  N   UNL     1       1.120   3.141   0.008  0.00  0.00    -0.219 NA
BRANCH  20  28
ATOM     26  C   UNL     1       4.664   0.687  -0.040  0.00  0.00    +0.042 A 
ATOM     27  C   UNL     1       3.707   1.719  -0.030  0.00  0.00    +0.051 A 
ATOM     28  C   UNL     1       2.485   1.119  -0.016  0.00  0.00    +0.153 A 
ATOM     29  O   UNL     1       2.674  -0.215  -0.026  0.00  0.00    -0.461 OA
ATOM     30  C   UNL     1       3.989  -0.480  -0.040  0.00  0.00    +0.196 A 
ENDBRANCH  20  28
BRANCH  22  31
ATOM     31  C   UNL     1      -2.519   1.021   0.019  0.00  0.00    +0.434 C 
ATOM     32  F   UNL     1      -2.918   0.783   1.338  0.00  0.00    -0.164 F 
ATOM     33  F   UNL     1      -3.492   1.787  -0.632  0.00  0.00    -0.164 F 
ATOM     34  F   UNL     1      -2.362  -0.199  -0.648  0.00  0.00    -0.164 F 
ENDBRANCH  22  31
ENDBRANCH  19  24
ENDBRANCH   1  19
TORSDOF 7
