REMARK  Name = ZINC12592385
REMARK  8 active torsions:
REMARK  status: ('A' for Active; 'I' for Inactive)
REMARK    1  A    between atoms: C_1  and  O_2
REMARK    2  A    between atoms: O_2  and  C_3
REMARK    3  A    between atoms: C_8  and  C_9
REMARK    4  A    between atoms: C_9  and  N_52
REMARK    5  A    between atoms: C_15  and  C_17
REMARK    6  A    between atoms: C_17  and  C_18
REMARK    7  A    between atoms: N_20  and  C_21
REMARK    8  A    between atoms: C_21  and  C_22
REMARK                            x       y       z     vdW  Elec       q    Type
REMARK                         _______ _______ _______ _____ _____    ______ ____
ROOT
ATOM      1  C   UNL     1       2.314   1.206   0.412  0.00  0.00    -0.058 C 
ATOM      2  C   UNL     1       1.088   2.091   0.184  0.00  0.00    +0.085 C 
ATOM      3  N   UNL     1      -0.129   1.287   0.253  0.00  0.00    -0.318 N 
ATOM      4  C   UNL     1      -0.129  -0.044   0.130  0.00  0.00    +0.200 C 
ATOM      5  O   UNL     1      -1.189  -0.632   0.169  0.00  0.00    -0.278 OA
ATOM      6  C   UNL     1       1.131  -0.843  -0.054  0.00  0.00    +0.028 C 
ATOM      7  H   UNL     1      -0.976   1.740   0.390  0.00  0.00    +0.149 HD
ATOM      8  N   UNL     1       2.218   0.048  -0.500  0.00  0.00    +0.391 N 
ATOM      9  H   UNL     1       2.010   0.384  -1.448  0.00  0.00    -0.080 HD
ENDROOT
BRANCH   8  10
ATOM     10  C   UNL     1       3.501  -0.690  -0.522  0.00  0.00    -0.038 C 
BRANCH  10  16
ATOM     11  C   UNL     1       5.096   0.973   0.467  0.00  0.00    +0.121 A 
ATOM     12  C   UNL     1       6.144   1.874   0.345  0.00  0.00    +0.046 A 
ATOM     13  C   UNL     1       6.722   2.097  -0.889  0.00  0.00    +0.004 A 
ATOM     14  C   UNL     1       6.259   1.421  -2.003  0.00  0.00    +0.000 A 
ATOM     15  C   UNL     1       5.217   0.520  -1.884  0.00  0.00    +0.005 A 
ATOM     16  C   UNL     1       4.637   0.292  -0.651  0.00  0.00    -0.022 A 
BRANCH  11  18
ATOM     17  C   UNL     1       5.047   1.491   2.787  0.00  0.00    +0.277 C 
ATOM     18  O   UNL     1       4.523   0.755   1.680  0.00  0.00    -0.495 OA
ENDBRANCH  11  18
ENDBRANCH  10  16
ENDBRANCH   8  10
BRANCH   6  19
ATOM     19  C   UNL     1       0.900  -1.917  -1.119  0.00  0.00    +0.089 C 
BRANCH  19  20
ATOM     20  C   UNL     1       0.576  -1.258  -2.435  0.00  0.00    +0.212 C 
ATOM     21  O   UNL     1       0.629  -0.051  -2.538  0.00  0.00    -0.276 OA
ATOM     22  N   UNL     1       0.229  -2.011  -3.498  0.00  0.00    -0.311 N 
ATOM     23  H   UNL     1       0.187  -2.977  -3.415  0.00  0.00    +0.149 HD
BRANCH  22  24
ATOM     24  C   UNL     1      -0.086  -1.371  -4.777  0.00  0.00    +0.145 C 
BRANCH  24  25
ATOM     25  C   UNL     1      -0.440  -2.426  -5.793  0.00  0.00    +0.040 A 
ATOM     26  C   UNL     1       0.547  -2.984  -6.586  0.00  0.00    +0.131 A 
ATOM     27  C   UNL     1       0.221  -3.958  -7.515  0.00  0.00    +0.039 A 
ATOM     28  C   UNL     1      -1.092  -4.363  -7.659  0.00  0.00    +0.006 A 
ATOM     29  C   UNL     1      -2.080  -3.802  -6.872  0.00  0.00    +0.039 A 
ATOM     30  C   UNL     1      -1.755  -2.833  -5.939  0.00  0.00    +0.131 A 
ATOM     31  F   UNL     1      -2.721  -2.285  -5.169  0.00  0.00    -0.205 F 
ATOM     32  F   UNL     1       1.830  -2.583  -6.449  0.00  0.00    -0.205 F 
ENDBRANCH  24  25
ENDBRANCH  22  24
ENDBRANCH  19  20
ENDBRANCH   6  19
TORSDOF 7
