REMARK  Name = ZINC13501189
REMARK  14 active torsions:
REMARK  status: ('A' for Active; 'I' for Inactive)
REMARK    1  A    between atoms: C_1  and  C_2
REMARK    2  A    between atoms: C_2  and  C_3
REMARK    3  A    between atoms: C_3  and  C_5
REMARK    4  A    between atoms: C_3  and  N_74
REMARK    5  A    between atoms: N_9  and  C_10
REMARK    6  A    between atoms: C_10  and  C_11
REMARK    7  A    between atoms: C_14  and  O_17
REMARK    8  A    between atoms: O_17  and  C_18
REMARK    9  A    between atoms: C_19  and  C_20
REMARK   10  A    between atoms: C_19  and  N_74
REMARK   11  A    between atoms: C_24  and  O_32
REMARK   12  A    between atoms: O_32  and  C_33
REMARK   13  A    between atoms: C_33  and  C_34
REMARK   14  A    between atoms: C_35  and  N_74
REMARK                            x       y       z     vdW  Elec       q    Type
REMARK                         _______ _______ _______ _____ _____    ______ ____
ROOT
ATOM      1  N   UNL     1       2.019   4.489   0.957  0.00  0.00    +0.391 N 
ATOM      2  H   UNL     1       1.130   3.984   1.055  0.00  0.00    -0.080 HD
ENDROOT
BRANCH   1   3
ATOM      3  C   UNL     1       2.992   3.941   1.925  0.00  0.00    -0.067 C 
ATOM      4  C   UNL     1       2.793   2.416   2.037  0.00  0.00    -0.015 C 
ATOM      5  C   UNL     1       3.019   2.113   3.540  0.00  0.00    -0.002 C 
ATOM      6  C   UNL     1       2.367   3.333   4.237  0.00  0.00    -0.002 C 
ATOM      7  C   UNL     1       2.722   4.524   3.323  0.00  0.00    -0.015 C 
ENDBRANCH   1   3
BRANCH   1   8
ATOM      8  C   UNL     1       1.789   5.924   1.228  0.00  0.00    +0.003 C 
BRANCH   8   9
ATOM      9  C   UNL     1       3.087   6.687   1.170  0.00  0.00    +0.138 A 
ATOM     10  N   UNL     1       4.137   6.391   0.444  0.00  0.00    -0.115 NA
ATOM     11  N   UNL     1       5.040   7.282   0.667  0.00  0.00    -0.023 NA
ATOM     12  N   UNL     1       4.596   8.136   1.523  0.00  0.00    -0.044 NA
ATOM     13  N   UNL     1       3.395   7.803   1.857  0.00  0.00    -0.226 N 
BRANCH  13  14
ATOM     14  C   UNL     1       2.529   8.507   2.806  0.00  0.00    +0.182 C 
BRANCH  14  15
ATOM     15  C   UNL     1       2.844   8.051   4.207  0.00  0.00    -0.026 A 
ATOM     16  C   UNL     1       2.080   7.064   4.800  0.00  0.00    +0.009 A 
ATOM     17  C   UNL     1       2.370   6.640   6.083  0.00  0.00    +0.046 A 
ATOM     18  C   UNL     1       3.423   7.215   6.780  0.00  0.00    +0.120 A 
ATOM     19  C   UNL     1       4.185   8.210   6.185  0.00  0.00    +0.046 A 
ATOM     20  C   UNL     1       3.894   8.626   4.900  0.00  0.00    +0.009 A 
BRANCH  18  21
ATOM     21  O   UNL     1       3.708   6.804   8.043  0.00  0.00    -0.495 OA
ATOM     22  C   UNL     1       2.882   5.775   8.592  0.00  0.00    +0.277 C 
ENDBRANCH  18  21
ENDBRANCH  14  15
ENDBRANCH  13  14
ENDBRANCH   8   9
BRANCH   8  24
ATOM     23  C   UNL     1      -0.498   5.710   0.246  0.00  0.00    +0.002 C 
ATOM     24  C   UNL     1       0.822   6.480   0.181  0.00  0.00    -0.011 C 
ENDBRANCH   8  24
ENDBRANCH   1   8
BRANCH   1  25
ATOM     25  C   UNL     1       2.523   4.310  -0.421  0.00  0.00    -0.036 C 
BRANCH  25  26
ATOM     26  C   UNL     1       2.584   2.836  -0.730  0.00  0.00    +0.001 A 
ATOM     27  C   UNL     1       1.515   2.219  -1.291  0.00  0.00    +0.017 A 
ATOM     28  C   UNL     1       1.606   0.786  -1.579  0.00  0.00    +0.002 A 
ATOM     29  C   UNL     1       0.535   0.097  -2.158  0.00  0.00    +0.055 A 
ATOM     30  C   UNL     1       0.654  -1.254  -2.416  0.00  0.00    +0.121 A 
ATOM     31  C   UNL     1       1.832  -1.929  -2.102  0.00  0.00    +0.047 A 
ATOM     32  C   UNL     1       2.893  -1.261  -1.532  0.00  0.00    +0.030 A 
ATOM     33  C   UNL     1       2.794   0.101  -1.264  0.00  0.00    +0.049 A 
ATOM     34  N   UNL     1       3.846   0.788  -0.693  0.00  0.00    -0.322 N 
ATOM     35  H   UNL     1       4.664   0.315  -0.476  0.00  0.00    +0.169 HD
ATOM     36  C   UNL     1       3.753   2.104  -0.433  0.00  0.00    +0.251 A 
ATOM     37  O   UNL     1       4.702   2.678   0.072  0.00  0.00    -0.268 OA
BRANCH  30  38
ATOM     38  O   UNL     1      -0.383  -1.929  -2.979  0.00  0.00    -0.492 OA
BRANCH  38  39
ATOM     39  C   UNL     1      -0.194  -3.325  -3.219  0.00  0.00    +0.225 C 
ATOM     40  C   UNL     1      -1.459  -3.910  -3.852  0.00  0.00    +0.048 C 
ENDBRANCH  38  39
ENDBRANCH  30  38
ENDBRANCH  25  26
ENDBRANCH   1  25
TORSDOF 11
