REMARK  Name = ZINC20682109
REMARK  8 active torsions:
REMARK  status: ('A' for Active; 'I' for Inactive)
REMARK    1  A    between atoms: C_4  and  O_7
REMARK    2  A    between atoms: O_7  and  C_8
REMARK    3  A    between atoms: C_8  and  C_9
REMARK    4  A    between atoms: C_9  and  O_10
REMARK    5  A    between atoms: O_10  and  C_11
REMARK    6  A    between atoms: C_24  and  C_27
REMARK    7  A    between atoms: C_30  and  O_34
REMARK    8  A    between atoms: C_32  and  O_33
REMARK                            x       y       z     vdW  Elec       q    Type
REMARK                         _______ _______ _______ _____ _____    ______ ____
ROOT
ATOM      1  C   UNL     1      -1.349   3.436  -2.518  0.00  0.00    +0.121 A 
ATOM      2  C   UNL     1      -2.031   2.738  -3.504  0.00  0.00    +0.047 A 
ATOM      3  C   UNL     1      -2.647   3.420  -4.533  0.00  0.00    +0.027 A 
ATOM      4  C   UNL     1      -2.590   4.807  -4.591  0.00  0.00    +0.032 A 
ATOM      5  C   UNL     1      -1.890   5.505  -3.601  0.00  0.00    -0.016 A 
ATOM      6  C   UNL     1      -1.286   4.820  -2.569  0.00  0.00    +0.051 A 
ATOM      7  C   UNL     1      -1.833   6.979  -3.716  0.00  0.00    +0.049 C 
ATOM      8  C   UNL     1      -1.647   7.852  -2.529  0.00  0.00    -0.023 C 
ATOM      9  C   UNL     1      -2.273   9.002  -2.746  0.00  0.00    -0.030 C 
ATOM     10  C   UNL     1      -2.966   8.970  -4.110  0.00  0.00    +0.033 C 
ATOM     11  C   UNL     1      -3.189   7.465  -4.309  0.00  0.00    +0.029 C 
ATOM     12  C   UNL     1      -3.214   6.952  -5.737  0.00  0.00    +0.108 C 
ATOM     13  N   UNL     1      -3.253   5.477  -5.630  0.00  0.00    -0.336 N 
ATOM     14  H   UNL     1      -3.809   4.886  -6.373  0.00  0.00    +0.147 HD
ENDROOT
BRANCH  12  15
ATOM     15  C   UNL     1      -1.971   7.388  -6.469  0.00  0.00    +0.015 A 
ATOM     16  C   UNL     1      -0.863   6.563  -6.500  0.00  0.00    +0.012 A 
ATOM     17  C   UNL     1       0.277   6.958  -7.174  0.00  0.00    +0.046 A 
ATOM     18  C   UNL     1       0.315   8.189  -7.813  0.00  0.00    +0.120 A 
ATOM     19  C   UNL     1      -0.793   9.021  -7.779  0.00  0.00    +0.091 A 
ATOM     20  C   UNL     1      -1.938   8.620  -7.106  0.00  0.00    +0.125 A 
BRANCH  20  21
ATOM     21  O   UNL     1      -3.026   9.433  -7.072  0.00  0.00    -0.506 OA
ATOM     22  H   UNL     1      -3.000  10.410  -7.577  0.00  0.00    +0.292 HD
ENDBRANCH  20  21
BRANCH  18  23
ATOM     23  O   UNL     1       1.438   8.579  -8.472  0.00  0.00    -0.507 OA
ATOM     24  H   UNL     1       1.467   9.555  -8.978  0.00  0.00    +0.292 HD
ENDBRANCH  18  23
ENDBRANCH  12  15
BRANCH   1  25
ATOM     25  O   UNL     1      -0.746   2.763  -1.501  0.00  0.00    -0.489 OA
BRANCH  25  26
ATOM     26  C   UNL     1      -0.856   1.339  -1.510  0.00  0.00    +0.270 C 
BRANCH  26  27
ATOM     27  C   UNL     1      -0.122   0.763  -0.297  0.00  0.00    +0.270 C 
BRANCH  27  28
ATOM     28  O   UNL     1      -0.776   1.185   0.901  0.00  0.00    -0.489 OA
BRANCH  28  32
ATOM     29  C   UNL     1       0.833  -0.113   4.471  0.00  0.00    +0.000 A 
ATOM     30  C   UNL     1      -0.290   0.694   4.473  0.00  0.00    +0.004 A 
ATOM     31  C   UNL     1      -0.830   1.129   3.279  0.00  0.00    +0.045 A 
ATOM     32  C   UNL     1      -0.246   0.757   2.077  0.00  0.00    +0.121 A 
ATOM     33  C   UNL     1       0.877  -0.057   2.077  0.00  0.00    +0.045 A 
ATOM     34  C   UNL     1       1.418  -0.485   3.274  0.00  0.00    +0.004 A 
ENDBRANCH  28  32
ENDBRANCH  27  28
ENDBRANCH  26  27
ENDBRANCH  25  26
ENDBRANCH   1  25
TORSDOF 8
