REMARK  Name = ZINC38688917
REMARK  5 active torsions:
REMARK  status: ('A' for Active; 'I' for Inactive)
REMARK    1  A    between atoms: C_1  and  N_2
REMARK    2  A    between atoms: C_3  and  C_15
REMARK    3  A    between atoms: C_16  and  C_17
REMARK    4  A    between atoms: C_20  and  O_26
REMARK    5  A    between atoms: O_26  and  C_27
REMARK                            x       y       z     vdW  Elec       q    Type
REMARK                         _______ _______ _______ _____ _____    ______ ____
ROOT
ATOM      1  C   UNL     1      -0.018   1.461   0.010  0.00  0.00    +0.134 C 
ATOM      2  N   UNL     1       0.002  -0.004   0.002  0.00  0.00    -0.279 N 
ATOM      3  C   UNL     1      -1.262  -0.739   0.004  0.00  0.00    +0.185 C 
ATOM      4  N   UNL     1      -1.112  -2.012  -0.711  0.00  0.00    -0.322 N 
ATOM      5  C   UNL     1       0.018  -2.783  -0.464  0.00  0.00    +0.041 A 
ATOM      6  C   UNL     1       0.001  -4.163  -0.569  0.00  0.00    +0.025 A 
ATOM      7  C   UNL     1       1.152  -4.883  -0.309  0.00  0.00    +0.016 A 
ATOM      8  C   UNL     1       2.322  -4.234   0.055  0.00  0.00    +0.014 A 
ATOM      9  C   UNL     1       2.356  -2.859   0.162  0.00  0.00    +0.029 A 
ATOM     10  C   UNL     1       1.204  -2.121  -0.098  0.00  0.00    +0.059 A 
ATOM     11  C   UNL     1       1.186  -0.650  -0.013  0.00  0.00    +0.250 C 
ATOM     12  O   UNL     1       2.228  -0.026   0.048  0.00  0.00    -0.270 OA
ATOM     13  I   UNL     1       4.051  -5.351   0.446  0.00  0.00    -0.044 I 
ATOM     14  H   UNL     1      -1.787  -2.309  -1.342  0.00  0.00    +0.148 HD
ENDROOT
BRANCH   3  15
ATOM     15  C   UNL     1      -1.676  -1.016   1.427  0.00  0.00    +0.015 C 
ATOM     16  C   UNL     1      -2.842  -0.541   1.890  0.00  0.00    +0.005 C 
BRANCH  16  17
ATOM     17  C   UNL     1      -3.229  -0.800   3.221  0.00  0.00    -0.019 C 
ATOM     18  C   UNL     1      -4.397  -0.390   3.850  0.00  0.00    +0.006 A 
ATOM     19  C   UNL     1      -5.506   0.367   3.405  0.00  0.00    +0.056 A 
ATOM     20  C   UNL     1      -6.533   0.623   4.258  0.00  0.00    +0.121 A 
ATOM     21  C   UNL     1      -6.523   0.152   5.580  0.00  0.00    +0.047 A 
ATOM     22  C   UNL     1      -5.495  -0.577   6.071  0.00  0.00    +0.029 A 
ATOM     23  C   UNL     1      -4.384  -0.885   5.239  0.00  0.00    +0.043 A 
ATOM     24  N   UNL     1      -3.283  -1.564   5.474  0.00  0.00    -0.380 N 
ATOM     25  C   UNL     1      -2.462  -1.589   4.260  0.00  0.00    +0.149 C 
ATOM     26  H   UNL     1      -3.052  -1.985   6.317  0.00  0.00    +0.160 HD
BRANCH  20  27
ATOM     27  O   UNL     1      -7.594   1.351   3.820  0.00  0.00    -0.495 OA
ATOM     28  C   UNL     1      -8.646   1.591   4.757  0.00  0.00    +0.277 C 
ENDBRANCH  20  27
ENDBRANCH  16  17
ENDBRANCH   3  15
TORSDOF 3
