REMARK  Name = ZINC13634841
REMARK  8 active torsions:
REMARK  status: ('A' for Active; 'I' for Inactive)
REMARK    1  A    between atoms: C_1  and  C_2
REMARK    2  A    between atoms: C_2  and  C_3
REMARK    3  A    between atoms: C_2  and  C_4
REMARK    4  A    between atoms: C_9  and  S_27
REMARK    5  A    between atoms: C_17  and  S_22
REMARK    6  A    between atoms: S_22  and  N_25
REMARK    7  A    between atoms: S_27  and  C_28
REMARK    8  A    between atoms: C_33  and  N_34
REMARK                            x       y       z     vdW  Elec       q    Type
REMARK                         _______ _______ _______ _____ _____    ______ ____
ROOT
ATOM      1  C   UNL     1       3.543   3.289   1.792  0.00  0.00    +0.077 C 
ATOM      2  C   UNL     1       3.124   1.846   1.574  0.00  0.00    +0.019 C 
ATOM      3  C   UNL     1       2.899   1.408   0.124  0.00  0.00    +0.022 C 
ATOM      4  C   UNL     1       1.971   0.171   0.279  0.00  0.00    +0.070 C 
ATOM      5  C   UNL     1       1.245   0.337   1.639  0.00  0.00    +0.101 C 
ATOM      6  C   UNL     1       1.697   1.689   2.166  0.00  0.00    +0.044 C 
ATOM      7  C   UNL     1       1.782   1.911   3.630  0.00  0.00    -0.020 A 
ATOM      8  C   UNL     1       0.942   1.256   4.506  0.00  0.00    +0.034 A 
ATOM      9  C   UNL     1       1.028   1.495   5.865  0.00  0.00    +0.105 A 
ATOM     10  C   UNL     1       1.960   2.395   6.350  0.00  0.00    +0.030 A 
ATOM     11  C   UNL     1       2.811   3.048   5.482  0.00  0.00    +0.025 A 
ATOM     12  C   UNL     1       2.737   2.808   4.114  0.00  0.00    +0.031 A 
ATOM     13  N   UNL     1       3.623   3.471   3.257  0.00  0.00    -0.340 N 
ATOM     14 CL   UNL     1      -0.542   0.323   1.401  0.00  0.00    -0.120 Cl
ATOM     15  H   UNL     1       4.300   4.057   3.630  0.00  0.00    +0.146 HD
ENDROOT
BRANCH   1  17
ATOM     16  C   UNL     1       2.826   5.675   1.604  0.00  0.00    +0.009 C 
ATOM     17  C   UNL     1       2.500   4.237   1.197  0.00  0.00    +0.003 C 
ATOM     18  C   UNL     1       2.518   4.121  -0.329  0.00  0.00    +0.009 C 
ENDBRANCH   1  17
BRANCH   9  19
ATOM     19  S   UNL     1      -0.049   0.656   6.978  0.00  0.00    +0.056 S 
ATOM     20  O   UNL     1      -0.459  -0.538   6.324  0.00  0.00    -0.153 OA
ATOM     21  O   UNL     1       0.600   0.647   8.242  0.00  0.00    -0.153 OA
BRANCH  19  22
ATOM     22  N   UNL     1      -1.404   1.592   7.147  0.00  0.00    -0.204 NA
ATOM     23  H   UNL     1      -2.261   1.176   7.331  0.00  0.00    +0.144 HD
ATOM     24  H   UNL     1      -1.341   2.556   7.062  0.00  0.00    +0.144 HD
ENDBRANCH  19  22
ENDBRANCH   9  19
BRANCH   4  25
ATOM     25  S   UNL     1       0.762   0.127  -1.073  0.00  0.00    -0.118 S 
BRANCH  25  26
ATOM     26  C   UNL     1      -0.112  -1.382  -0.814  0.00  0.00    +0.038 A 
ATOM     27  C   UNL     1       0.225  -2.208   0.252  0.00  0.00    +0.017 A 
ATOM     28  C   UNL     1      -0.466  -3.386   0.455  0.00  0.00    +0.001 A 
ATOM     29  C   UNL     1      -1.483  -3.751  -0.408  0.00  0.00    +0.002 A 
ATOM     30  C   UNL     1      -1.817  -2.934  -1.474  0.00  0.00    +0.034 A 
ATOM     31  C   UNL     1      -1.134  -1.751  -1.679  0.00  0.00    +0.140 A 
BRANCH  31  32
ATOM     32  N   UNL     1      -1.492  -0.879  -2.820  0.00  0.00    +0.058 N 
ATOM     33  O   UNL     1      -2.388  -1.203  -3.578  0.00  0.00    -0.126 OA
ATOM     34  O   UNL     1      -0.889   0.164  -3.001  0.00  0.00    -0.126 OA
ENDBRANCH  31  32
ENDBRANCH  25  26
ENDBRANCH   4  25
TORSDOF 6
