REMARK  Name = ZINC36621771
REMARK  11 active torsions:
REMARK  status: ('A' for Active; 'I' for Inactive)
REMARK    1  A    between atoms: C_1  and  C_2
REMARK    2  A    between atoms: C_2  and  O_3
REMARK    3  A    between atoms: O_3  and  C_4
REMARK    4  A    between atoms: C_4  and  C_6
REMARK    5  A    between atoms: C_7  and  N_32
REMARK    6  A    between atoms: N_15  and  N_16
REMARK    7  A    between atoms: C_20  and  N_31
REMARK    8  A    between atoms: C_21  and  C_26
REMARK    9  A    between atoms: C_26  and  O_28
REMARK   10  A    between atoms: O_28  and  C_29
REMARK   11  A    between atoms: C_29  and  C_30
REMARK                            x       y       z     vdW  Elec       q    Type
REMARK                         _______ _______ _______ _____ _____    ______ ____
ROOT
ATOM      1  C   UNL     1      -2.843  -2.417   0.016  0.00  0.00    +0.091 A 
ATOM      2  C   UNL     1      -3.511  -2.699  -1.178  0.00  0.00    +0.078 A 
ATOM      3  S   UNL     1      -4.987  -3.336  -0.681  0.00  0.00    -0.072 S 
ATOM      4  C   UNL     1      -4.760  -3.250   1.067  0.00  0.00    +0.041 A 
ATOM      5  C   UNL     1      -3.490  -2.706   1.218  0.00  0.00    -0.016 A 
ATOM      6  C   UNL     1      -2.937  -2.470   2.616  0.00  0.00    +0.037 C 
ATOM      7  C   UNL     1      -4.119  -2.253   3.566  0.00  0.00    +0.011 C 
ATOM      8  C   UNL     1      -5.073  -3.447   3.531  0.00  0.00    +0.059 C 
ATOM      9  C   UNL     1      -5.604  -3.624   2.122  0.00  0.00    +0.078 C 
ATOM     10  N   UNL     1      -6.800  -4.119   1.899  0.00  0.00    -0.153 NA
ENDROOT
BRANCH  10  11
ATOM     11  N   UNL     1      -7.554  -4.455   2.889  0.00  0.00    -0.153 NA
ATOM     12  C   UNL     1      -8.749  -4.949   2.666  0.00  0.00    +0.078 C 
ATOM     13  C   UNL     1      -9.596  -5.318   3.721  0.00  0.00    +0.041 A 
ATOM     14  S   UNL     1      -9.352  -5.273   5.469  0.00  0.00    -0.072 S 
ATOM     15  C   UNL     1     -10.836  -5.891   5.965  0.00  0.00    +0.078 A 
ATOM     16  C   UNL     1     -11.522  -6.129   4.772  0.00  0.00    +0.091 A 
ATOM     17  C   UNL     1     -10.880  -5.827   3.570  0.00  0.00    -0.016 A 
ATOM     18  C   UNL     1     -11.459  -6.003   2.174  0.00  0.00    +0.037 C 
ATOM     19  C   UNL     1     -10.793  -4.978   1.250  0.00  0.00    +0.011 C 
ATOM     20  C   UNL     1      -9.275  -5.139   1.256  0.00  0.00    +0.059 C 
BRANCH  15  21
ATOM     21  N   UNL     1     -11.273  -6.112   7.251  0.00  0.00    -0.352 N 
ATOM     22  H   UNL     1     -10.695  -5.904   8.002  0.00  0.00    +0.143 HD
ATOM     23  H   UNL     1     -12.158  -6.477   7.407  0.00  0.00    +0.143 HD
ENDBRANCH  15  21
BRANCH  16  24
ATOM     24  C   UNL     1     -12.880  -6.680   4.782  0.00  0.00    +0.342 C 
ATOM     25  O   UNL     1     -13.839  -5.933   4.819  0.00  0.00    -0.245 OA
BRANCH  24  26
ATOM     26  O   UNL     1     -13.065  -8.016   4.750  0.00  0.00    -0.461 OA
BRANCH  26  27
ATOM     27  C   UNL     1     -14.415  -8.483   4.762  0.00  0.00    +0.229 C 
ATOM     28  C   UNL     1     -14.426 -10.013   4.722  0.00  0.00    +0.048 C 
ENDBRANCH  26  27
ENDBRANCH  24  26
ENDBRANCH  16  24
ENDBRANCH  10  11
BRANCH   2  29
ATOM     29  N   UNL     1      -3.065  -2.501  -2.464  0.00  0.00    -0.352 N 
ATOM     30  H   UNL     1      -2.186  -2.122  -2.620  0.00  0.00    +0.143 HD
ATOM     31  H   UNL     1      -3.629  -2.740  -3.216  0.00  0.00    +0.143 HD
ENDBRANCH   2  29
BRANCH   1  32
ATOM     32  C   UNL     1      -1.497  -1.838   0.006  0.00  0.00    +0.342 C 
ATOM     33  O   UNL     1      -0.523  -2.566  -0.007  0.00  0.00    -0.245 OA
BRANCH  32  34
ATOM     34  O   UNL     1      -1.339  -0.499   0.012  0.00  0.00    -0.461 OA
BRANCH  34  36
ATOM     35  C   UNL     1      -0.019   1.526   0.010  0.00  0.00    +0.048 C 
ATOM     36  C   UNL     1       0.002  -0.004   0.002  0.00  0.00    +0.229 C 
ENDBRANCH  34  36
ENDBRANCH  32  34
ENDBRANCH   1  32
TORSDOF 9
