REMARK  Name = ZINC63686624
REMARK  10 active torsions:
REMARK  status: ('A' for Active; 'I' for Inactive)
REMARK    1  A    between atoms: C_1  and  C_2
REMARK    2  A    between atoms: C_2  and  C_3
REMARK    3  A    between atoms: C_6  and  O_9
REMARK    4  A    between atoms: O_9  and  C_10
REMARK    5  A    between atoms: C_10  and  C_11
REMARK    6  A    between atoms: C_15  and  S_20
REMARK    7  A    between atoms: N_17  and  C_18
REMARK    8  A    between atoms: C_18  and  C_19
REMARK    9  A    between atoms: S_20  and  C_21
REMARK   10  A    between atoms: C_21  and  C_22
REMARK                            x       y       z     vdW  Elec       q    Type
REMARK                         _______ _______ _______ _____ _____    ______ ____
ROOT
ATOM      1  C   UNL     1      -7.330  -2.612  -0.783  0.00  0.00    +0.178 C 
ATOM      2  N   UNL     1      -8.150  -1.895   0.220  0.00  0.00    -0.234 NA
ATOM      3  N   UNL     1      -8.990  -2.941   0.824  0.00  0.00    -0.229 NA
ATOM      4  C   UNL     1      -8.073  -4.108   0.895  0.00  0.00    +0.200 C 
ATOM      5  N   UNL     1      -7.279  -4.025  -0.354  0.00  0.00    -0.259 NA
ATOM      6  H   UNL     1      -8.717  -1.184  -0.218  0.00  0.00    +0.142 HD
ATOM      7  H   UNL     1      -9.301  -2.668   1.744  0.00  0.00    +0.143 HD
ENDROOT
BRANCH   5   8
ATOM      8  C   UNL     1      -5.894  -4.457  -0.127  0.00  0.00    +0.085 C 
ATOM      9  C   UNL     1      -5.872  -5.950   0.203  0.00  0.00    +0.020 C 
ENDBRANCH   5   8
BRANCH   1  10
ATOM     10  C   UNL     1      -5.918  -2.025  -0.824  0.00  0.00    +0.265 C 
BRANCH  10  11
ATOM     11  O   UNL     1      -5.973  -0.686  -1.320  0.00  0.00    -0.489 OA
BRANCH  11  15
ATOM     12  C   UNL     1      -2.397   1.349  -1.620  0.00  0.00    -0.047 A 
ATOM     13  C   UNL     1      -3.576   1.967  -1.992  0.00  0.00    +0.007 A 
ATOM     14  C   UNL     1      -4.775   1.288  -1.893  0.00  0.00    +0.046 A 
ATOM     15  C   UNL     1      -4.795  -0.016  -1.419  0.00  0.00    +0.121 A 
ATOM     16  C   UNL     1      -3.611  -0.634  -1.046  0.00  0.00    +0.046 A 
ATOM     17  C   UNL     1      -2.414   0.048  -1.152  0.00  0.00    +0.007 A 
BRANCH  12  19
ATOM     18  C   UNL     1      -0.485   1.858  -3.114  0.00  0.00    +0.009 C 
ATOM     19  C   UNL     1      -1.091   2.092  -1.729  0.00  0.00    +0.032 C 
ENDBRANCH  12  19
ENDBRANCH  11  15
ENDBRANCH  10  11
ENDBRANCH   1  10
BRANCH   4  20
ATOM     20  S   UNL     1      -9.018  -5.656   0.948  0.00  0.00    -0.119 S 
BRANCH  20  21
ATOM     21  C   UNL     1     -10.001  -5.622  -0.576  0.00  0.00    +0.125 C 
BRANCH  21  22
ATOM     22  C   UNL     1     -10.844  -6.869  -0.658  0.00  0.00    +0.030 A 
ATOM     23  N   UNL     1     -10.244  -8.041  -0.978  0.00  0.00    -0.356 N 
ATOM     24  C   UNL     1     -10.958  -9.215  -1.070  0.00  0.00    +0.069 A 
ATOM     25  C   UNL     1     -12.342  -9.206  -0.826  0.00  0.00    +0.046 A 
ATOM     26  C   UNL     1     -13.076 -10.388  -0.917  0.00  0.00    +0.014 A 
ATOM     27  C   UNL     1     -12.442 -11.555  -1.244  0.00  0.00    +0.002 A 
ATOM     28  C   UNL     1     -11.076 -11.572  -1.485  0.00  0.00    +0.022 A 
ATOM     29  C   UNL     1     -10.332 -10.415  -1.401  0.00  0.00    +0.065 A 
ATOM     30 CL   UNL     1      -8.623 -10.451  -1.706  0.00  0.00    -0.081 Cl
ATOM     31  C   UNL     1     -12.985  -7.926  -0.478  0.00  0.00    +0.190 A 
ATOM     32  O   UNL     1     -14.183  -7.862  -0.257  0.00  0.00    -0.287 OA
ATOM     33  C   UNL     1     -12.166  -6.776  -0.404  0.00  0.00    +0.073 A 
ATOM     34  H   UNL     1      -9.289  -8.053  -1.147  0.00  0.00    +0.166 HD
ENDBRANCH  21  22
ENDBRANCH  20  21
ENDBRANCH   4  20
TORSDOF 8
