REMARK  Name = ZINC25382917
REMARK  10 active torsions:
REMARK  status: ('A' for Active; 'I' for Inactive)
REMARK    1  A    between atoms: C_1  and  C_2
REMARK    2  A    between atoms: C_2  and  C_3
REMARK    3  A    between atoms: C_6  and  C_9
REMARK    4  A    between atoms: C_9  and  C_11
REMARK    5  A    between atoms: C_9  and  N_32
REMARK    6  A    between atoms: C_11  and  N_12
REMARK    7  A    between atoms: C_13  and  C_15
REMARK    8  A    between atoms: C_15  and  N_16
REMARK    9  A    between atoms: N_32  and  C_33
REMARK   10  A    between atoms: N_32  and  C_34
REMARK                            x       y       z     vdW  Elec       q    Type
REMARK                         _______ _______ _______ _____ _____    ______ ____
ROOT
ATOM      1  N   UNL     1       7.022   1.854  -4.782  0.00  0.00    -0.315 N 
ATOM      2  C   UNL     1       6.395   1.046  -3.904  0.00  0.00    +0.231 C 
ATOM      3  O   UNL     1       5.466   1.469  -3.248  0.00  0.00    -0.274 OA
ATOM      4  H   UNL     1       7.864   1.471  -5.377  0.00  0.00    +0.149 HD
ENDROOT
BRANCH   1   5
ATOM      5  C   UNL     1       6.583   3.243  -4.943  0.00  0.00    +0.093 C 
BRANCH   5   6
ATOM      6  C   UNL     1       7.534   3.972  -5.894  0.00  0.00    -0.021 C 
BRANCH   6  10
ATOM      7  C   UNL     1      11.439   4.115  -4.168  0.00  0.00    -0.048 A 
ATOM      8  C   UNL     1      11.144   3.169  -5.133  0.00  0.00    +0.004 A 
ATOM      9  C   UNL     1       9.880   3.123  -5.691  0.00  0.00    +0.002 A 
ATOM     10  C   UNL     1       8.912   4.022  -5.285  0.00  0.00    -0.059 A 
ATOM     11  C   UNL     1       9.209   4.971  -4.324  0.00  0.00    +0.002 A 
ATOM     12  C   UNL     1      10.471   5.014  -3.762  0.00  0.00    +0.004 A 
BRANCH   7  14
ATOM     13  C   UNL     1      13.704   5.102  -4.384  0.00  0.00    +0.009 C 
ATOM     14  C   UNL     1      12.817   4.165  -3.560  0.00  0.00    +0.032 C 
ENDBRANCH   7  14
ENDBRANCH   6  10
BRANCH   6  15
ATOM     15  N   UNL     1       7.048   5.340  -6.119  0.00  0.00    +0.382 N 
ATOM     16  C   UNL     1       7.910   6.055  -7.069  0.00  0.00    -0.096 C 
ATOM     17  C   UNL     1       5.652   5.334  -6.576  0.00  0.00    -0.096 C 
ATOM     18  H   UNL     1       7.087   5.875  -5.159  0.00  0.00    -0.082 HD
ENDBRANCH   6  15
ENDBRANCH   5   6
ENDBRANCH   1   5
BRANCH   2  19
ATOM     19  C   UNL     1       6.846  -0.382  -3.739  0.00  0.00    +0.213 C 
BRANCH  19  20
ATOM     20  N   UNL     1       6.011  -1.045  -2.734  0.00  0.00    -0.215 N 
ATOM     21  C   UNL     1       4.869  -1.705  -3.014  0.00  0.00    +0.251 C 
ATOM     22  O   UNL     1       4.358  -1.857  -4.103  0.00  0.00    -0.272 OA
ATOM     23  C   UNL     1       4.361  -2.216  -1.685  0.00  0.00    +0.138 C 
ATOM     24  C   UNL     1       4.304  -3.739  -1.691  0.00  0.00    +0.040 C 
ATOM     25  C   UNL     1       3.134  -4.176  -2.580  0.00  0.00    +0.008 C 
ATOM     26  C   UNL     1       1.829  -3.792  -1.887  0.00  0.00    +0.035 C 
ATOM     27  C   UNL     1       1.848  -2.342  -1.481  0.00  0.00    -0.042 A 
ATOM     28  C   UNL     1       3.016  -1.618  -1.379  0.00  0.00    -0.012 A 
ATOM     29  C   UNL     1       2.968  -0.288  -0.984  0.00  0.00    +0.006 A 
ATOM     30  C   UNL     1       1.761   0.316  -0.698  0.00  0.00    +0.000 A 
ATOM     31  C   UNL     1       0.589  -0.409  -0.805  0.00  0.00    +0.000 A 
ATOM     32  C   UNL     1       0.634  -1.732  -1.195  0.00  0.00    +0.004 A 
ATOM     33  N   UNL     1       5.361  -1.745  -0.717  0.00  0.00    -0.281 N 
ATOM     34  C   UNL     1       6.287  -1.070  -1.425  0.00  0.00    +0.310 C 
ATOM     35  O   UNL     1       7.263  -0.542  -0.929  0.00  0.00    -0.252 OA
ATOM     36  H   UNL     1       5.244  -1.975   0.352  0.00  0.00    +0.152 HD
ENDBRANCH  19  20
ENDBRANCH   2  19
TORSDOF 7
