REMARK  Name = ZINC10304483
REMARK  6 active torsions:
REMARK  status: ('A' for Active; 'I' for Inactive)
REMARK    1  A    between atoms: C_1  and  C_2
REMARK    2  A    between atoms: C_3  and  C_12
REMARK    3  A    between atoms: C_12  and  C_28
REMARK    4  A    between atoms: N_13  and  N_14
REMARK    5  A    between atoms: C_15  and  C_16
REMARK    6  A    between atoms: C_15  and  C_22
REMARK                            x       y       z     vdW  Elec       q    Type
REMARK                         _______ _______ _______ _____ _____    ______ ____
ROOT
ATOM      1  C   UNL     1      -3.015  -0.009   1.636  0.00  0.00    +0.074 C 
ATOM      2  N   UNL     1      -4.026  -0.607   1.052  0.00  0.00    -0.153 NA
ATOM      3  C   UNL     1      -2.941   1.496   1.659  0.00  0.00    +0.068 C 
ENDROOT
BRANCH   1   6
ATOM      4  C   UNL     1      -0.617  -0.675   0.147  0.00  0.00    +0.064 C 
ATOM      5  C   UNL     1      -0.806  -1.133   1.571  0.00  0.00    +0.031 A 
ATOM      6  C   UNL     1      -1.958  -0.805   2.264  0.00  0.00    +0.081 A 
ATOM      7  C   UNL     1      -2.089  -1.279   3.653  0.00  0.00    +0.263 A 
ATOM      8  O   UNL     1      -3.081  -1.019   4.308  0.00  0.00    -0.267 OA
ATOM      9  N   UNL     1      -1.084  -2.008   4.183  0.00  0.00    -0.275 N 
ATOM     10  H   UNL     1      -1.152  -2.330   5.096  0.00  0.00    +0.173 HD
ATOM     11  C   UNL     1       0.009  -2.293   3.455  0.00  0.00    +0.327 A 
ATOM     12  O   UNL     1       0.896  -2.951   3.962  0.00  0.00    -0.247 OA
ATOM     13  N   UNL     1       0.152  -1.878   2.187  0.00  0.00    -0.311 N 
ATOM     14  H   UNL     1       0.957  -2.112   1.699  0.00  0.00    +0.170 HD
ENDBRANCH   1   6
BRANCH   2  15
ATOM     15  N   UNL     1      -4.907   0.089   0.416  0.00  0.00    -0.148 NA
ATOM     16  C   UNL     1      -5.972  -0.498  -0.086  0.00  0.00    +0.100 C 
BRANCH  16  17
ATOM     17  C   UNL     1      -6.919   0.274  -0.918  0.00  0.00    +0.003 A 
ATOM     18  C   UNL     1      -8.149  -0.280  -1.279  0.00  0.00    +0.010 A 
ATOM     19  C   UNL     1      -9.028   0.446  -2.055  0.00  0.00    +0.001 A 
ATOM     20  C   UNL     1      -8.693   1.722  -2.475  0.00  0.00    +0.000 A 
ATOM     21  C   UNL     1      -7.476   2.277  -2.121  0.00  0.00    +0.001 A 
ATOM     22  C   UNL     1      -6.590   1.564  -1.341  0.00  0.00    +0.010 A 
ENDBRANCH  16  17
BRANCH  16  23
ATOM     23  C   UNL     1      -6.222  -1.930   0.182  0.00  0.00    +0.003 A 
ATOM     24  C   UNL     1      -6.750  -2.749  -0.819  0.00  0.00    +0.010 A 
ATOM     25  C   UNL     1      -6.981  -4.084  -0.562  0.00  0.00    +0.001 A 
ATOM     26  C   UNL     1      -6.689  -4.613   0.684  0.00  0.00    +0.000 A 
ATOM     27  C   UNL     1      -6.166  -3.807   1.679  0.00  0.00    +0.001 A 
ATOM     28  C   UNL     1      -5.926  -2.471   1.435  0.00  0.00    +0.010 A 
ENDBRANCH  16  23
ENDBRANCH   2  15
TORSDOF 4
