REMARK  Name = ZINC36245895
REMARK  17 active torsions:
REMARK  status: ('A' for Active; 'I' for Inactive)
REMARK    1  A    between atoms: C_1  and  C_2
REMARK    2  A    between atoms: C_2  and  N_3
REMARK    3  A    between atoms: N_3  and  C_4
REMARK    4  A    between atoms: N_3  and  C_6
REMARK    5  A    between atoms: C_4  and  C_5
REMARK    6  A    between atoms: C_7  and  C_17
REMARK    7  A    between atoms: C_8  and  C_11
REMARK    8  A    between atoms: C_17  and  N_18
REMARK    9  A    between atoms: N_18  and  C_19
REMARK   10  A    between atoms: N_18  and  C_26
REMARK   11  A    between atoms: C_19  and  C_20
REMARK   12  A    between atoms: C_26  and  C_27
REMARK   13  A    between atoms: C_27  and  C_29
REMARK   14  A    between atoms: C_27  and  O_38
REMARK   15  A    between atoms: C_29  and  O_30
REMARK   16  A    between atoms: O_30  and  C_31
REMARK   17  A    between atoms: C_36  and  C_37
REMARK                            x       y       z     vdW  Elec       q    Type
REMARK                         _______ _______ _______ _____ _____    ______ ____
ROOT
ATOM      1  N   UNL     1       2.145  -3.107   3.314  0.00  0.00    +0.386 N 
ATOM      2  H   UNL     1       2.026  -3.076   2.313  0.00  0.00    -0.081 HD
ENDROOT
BRANCH   1   3
ATOM      3  C   UNL     1       1.831  -1.790   3.885  0.00  0.00    -0.035 C 
BRANCH   3   5
ATOM      4  C   UNL     1       2.377  -0.243   1.929  0.00  0.00    +0.222 A 
ATOM      5  C   UNL     1       2.629  -0.730   3.171  0.00  0.00    +0.025 A 
ATOM      6  C   UNL     1       3.767  -0.067   3.675  0.00  0.00    +0.117 A 
ATOM      7  N   UNL     1       4.178   0.783   2.763  0.00  0.00    -0.076 NA
ATOM      8  O   UNL     1       3.311   0.681   1.648  0.00  0.00    -0.339 OA
BRANCH   6   9
ATOM      9  C   UNL     1       4.391  -0.292   5.003  0.00  0.00    +0.004 A 
ATOM     10  C   UNL     1       3.592  -0.460   6.132  0.00  0.00    +0.010 A 
ATOM     11  C   UNL     1       4.178  -0.669   7.364  0.00  0.00    +0.001 A 
ATOM     12  C   UNL     1       5.555  -0.712   7.480  0.00  0.00    +0.000 A 
ATOM     13  C   UNL     1       6.354  -0.546   6.362  0.00  0.00    +0.001 A 
ATOM     14  C   UNL     1       5.778  -0.342   5.124  0.00  0.00    +0.010 A 
ENDBRANCH   6   9
BRANCH   4  15
ATOM     15  N   UNL     1       1.345  -0.635   1.096  0.00  0.00    -0.300 N 
BRANCH  15  17
ATOM     16  C   UNL     1      -0.807  -0.512   2.252  0.00  0.00    +0.024 C 
ATOM     17  C   UNL     1       0.062   0.073   1.138  0.00  0.00    +0.104 C 
ENDBRANCH  15  17
BRANCH  15  18
ATOM     18  C   UNL     1       1.534  -1.756   0.173  0.00  0.00    +0.104 C 
ATOM     19  C   UNL     1       2.156  -1.247  -1.128  0.00  0.00    +0.024 C 
ENDBRANCH  15  18
ENDBRANCH   4  15
ENDBRANCH   3   5
ENDBRANCH   1   3
BRANCH   1  20
ATOM     20  C   UNL     1       3.536  -3.458   3.631  0.00  0.00    -0.046 C 
BRANCH  20  21
ATOM     21  C   UNL     1       4.471  -2.819   2.602  0.00  0.00    +0.102 C 
ATOM     22  C   UNL     1       5.934  -3.261   2.857  0.00  0.00    +0.032 C 
ATOM     23  C   UNL     1       6.547  -3.079   1.442  0.00  0.00    +0.030 C 
ATOM     24  C   UNL     1       5.364  -3.447   0.522  0.00  0.00    +0.160 C 
ATOM     25  O   UNL     1       4.158  -3.292   1.282  0.00  0.00    -0.378 OA
ENDBRANCH  20  21
ENDBRANCH   1  20
BRANCH   1  26
ATOM     26  C   UNL     1       1.243  -4.116   3.884  0.00  0.00    -0.043 C 
BRANCH  26  27
ATOM     27  C   UNL     1       1.458  -5.453   3.173  0.00  0.00    +0.135 C 
BRANCH  27  28
ATOM     28  O   UNL     1       1.103  -5.322   1.795  0.00  0.00    -0.390 OA
ATOM     29  H   UNL     1       0.182  -5.066   1.649  0.00  0.00    +0.210 HD
ENDBRANCH  27  28
BRANCH  27  30
ATOM     30  C   UNL     1       0.583  -6.525   3.826  0.00  0.00    +0.258 C 
BRANCH  30  31
ATOM     31  O   UNL     1       0.870  -7.796   3.239  0.00  0.00    -0.489 OA
BRANCH  31  32
ATOM     32  C   UNL     1       0.173  -8.864   3.709  0.00  0.00    +0.124 A 
ATOM     33  C   UNL     1      -0.771  -8.691   4.711  0.00  0.00    +0.046 A 
ATOM     34  C   UNL     1      -1.478  -9.777   5.188  0.00  0.00    +0.004 A 
ATOM     35  C   UNL     1      -1.246 -11.037   4.667  0.00  0.00    +0.000 A 
ATOM     36  C   UNL     1      -0.305 -11.212   3.669  0.00  0.00    +0.007 A 
ATOM     37  C   UNL     1       0.401 -10.127   3.185  0.00  0.00    -0.009 A 
ATOM     38  C   UNL     1       1.421 -10.318   2.093  0.00  0.00    +0.047 C 
ENDBRANCH  31  32
ENDBRANCH  30  31
ENDBRANCH  27  30
ENDBRANCH  26  27
ENDBRANCH   1  26
TORSDOF 14
