REMARK  Name = ZINC02106677
REMARK  12 active torsions:
REMARK  status: ('A' for Active; 'I' for Inactive)
REMARK    1  A    between atoms: C_1  and  C_2
REMARK    2  A    between atoms: C_2  and  C_3
REMARK    3  A    between atoms: C_3  and  C_5
REMARK    4  A    between atoms: C_3  and  C_6
REMARK    5  A    between atoms: C_6  and  C_8
REMARK    6  A    between atoms: C_6  and  N_52
REMARK    7  A    between atoms: C_8  and  O_10
REMARK    8  A    between atoms: O_10  and  C_11
REMARK    9  A    between atoms: C_13  and  C_32
REMARK   10  A    between atoms: C_18  and  C_28
REMARK   11  A    between atoms: C_19  and  C_22
REMARK   12  A    between atoms: C_25  and  C_27
REMARK                            x       y       z     vdW  Elec       q    Type
REMARK                         _______ _______ _______ _____ _____    ______ ____
ROOT
ATOM      1  C   UNL     1       1.984  -2.548  -2.352  0.00  0.00    +0.135 A 
ATOM      2  C   UNL     1       1.565  -3.614  -3.146  0.00  0.00    +0.050 A 
ATOM      3  C   UNL     1       1.952  -3.694  -4.453  0.00  0.00    -0.033 A 
ATOM      4  C   UNL     1       2.772  -2.704  -4.995  0.00  0.00    +0.068 A 
ATOM      5  C   UNL     1       3.201  -1.625  -4.203  0.00  0.00    +0.143 A 
ATOM      6  C   UNL     1       2.793  -1.555  -2.877  0.00  0.00    +0.093 A 
ATOM      7  O   UNL     1       3.993  -0.669  -4.728  0.00  0.00    -0.450 OA
ATOM      8  C   UNL     1       4.413  -0.679  -5.996  0.00  0.00    +0.221 A 
ATOM      9  C   UNL     1       4.074  -1.661  -6.870  0.00  0.00    +0.095 A 
ATOM     10  C   UNL     1       3.209  -2.758  -6.401  0.00  0.00    +0.202 A 
ATOM     11  O   UNL     1       2.872  -3.666  -7.141  0.00  0.00    -0.286 OA
ATOM     12  C   UNL     1       1.494  -4.848  -5.307  0.00  0.00    +0.045 C 
ENDROOT
BRANCH   9  13
ATOM     13  C   UNL     1       4.564  -1.630  -8.270  0.00  0.00    +0.086 A 
ATOM     14  C   UNL     1       5.135  -2.734  -8.842  0.00  0.00    +0.075 A 
ATOM     15  S   UNL     1       5.505  -2.105 -10.473  0.00  0.00    -0.080 S 
ATOM     16  C   UNL     1       4.897  -0.496 -10.241  0.00  0.00    +0.076 A 
ATOM     17  N   UNL     1       4.466  -0.532  -9.003  0.00  0.00    -0.244 NA
ATOM     18  C   UNL     1       4.869   0.653 -11.216  0.00  0.00    +0.073 C 
ENDBRANCH   9  13
BRANCH   8  19
ATOM     19  C   UNL     1       5.297   0.443  -6.476  0.00  0.00    +0.451 C 
ATOM     20  F   UNL     1       4.567   1.280  -7.327  0.00  0.00    -0.163 F 
ATOM     21  F   UNL     1       5.753   1.179  -5.377  0.00  0.00    -0.163 F 
ATOM     22  F   UNL     1       6.390  -0.088  -7.168  0.00  0.00    -0.163 F 
ENDBRANCH   8  19
BRANCH   1  23
ATOM     23  O   UNL     1       1.592  -2.481  -1.054  0.00  0.00    -0.427 OA
BRANCH  23  24
ATOM     24  C   UNL     1       2.215  -3.294  -0.185  0.00  0.00    +0.298 C 
ATOM     25  O   UNL     1       3.015  -4.106  -0.586  0.00  0.00    -0.252 OA
BRANCH  24  26
ATOM     26  C   UNL     1       1.915  -3.194   1.288  0.00  0.00    +0.039 C 
BRANCH  26  29
ATOM     27  H   UNL     1       3.124  -4.776   1.811  0.00  0.00    -0.089 HD
ATOM     28  H   UNL     1       3.873  -3.295   1.918  0.00  0.00    -0.089 HD
ATOM     29  N   UNL     1       3.003  -3.800   2.076  0.00  0.00    +0.387 N 
ATOM     30  H   UNL     1       2.764  -3.751   3.074  0.00  0.00    -0.089 HD
ENDBRANCH  26  29
BRANCH  26  31
ATOM     31  C   UNL     1       0.609  -3.930   1.594  0.00  0.00    -0.018 C 
ATOM     32  C   UNL     1      -0.532  -3.295   0.798  0.00  0.00    +0.006 C 
BRANCH  31  34
ATOM     33  C   UNL     1      -0.931  -4.667   3.418  0.00  0.00    +0.004 C 
ATOM     34  C   UNL     1       0.305  -3.828   3.090  0.00  0.00    -0.001 C 
ENDBRANCH  31  34
ENDBRANCH  26  31
ENDBRANCH  24  26
ENDBRANCH  23  24
ENDBRANCH   1  23
TORSDOF 8
