REMARK  Name = ZINC04328269
REMARK  11 active torsions:
REMARK  status: ('A' for Active; 'I' for Inactive)
REMARK    1  A    between atoms: C_1  and  C_2
REMARK    2  A    between atoms: C_2  and  S_3
REMARK    3  A    between atoms: S_3  and  C_4
REMARK    4  A    between atoms: C_4  and  S_25
REMARK    5  A    between atoms: C_5  and  C_23
REMARK    6  A    between atoms: C_6  and  C_22
REMARK    7  A    between atoms: C_7  and  C_21
REMARK    8  A    between atoms: C_8  and  C_15
REMARK    9  A    between atoms: C_10  and  C_13
REMARK   10  A    between atoms: S_25  and  C_26
REMARK   11  A    between atoms: C_26  and  C_27
REMARK                            x       y       z     vdW  Elec       q    Type
REMARK                         _______ _______ _______ _____ _____    ______ ____
ROOT
ATOM      1  C   UNL     1       3.424  -2.759   2.954  0.00  0.00    +0.157 C 
ATOM      2  C   UNL     1       3.480  -2.249   1.512  0.00  0.00    +0.148 C 
ATOM      3  C   UNL     1       4.232  -3.091   0.521  0.00  0.00    -0.032 C 
ATOM      4  C   UNL     1       3.824  -2.918  -0.745  0.00  0.00    -0.014 C 
ATOM      5  C   UNL     1       1.724  -1.690  -0.117  0.00  0.00    +0.113 C 
ATOM      6  C   UNL     1       1.980  -2.487   1.140  0.00  0.00    +0.156 C 
ATOM      7  C   UNL     1       1.272  -2.138   2.401  0.00  0.00    +0.092 C 
ATOM      8  N   UNL     1      -0.023  -1.698   2.492  0.00  0.00    -0.347 N 
ATOM      9  C   UNL     1       4.473  -3.714  -1.847  0.00  0.00    +0.059 C 
ATOM     10  C   UNL     1       5.337  -4.038   0.912  0.00  0.00    +0.042 C 
ATOM     11  H   UNL     1      -0.344  -1.304   3.318  0.00  0.00    +0.143 HD
ATOM     12  H   UNL     1      -0.617  -1.780   1.730  0.00  0.00    +0.143 HD
ATOM     13  N   UNL     1       2.817  -1.977  -1.140  0.00  0.00    -0.401 NA
ATOM     14  H   UNL     1       2.368  -2.341  -1.988  0.00  0.00    +0.124 HD
ATOM     15  H   UNL     1       3.288  -1.090  -1.355  0.00  0.00    +0.124 HD
ATOM     16  N   UNL     1       2.080  -2.317   3.421  0.00  0.00    -0.351 N 
ATOM     17  H   UNL     1       1.821  -2.172   4.404  0.00  0.00    +0.163 HD
ENDROOT
BRANCH   5  18
ATOM     18  C   UNL     1       1.737  -0.216   0.195  0.00  0.00    -0.027 A 
ATOM     19  C   UNL     1       2.736   0.590  -0.317  0.00  0.00    +0.005 A 
ATOM     20  C   UNL     1       2.749   1.943  -0.030  0.00  0.00    +0.000 A 
ATOM     21  C   UNL     1       1.761   2.489   0.768  0.00  0.00    +0.000 A 
ATOM     22  C   UNL     1       0.762   1.683   1.281  0.00  0.00    +0.000 A 
ATOM     23  C   UNL     1       0.750   0.331   0.994  0.00  0.00    +0.005 A 
ENDBRANCH   5  18
BRANCH   6  24
ATOM     24  C   UNL     1       1.772  -3.917   0.859  0.00  0.00    +0.081 C 
ATOM     25  N   UNL     1       1.612  -5.021   0.643  0.00  0.00    -0.195 NA
ENDBRANCH   6  24
BRANCH   2  26
ATOM     26  C   UNL     1       3.876  -0.833   1.442  0.00  0.00    +0.080 C 
ATOM     27  N   UNL     1       4.181   0.260   1.387  0.00  0.00    -0.195 NA
ENDBRANCH   2  26
BRANCH   1  28
ATOM     28  S   UNL     1       3.557  -4.567   3.002  0.00  0.00    -0.121 S 
BRANCH  28  30
ATOM     29  C   UNL     1       2.387  -6.577   4.441  0.00  0.00    +0.015 C 
ATOM     30  C   UNL     1       2.298  -5.068   4.207  0.00  0.00    +0.069 C 
ENDBRANCH  28  30
ENDBRANCH   1  28
BRANCH   1  31
ATOM     31  S   UNL     1       4.729  -1.994   3.956  0.00  0.00    -0.121 S 
BRANCH  31  32
ATOM     32  C   UNL     1       4.400  -2.594   5.636  0.00  0.00    +0.069 C 
ATOM     33  C   UNL     1       5.362  -1.919   6.616  0.00  0.00    +0.015 C 
ENDBRANCH  31  32
ENDBRANCH   1  31
TORSDOF 7
