REMARK  Name = ZINC09541955
REMARK  9 active torsions:
REMARK  status: ('A' for Active; 'I' for Inactive)
REMARK    1  A    between atoms: C_1  and  O_2
REMARK    2  A    between atoms: O_2  and  C_3
REMARK    3  A    between atoms: C_7  and  C_9
REMARK    4  A    between atoms: C_11  and  C_24
REMARK    5  A    between atoms: C_13  and  C_16
REMARK    6  A    between atoms: C_21  and  O_22
REMARK    7  A    between atoms: C_27  and  C_30
REMARK    8  A    between atoms: C_30  and  O_32
REMARK    9  A    between atoms: O_32  and  C_33
REMARK                            x       y       z     vdW  Elec       q    Type
REMARK                         _______ _______ _______ _____ _____    ______ ____
ROOT
ATOM      1  C   UNL     1      -0.064   5.325   0.033  0.00  0.00    +0.040 C 
ATOM      2  N   UNL     1      -1.196   5.922   0.041  0.00  0.00    -0.299 NA
ATOM      3  C   UNL     1      -1.356   7.371   0.066  0.00  0.00    +0.081 C 
ATOM      4  C   UNL     1       1.025   7.516   0.426  0.00  0.00    -0.028 C 
ATOM      5  C   UNL     1       1.250   6.055   0.025  0.00  0.00    +0.044 C 
ATOM      6  N   UNL     1      -0.115   8.039  -0.353  0.00  0.00    +0.401 N 
ATOM      7  H   UNL     1      -0.201   9.049  -0.194  0.00  0.00    -0.081 HD
ATOM      8  H   UNL     1       0.046   7.862  -1.352  0.00  0.00    -0.081 HD
ENDROOT
BRANCH   4   9
ATOM      9  C   UNL     1       2.259   8.324   0.118  0.00  0.00    -0.019 A 
ATOM     10  C   UNL     1       2.315   9.091  -1.030  0.00  0.00    +0.007 A 
ATOM     11  C   UNL     1       3.445   9.836  -1.311  0.00  0.00    +0.020 A 
ATOM     12  C   UNL     1       4.527   9.807  -0.448  0.00  0.00    +0.044 A 
ATOM     13  C   UNL     1       4.478   9.036   0.698  0.00  0.00    +0.065 A 
ATOM     14  C   UNL     1       3.343   8.293   0.984  0.00  0.00    +0.120 A 
ATOM     15 CL   UNL     1       5.948  10.739  -0.807  0.00  0.00    -0.083 Cl
BRANCH  14  16
ATOM     16  O   UNL     1       3.291   7.535   2.111  0.00  0.00    -0.507 OA
ATOM     17  H   UNL     1       3.613   6.630   1.992  0.00  0.00    +0.292 HD
ENDBRANCH  14  16
ENDBRANCH   4   9
BRANCH   1  22
ATOM     18  C   UNL     1      -1.226   1.751   0.017  0.00  0.00    +0.121 A 
ATOM     19  C   UNL     1      -0.013   1.076   0.008  0.00  0.00    +0.045 A 
ATOM     20  C   UNL     1       1.177   1.781   0.000  0.00  0.00    +0.004 A 
ATOM     21  C   UNL     1       1.166   3.161   0.008  0.00  0.00    +0.010 A 
ATOM     22  C   UNL     1      -0.049   3.848   0.024  0.00  0.00    -0.001 A 
ATOM     23  C   UNL     1      -1.249   3.135   0.031  0.00  0.00    +0.055 A 
BRANCH  18  25
ATOM     24  C   UNL     1      -2.294  -0.373   0.010  0.00  0.00    +0.277 C 
ATOM     25  O   UNL     1      -2.392   1.053   0.019  0.00  0.00    -0.495 OA
ENDBRANCH  18  25
ENDBRANCH   1  22
BRANCH   3  26
ATOM     26  C   UNL     1      -2.467   7.761  -0.874  0.00  0.00    -0.040 A 
ATOM     27  C   UNL     1      -2.447   9.001  -1.487  0.00  0.00    +0.004 A 
ATOM     28  C   UNL     1      -3.458   9.362  -2.353  0.00  0.00    +0.015 A 
ATOM     29  C   UNL     1      -4.509   8.477  -2.602  0.00  0.00    +0.059 A 
ATOM     30  C   UNL     1      -4.525   7.229  -1.976  0.00  0.00    +0.015 A 
ATOM     31  C   UNL     1      -3.505   6.878  -1.117  0.00  0.00    +0.004 A 
BRANCH  29  32
ATOM     32  C   UNL     1      -5.599   8.859  -3.524  0.00  0.00    +0.339 C 
ATOM     33  O   UNL     1      -6.511   8.087  -3.738  0.00  0.00    -0.245 OA
BRANCH  32  34
ATOM     34  O   UNL     1      -5.580  10.064  -4.126  0.00  0.00    -0.464 OA
ATOM     35  C   UNL     1      -6.683  10.372  -5.018  0.00  0.00    +0.280 C 
ENDBRANCH  32  34
ENDBRANCH  29  32
ENDBRANCH   3  26
TORSDOF 7
