REMARK  Name = ZINC67464379
REMARK  8 active torsions:
REMARK  status: ('A' for Active; 'I' for Inactive)
REMARK    1  A    between atoms: C_1  and  C_2
REMARK    2  A    between atoms: C_4  and  C_14
REMARK    3  A    between atoms: C_7  and  N_8
REMARK    4  A    between atoms: N_16  and  N_17
REMARK    5  A    between atoms: N_17  and  C_18
REMARK    6  A    between atoms: C_18  and  N_20
REMARK    7  A    between atoms: N_20  and  C_21
REMARK    8  A    between atoms: C_27  and  C_29
REMARK                            x       y       z     vdW  Elec       q    Type
REMARK                         _______ _______ _______ _____ _____    ______ ____
ROOT
ATOM      1  C   UNL     1       0.029  -2.816  -2.482  0.00  0.00    +0.260 C 
ATOM      2  O   UNL     1       0.015  -2.204  -3.533  0.00  0.00    -0.269 OA
ATOM      3  N   UNL     1       0.047  -4.163  -2.487  0.00  0.00    -0.231 N 
ATOM      4  H   UNL     1       0.059  -4.651  -1.649  0.00  0.00    +0.173 HD
ENDROOT
BRANCH   1   8
ATOM      5  C   UNL     1      -0.018   1.503   0.010  0.00  0.00    +0.046 C 
ATOM      6  C   UNL     1       0.002  -0.004   0.002  0.00  0.00    -0.028 A 
ATOM      7  C   UNL     1       0.006  -0.685  -1.194  0.00  0.00    +0.018 A 
ATOM      8  C   UNL     1       0.025  -2.082  -1.201  0.00  0.00    +0.039 A 
ATOM      9  C   UNL     1       0.041  -2.784   0.008  0.00  0.00    +0.015 A 
ATOM     10  C   UNL     1       0.037  -2.097   1.200  0.00  0.00    +0.024 A 
ATOM     11  C   UNL     1       0.023  -0.705   1.203  0.00  0.00    +0.041 A 
BRANCH  11  12
ATOM     12  N   UNL     1       0.025  -0.012   2.413  0.00  0.00    -0.254 N 
ATOM     13  C   UNL     1      -1.172   0.390   3.167  0.00  0.00    +0.134 C 
ATOM     14  C   UNL     1      -0.604   1.112   4.404  0.00  0.00    +0.125 C 
ATOM     15  N   UNL     1       0.853   1.040   4.216  0.00  0.00    -0.297 N 
ATOM     16  C   UNL     1       1.118   0.388   3.077  0.00  0.00    +0.307 C 
ATOM     17  O   UNL     1       2.248   0.181   2.679  0.00  0.00    -0.252 OA
ATOM     18  H   UNL     1       1.516   1.404   4.823  0.00  0.00    +0.150 HD
ENDBRANCH  11  12
ENDBRANCH   1   8
BRANCH   3  19
ATOM     19  N   UNL     1       0.051  -4.860  -3.703  0.00  0.00    -0.246 N 
ATOM     20  H   UNL     1       0.040  -4.372  -4.541  0.00  0.00    +0.172 HD
BRANCH  19  21
ATOM     21  C   UNL     1       0.070  -6.207  -3.707  0.00  0.00    +0.147 C 
ATOM     22  S   UNL     1       0.074  -7.058  -5.193  0.00  0.00    -0.017 S 
BRANCH  21  23
ATOM     23  N   UNL     1       0.085  -6.885  -2.543  0.00  0.00    -0.322 N 
ATOM     24  H   UNL     1       0.083  -6.403  -1.701  0.00  0.00    +0.148 HD
BRANCH  23  25
ATOM     25  C   UNL     1       0.105  -8.350  -2.548  0.00  0.00    +0.075 C 
ATOM     26  C   UNL     1       1.549  -8.839  -2.683  0.00  0.00    +0.022 C 
ATOM     27  C   UNL     1       2.375  -8.322  -1.504  0.00  0.00    +0.002 C 
ATOM     28  C   UNL     1       1.780  -8.845  -0.195  0.00  0.00    +0.000 C 
ATOM     29  C   UNL     1       0.336  -8.356  -0.060  0.00  0.00    +0.005 C 
ATOM     30  C   UNL     1      -0.490  -8.873  -1.239  0.00  0.00    +0.006 C 
ATOM     31  C   UNL     1      -1.933  -8.383  -1.104  0.00  0.00    +0.009 C 
ENDBRANCH  23  25
ENDBRANCH  21  23
ENDBRANCH  19  21
ENDBRANCH   3  19
TORSDOF 6
