REMARK  Name = ZINC12591361
REMARK  9 active torsions:
REMARK  status: ('A' for Active; 'I' for Inactive)
REMARK    1  A    between atoms: C_4  and  C_7
REMARK    2  A    between atoms: C_7  and  C_8
REMARK    3  A    between atoms: C_7  and  C_27
REMARK    4  A    between atoms: C_8  and  N_60
REMARK    5  A    between atoms: C_14  and  C_16
REMARK    6  A    between atoms: C_16  and  C_17
REMARK    7  A    between atoms: N_19  and  C_20
REMARK    8  A    between atoms: C_20  and  C_21
REMARK    9  A    between atoms: C_21  and  C_22
REMARK                            x       y       z     vdW  Elec       q    Type
REMARK                         _______ _______ _______ _____ _____    ______ ____
ROOT
ATOM      1  C   UNL     1       7.952  -4.396  -4.324  0.00  0.00    -0.059 C 
ATOM      2  C   UNL     1       8.398  -5.833  -4.046  0.00  0.00    +0.085 C 
ATOM      3  N   UNL     1       7.257  -6.739  -4.148  0.00  0.00    -0.318 N 
ATOM      4  C   UNL     1       5.990  -6.320  -4.089  0.00  0.00    +0.200 C 
ATOM      5  O   UNL     1       5.103  -7.145  -4.150  0.00  0.00    -0.278 OA
ATOM      6  C   UNL     1       5.617  -4.871  -3.953  0.00  0.00    +0.028 C 
ATOM      7  H   UNL     1       7.427  -7.687  -4.262  0.00  0.00    +0.149 HD
ATOM      8  N   UNL     1       6.783  -4.107  -3.470  0.00  0.00    +0.389 N 
ATOM      9  H   UNL     1       6.993  -4.391  -2.505  0.00  0.00    -0.081 HD
ENDROOT
BRANCH   8  10
ATOM     10  C   UNL     1       6.484  -2.657  -3.491  0.00  0.00    -0.065 C 
BRANCH  10  11
ATOM     11  C   UNL     1       7.742  -1.881  -3.100  0.00  0.00    +0.032 C 
BRANCH  11  15
ATOM     12  C   UNL     1       6.902   2.308  -3.144  0.00  0.00    +0.000 A 
ATOM     13  C   UNL     1       6.088   1.447  -2.433  0.00  0.00    +0.000 A 
ATOM     14  C   UNL     1       6.360   0.091  -2.418  0.00  0.00    +0.004 A 
ATOM     15  C   UNL     1       7.446  -0.403  -3.116  0.00  0.00    -0.042 A 
ATOM     16  C   UNL     1       8.263   0.458  -3.823  0.00  0.00    +0.004 A 
ATOM     17  C   UNL     1       7.988   1.813  -3.842  0.00  0.00    +0.000 A 
ENDBRANCH  11  15
BRANCH  11  18
ATOM     18  C   UNL     1       8.177  -2.291  -1.716  0.00  0.00    -0.042 A 
ATOM     19  C   UNL     1       7.276  -2.250  -0.669  0.00  0.00    +0.004 A 
ATOM     20  C   UNL     1       7.673  -2.631   0.599  0.00  0.00    +0.000 A 
ATOM     21  C   UNL     1       8.973  -3.043   0.822  0.00  0.00    +0.000 A 
ATOM     22  C   UNL     1       9.876  -3.079  -0.225  0.00  0.00    +0.000 A 
ATOM     23  C   UNL     1       9.477  -2.703  -1.494  0.00  0.00    +0.004 A 
ENDBRANCH  11  18
ENDBRANCH  10  11
ENDBRANCH   8  10
BRANCH   6  24
ATOM     24  C   UNL     1       4.477  -4.732  -2.942  0.00  0.00    +0.089 C 
BRANCH  24  25
ATOM     25  C   UNL     1       4.954  -5.180  -1.584  0.00  0.00    +0.212 C 
ATOM     26  O   UNL     1       6.069  -5.638  -1.453  0.00  0.00    -0.276 OA
ATOM     27  N   UNL     1       4.141  -5.071  -0.515  0.00  0.00    -0.315 N 
ATOM     28  H   UNL     1       3.249  -4.705  -0.619  0.00  0.00    +0.149 HD
BRANCH  27  29
ATOM     29  C   UNL     1       4.604  -5.506   0.805  0.00  0.00    +0.110 C 
BRANCH  29  30
ATOM     30  C   UNL     1       3.497  -5.276   1.836  0.00  0.00    +0.074 C 
BRANCH  30  31
ATOM     31  C   UNL     1       3.973  -5.724   3.194  0.00  0.00    +0.050 A 
ATOM     32  C   UNL     1       3.945  -4.877   4.254  0.00  0.00    +0.070 A 
ATOM     33  S   UNL     1       4.606  -5.934   5.535  0.00  0.00    -0.084 S 
ATOM     34  C   UNL     1       4.844  -7.349   4.558  0.00  0.00    +0.156 A 
ATOM     35  N   UNL     1       4.426  -6.946   3.380  0.00  0.00    -0.252 NA
ENDBRANCH  30  31
ENDBRANCH  29  30
ENDBRANCH  27  29
ENDBRANCH  24  25
ENDBRANCH   6  24
TORSDOF 9
