REMARK  Name = ZINC39464279
REMARK  6 active torsions:
REMARK  status: ('A' for Active; 'I' for Inactive)
REMARK    1  A    between atoms: C_4  and  O_37
REMARK    2  A    between atoms: C_5  and  C_7
REMARK    3  A    between atoms: C_12  and  C_13
REMARK    4  A    between atoms: C_18  and  O_19
REMARK    5  A    between atoms: P_24  and  C_30
REMARK    6  A    between atoms: C_35  and  O_36
REMARK                            x       y       z     vdW  Elec       q    Type
REMARK                         _______ _______ _______ _____ _____    ______ ____
ROOT
ATOM      1  C   UNL     1       1.245  -2.164  -0.022  0.00  0.00    -0.006 A 
ATOM      2  C   UNL     1       0.745  -2.869  -1.111  0.00  0.00    +0.013 A 
ATOM      3  C   UNL     1       0.768  -4.253  -1.122  0.00  0.00    -0.041 A 
ATOM      4  C   UNL     1       1.291  -4.949  -0.049  0.00  0.00    -0.023 A 
ATOM      5  C   UNL     1       1.793  -4.260   1.043  0.00  0.00    +0.014 A 
ATOM      6  C   UNL     1       1.781  -2.870   1.067  0.00  0.00    -0.006 A 
ATOM      7  C   UNL     1       1.339  -6.455  -0.020  0.00  0.00    +0.129 C 
ATOM      8  C   UNL     1       0.928  -6.940   1.373  0.00  0.00    +0.194 C 
ATOM      9  O   UNL     1       1.090  -8.371   1.429  0.00  0.00    -0.311 OA
ATOM     10  P   UNL     1       0.440  -9.268   0.238  0.00  0.00    +0.318 P 
ATOM     11  O   UNL     1       1.138 -10.569   0.139  0.00  0.00    -0.266 OA
ATOM     12  N   UNL     1       0.661  -8.394  -1.148  0.00  0.00    -0.175 NA
ATOM     13  N   UNL     1       0.464  -7.032  -1.040  0.00  0.00    -0.225 NA
ATOM     14  C   UNL     1       0.699  -6.406  -2.350  0.00  0.00    +0.108 C 
ATOM     15  C   UNL     1       0.211  -4.969  -2.326  0.00  0.00    +0.052 C 
ATOM     16  H   UNL     1       0.906  -8.819  -1.985  0.00  0.00    +0.151 HD
ENDROOT
BRANCH   1  21
ATOM     17  C   UNL     1      -0.017   1.376   0.010  0.00  0.00    +0.001 A 
ATOM     18  C   UNL     1       1.169   2.089   0.002  0.00  0.00    +0.004 A 
ATOM     19  C   UNL     1       2.382   1.426  -0.013  0.00  0.00    +0.046 A 
ATOM     20  C   UNL     1       2.416   0.041  -0.021  0.00  0.00    +0.125 A 
ATOM     21  C   UNL     1       1.219  -0.683  -0.013  0.00  0.00    +0.024 A 
ATOM     22  C   UNL     1       0.002  -0.004   0.002  0.00  0.00    +0.012 A 
BRANCH  20  23
ATOM     23  O   UNL     1       3.607  -0.611  -0.037  0.00  0.00    -0.506 OA
ATOM     24  H   UNL     1       3.961  -0.805   0.842  0.00  0.00    +0.292 HD
ENDBRANCH  20  23
ENDBRANCH   1  21
BRANCH   6  25
ATOM     25  C   UNL     1       2.324  -2.139   2.236  0.00  0.00    +0.024 A 
ATOM     26  C   UNL     1       3.683  -2.210   2.538  0.00  0.00    +0.012 A 
ATOM     27  C   UNL     1       4.183  -1.527   3.627  0.00  0.00    +0.001 A 
ATOM     28  C   UNL     1       3.340  -0.771   4.423  0.00  0.00    +0.004 A 
ATOM     29  C   UNL     1       1.991  -0.694   4.134  0.00  0.00    +0.046 A 
ATOM     30  C   UNL     1       1.476  -1.370   3.039  0.00  0.00    +0.125 A 
BRANCH  30  31
ATOM     31  O   UNL     1       0.150  -1.290   2.751  0.00  0.00    -0.506 OA
ATOM     32  H   UNL     1      -0.387  -1.970   3.179  0.00  0.00    +0.292 HD
ENDBRANCH  30  31
ENDBRANCH   6  25
BRANCH  10  33
ATOM     33  C   UNL     1      -1.329  -9.528   0.544  0.00  0.00    +0.094 A 
ATOM     34  C   UNL     1      -2.256  -8.634   0.043  0.00  0.00    +0.018 A 
ATOM     35  C   UNL     1      -3.604  -8.831   0.276  0.00  0.00    +0.001 A 
ATOM     36  C   UNL     1      -4.029  -9.924   1.010  0.00  0.00    +0.004 A 
ATOM     37  C   UNL     1      -3.106 -10.821   1.512  0.00  0.00    +0.046 A 
ATOM     38  C   UNL     1      -1.753 -10.628   1.275  0.00  0.00    +0.131 A 
BRANCH  38  39
ATOM     39  O   UNL     1      -0.843 -11.512   1.763  0.00  0.00    -0.506 OA
ATOM     40  H   UNL     1      -0.521 -11.296   2.649  0.00  0.00    +0.292 HD
ENDBRANCH  38  39
ENDBRANCH  10  33
TORSDOF 6
