REMARK  Name = ZINC07185714
REMARK  5 active torsions:
REMARK  status: ('A' for Active; 'I' for Inactive)
REMARK    1  A    between atoms: C_1  and  C_2
REMARK    2  A    between atoms: C_2  and  C_4
REMARK    3  A    between atoms: C_2  and  N_13
REMARK    4  A    between atoms: C_14  and  C_16
REMARK    5  A    between atoms: C_16  and  N_17
REMARK                            x       y       z     vdW  Elec       q    Type
REMARK                         _______ _______ _______ _____ _____    ______ ____
ROOT
ATOM      1  N   UNL     1      -6.448   1.848  -2.797  0.00  0.00    -0.215 N 
ATOM      2  C   UNL     1      -6.462   1.109  -3.925  0.00  0.00    +0.251 C 
ATOM      3  O   UNL     1      -5.551   0.951  -4.709  0.00  0.00    -0.272 OA
ATOM      4  C   UNL     1      -7.851   0.516  -4.004  0.00  0.00    +0.138 C 
ATOM      5  C   UNL     1      -8.553   0.997  -5.268  0.00  0.00    +0.040 C 
ATOM      6  C   UNL     1      -9.876   0.233  -5.411  0.00  0.00    +0.008 C 
ATOM      7  C   UNL     1      -9.559  -1.226  -5.732  0.00  0.00    +0.035 C 
ATOM      8  C   UNL     1      -8.576  -1.788  -4.739  0.00  0.00    -0.042 A 
ATOM      9  C   UNL     1      -7.784  -0.984  -3.948  0.00  0.00    -0.012 A 
ATOM     10  C   UNL     1      -6.888  -1.563  -3.060  0.00  0.00    +0.006 A 
ATOM     11  C   UNL     1      -6.787  -2.936  -2.961  0.00  0.00    +0.000 A 
ATOM     12  C   UNL     1      -7.583  -3.742  -3.752  0.00  0.00    +0.000 A 
ATOM     13  C   UNL     1      -8.473  -3.169  -4.637  0.00  0.00    +0.004 A 
ATOM     14  N   UNL     1      -8.529   1.042  -2.811  0.00  0.00    -0.281 N 
ATOM     15  C   UNL     1      -7.629   1.809  -2.167  0.00  0.00    +0.310 C 
ATOM     16  O   UNL     1      -7.862   2.400  -1.131  0.00  0.00    -0.252 OA
ATOM     17  H   UNL     1      -9.444   0.870  -2.540  0.00  0.00    +0.152 HD
ENDROOT
BRANCH   1  18
ATOM     18  C   UNL     1      -5.287   2.606  -2.323  0.00  0.00    +0.213 C 
BRANCH  18  20
ATOM     19  N   UNL     1      -3.329   2.223  -0.860  0.00  0.00    -0.304 N 
ATOM     20  C   UNL     1      -4.455   1.734  -1.417  0.00  0.00    +0.232 C 
ATOM     21  O   UNL     1      -4.798   0.593  -1.191  0.00  0.00    -0.274 OA
ATOM     22  H   UNL     1      -3.055   3.136  -1.041  0.00  0.00    +0.149 HD
BRANCH  19  24
ATOM     23  C   UNL     1      -3.078   1.440   1.443  0.00  0.00    +0.036 C 
ATOM     24  C   UNL     1      -2.520   1.377   0.020  0.00  0.00    +0.136 C 
BRANCH  24  25
ATOM     25  C   UNL     1      -1.095   1.866   0.017  0.00  0.00    +0.126 A 
ATOM     26  C   UNL     1      -0.013   1.076   0.008  0.00  0.00    +0.055 A 
ATOM     27  C   UNL     1       1.149   1.973   0.002  0.00  0.00    +0.020 A 
ATOM     28  C   UNL     1       2.530   1.781  -0.012  0.00  0.00    +0.011 A 
ATOM     29  C   UNL     1       3.365   2.863  -0.014  0.00  0.00    +0.001 A 
ATOM     30  C   UNL     1       2.847   4.150  -0.004  0.00  0.00    +0.004 A 
ATOM     31  C   UNL     1       1.485   4.360   0.009  0.00  0.00    +0.047 A 
ATOM     32  C   UNL     1       0.618   3.274   0.013  0.00  0.00    +0.135 A 
ATOM     33  O   UNL     1      -0.725   3.158   0.025  0.00  0.00    -0.458 OA
ENDBRANCH  24  25
ENDBRANCH  19  24
ENDBRANCH  18  20
ENDBRANCH   1  18
TORSDOF 4
