REMARK  Name = ZINC63647028
REMARK  4 active torsions:
REMARK  status: ('A' for Active; 'I' for Inactive)
REMARK    1  A    between atoms: C_2  and  C_18
REMARK    2  A    between atoms: C_9  and  C_12
REMARK    3  A    between atoms: C_18  and  S_19
REMARK    4  A    between atoms: S_19  and  C_20
REMARK                            x       y       z     vdW  Elec       q    Type
REMARK                         _______ _______ _______ _____ _____    ______ ____
ROOT
ATOM      1  C   UNL     1      -0.017   1.395   0.010  0.00  0.00    +0.096 A 
ATOM      2  C   UNL     1       1.159   2.088   0.002  0.00  0.00    +0.060 A 
ATOM      3  N   UNL     1       2.306   1.411  -0.030  0.00  0.00    -0.226 NA
ATOM      4  C   UNL     1       2.325   0.103  -0.045  0.00  0.00    +0.191 A 
ATOM      5  N   UNL     1       1.196  -0.673   0.001  0.00  0.00    -0.206 N 
ATOM      6  C   UNL     1       0.002  -0.004   0.002  0.00  0.00    +0.272 A 
ATOM      7  O   UNL     1      -1.046  -0.628  -0.004  0.00  0.00    -0.266 OA
ATOM      8  N   UNL     1       1.333  -2.031   0.065  0.00  0.00    -0.266 N 
ATOM      9  C   UNL     1       2.625  -2.558  -0.447  0.00  0.00    +0.156 C 
ATOM     10  S   UNL     1       3.667  -1.070  -0.125  0.00  0.00    -0.062 S 
ATOM     11  H   UNL     1       1.148  -2.370   0.997  0.00  0.00    +0.168 HD
ENDROOT
BRANCH   9  12
ATOM     12  C   UNL     1       3.101  -3.767   0.362  0.00  0.00    +0.021 C 
ATOM     13  C   UNL     1       3.172  -3.393   1.844  0.00  0.00    +0.006 C 
ATOM     14  C   UNL     1       3.647  -4.601   2.653  0.00  0.00    +0.000 C 
ATOM     15  C   UNL     1       5.035  -5.026   2.167  0.00  0.00    +0.000 C 
ATOM     16  C   UNL     1       4.964  -5.400   0.685  0.00  0.00    +0.000 C 
ATOM     17  C   UNL     1       4.488  -4.191  -0.123  0.00  0.00    +0.006 C 
ENDBRANCH   9  12
BRANCH   2  18
ATOM     18  C   UNL     1       1.159   3.595   0.029  0.00  0.00    +0.133 C 
BRANCH  18  19
ATOM     19  S   UNL     1       1.630   4.170   1.684  0.00  0.00    -0.078 S 
BRANCH  19  20
ATOM     20  C   UNL     1       1.584   5.927   1.554  0.00  0.00    +0.210 A 
ATOM     21  H   UNL     1       1.189   8.717   0.217  0.00  0.00    +0.192 HD
ATOM     22  N   UNL     1       1.862   6.787   2.540  0.00  0.00    -0.188 NA
ATOM     23  C   UNL     1       1.731   8.021   2.101  0.00  0.00    +0.209 A 
ATOM     24  N   UNL     1       1.361   7.965   0.804  0.00  0.00    -0.246 N 
ATOM     25  N   UNL     1       1.277   6.603   0.472  0.00  0.00    -0.144 NA
ATOM     26  N   UNL     1       1.936   9.172   2.839  0.00  0.00    -0.328 N 
ATOM     27  H   UNL     1       2.202   9.111   3.769  0.00  0.00    +0.145 HD
ATOM     28  H   UNL     1       1.813  10.041   2.425  0.00  0.00    +0.145 HD
ENDBRANCH  19  20
ENDBRANCH  18  19
ENDBRANCH   2  18
TORSDOF 4
