REMARK  Name = ZINC08868801
REMARK  9 active torsions:
REMARK  status: ('A' for Active; 'I' for Inactive)
REMARK    1  A    between atoms: C_1  and  C_2
REMARK    2  A    between atoms: C_5  and  S_8
REMARK    3  A    between atoms: S_8  and  N_11
REMARK    4  A    between atoms: C_15  and  C_17
REMARK    5  A    between atoms: N_19  and  C_20
REMARK    6  A    between atoms: C_20  and  C_21
REMARK    7  A    between atoms: C_21  and  N_60
REMARK    8  A    between atoms: C_22  and  N_60
REMARK    9  A    between atoms: C_23  and  N_60
REMARK                            x       y       z     vdW  Elec       q    Type
REMARK                         _______ _______ _______ _____ _____    ______ ____
ROOT
ATOM      1  C   UNL     1       1.673  -4.768  -0.016  0.00  0.00    +0.240 C 
ATOM      2  O   UNL     1       0.609  -4.254   0.256  0.00  0.00    -0.273 OA
ATOM      3  N   UNL     1       2.700  -4.007  -0.444  0.00  0.00    -0.251 N 
ATOM      4  C   UNL     1       3.885  -4.603  -0.844  0.00  0.00    +0.168 A 
ATOM      5  N   UNL     1       4.195  -5.878  -0.877  0.00  0.00    -0.224 NA
ATOM      6  C   UNL     1       5.401  -6.322  -1.294  0.00  0.00    +0.080 A 
ATOM      7  C   UNL     1       5.858  -7.657  -1.378  0.00  0.00    +0.030 A 
ATOM      8  C   UNL     1       7.122  -7.937  -1.827  0.00  0.00    +0.022 A 
ATOM      9  C   UNL     1       7.995  -6.929  -2.214  0.00  0.00    +0.042 A 
ATOM     10  C   UNL     1       7.580  -5.611  -2.145  0.00  0.00    +0.037 A 
ATOM     11  C   UNL     1       6.315  -5.322  -1.696  0.00  0.00    +0.042 A 
ATOM     12  S   UNL     1       5.380  -3.831  -1.446  0.00  0.00    -0.052 S 
ATOM     13 CL   UNL     1       9.590  -7.318  -2.778  0.00  0.00    -0.084 Cl
ENDROOT
BRANCH   1  18
ATOM     14  N   UNL     1       0.533  -6.911   0.206  0.00  0.00    -0.165 NA
ATOM     15  C   UNL     1       0.442  -7.636   1.487  0.00  0.00    +0.110 C 
ATOM     16  C   UNL     1       1.448  -6.918   2.421  0.00  0.00    +0.019 C 
ATOM     17  C   UNL     1       2.598  -6.576   1.438  0.00  0.00    +0.031 C 
ATOM     18  C   UNL     1       1.849  -6.258   0.127  0.00  0.00    +0.166 C 
BRANCH  14  19
ATOM     19  S   UNL     1      -0.650  -6.842  -0.951  0.00  0.00    +0.062 S 
ATOM     20  O   UNL     1      -1.881  -7.093  -0.287  0.00  0.00    -0.153 OA
ATOM     21  O   UNL     1      -0.416  -5.658  -1.701  0.00  0.00    -0.153 OA
BRANCH  19  26
ATOM     22  C   UNL     1       0.258 -11.474  -4.710  0.00  0.00    +0.044 C 
ATOM     23  C   UNL     1       0.032 -10.317  -3.771  0.00  0.00    -0.050 A 
ATOM     24  C   UNL     1      -0.776 -10.476  -2.660  0.00  0.00    +0.005 A 
ATOM     25  C   UNL     1      -0.984  -9.415  -1.799  0.00  0.00    +0.029 A 
ATOM     26  C   UNL     1      -0.384  -8.195  -2.048  0.00  0.00    +0.106 A 
ATOM     27  C   UNL     1       0.420  -8.034  -3.161  0.00  0.00    +0.029 A 
ATOM     28  C   UNL     1       0.632  -9.097  -4.019  0.00  0.00    +0.005 A 
ENDBRANCH  19  26
ENDBRANCH  14  19
ENDBRANCH   1  18
BRANCH   3  29
ATOM     29  C   UNL     1       2.562  -2.549  -0.487  0.00  0.00    +0.097 C 
BRANCH  29  30
ATOM     30  C   UNL     1       2.035  -2.126  -1.859  0.00  0.00    -0.060 C 
BRANCH  30  33
ATOM     31  C   UNL     1       3.101   0.045  -1.757  0.00  0.00    -0.097 C 
ATOM     32  C   UNL     1       1.100  -0.260  -3.086  0.00  0.00    -0.097 C 
ATOM     33  N   UNL     1       1.809  -0.665  -1.854  0.00  0.00    +0.377 N 
ATOM     34  H   UNL     1       1.231  -0.420  -1.041  0.00  0.00    -0.083 HD
ENDBRANCH  30  33
ENDBRANCH  29  30
ENDBRANCH   3  29
TORSDOF 6
