REMARK  Name = ZINC08744857
REMARK  5 active torsions:
REMARK  status: ('A' for Active; 'I' for Inactive)
REMARK    1  A    between atoms: C_4  and  N_7
REMARK    2  A    between atoms: C_10  and  S_17
REMARK    3  A    between atoms: S_17  and  C_18
REMARK    4  A    between atoms: C_18  and  C_19
REMARK    5  A    between atoms: C_22  and  C_25
REMARK                            x       y       z     vdW  Elec       q    Type
REMARK                         _______ _______ _______ _____ _____    ______ ____
ROOT
ATOM      1  N   UNL     1       3.623  -0.651  -0.037  0.00  0.00    -0.214 N 
ATOM      2  C   UNL     1       3.885  -1.839   0.584  0.00  0.00    +0.171 A 
ATOM      3  N   UNL     1       3.175  -2.677   1.335  0.00  0.00    -0.202 NA
ATOM      4  C   UNL     1       3.721  -3.785   1.809  0.00  0.00    +0.194 A 
ATOM      5  N   UNL     1       4.986  -4.115   1.566  0.00  0.00    -0.183 NA
ATOM      6  C   UNL     1       5.767  -3.340   0.828  0.00  0.00    +0.285 A 
ATOM      7  O   UNL     1       7.054  -3.684   0.587  0.00  0.00    -0.265 OA
ATOM      8  C   UNL     1       5.231  -2.150   0.302  0.00  0.00    +0.105 A 
ATOM      9  C   UNL     1       5.737  -1.105  -0.502  0.00  0.00    +0.150 A 
ATOM     10  N   UNL     1       4.786  -0.236  -0.698  0.00  0.00    -0.172 NA
ENDROOT
BRANCH   1  14
ATOM     11  C   UNL     1      -0.017   1.379   0.010  0.00  0.00    +0.000 A 
ATOM     12  C   UNL     1       1.170   2.089   0.002  0.00  0.00    +0.002 A 
ATOM     13  C   UNL     1       2.377   1.419  -0.013  0.00  0.00    +0.028 A 
ATOM     14  C   UNL     1       2.400   0.031  -0.021  0.00  0.00    +0.068 A 
ATOM     15  C   UNL     1       1.206  -0.680  -0.013  0.00  0.00    +0.028 A 
ATOM     16  C   UNL     1       0.002  -0.004   0.002  0.00  0.00    +0.002 A 
ENDBRANCH   1  14
BRANCH   4  17
ATOM     17  S   UNL     1       2.738  -4.861   2.798  0.00  0.00    -0.081 S 
BRANCH  17  18
ATOM     18  C   UNL     1       3.863  -6.219   3.221  0.00  0.00    +0.112 C 
BRANCH  18  19
ATOM     19  C   UNL     1       3.138  -7.225   4.078  0.00  0.00    -0.037 A 
ATOM     20  C   UNL     1       3.146  -7.089   5.455  0.00  0.00    +0.005 A 
ATOM     21  C   UNL     1       2.484  -8.006   6.245  0.00  0.00    +0.013 A 
ATOM     22  C   UNL     1       1.805  -9.072   5.652  0.00  0.00    +0.037 A 
ATOM     23  C   UNL     1       1.801  -9.203   4.263  0.00  0.00    +0.013 A 
ATOM     24  C   UNL     1       2.462  -8.276   3.484  0.00  0.00    +0.005 A 
BRANCH  22  25
ATOM     25  C   UNL     1       1.093 -10.058   6.493  0.00  0.00    +0.242 C 
ATOM     26  O   UNL     1       1.099  -9.942   7.703  0.00  0.00    -0.270 OA
ATOM     27  N   UNL     1       0.439 -11.086   5.918  0.00  0.00    -0.325 N 
ATOM     28  H   UNL     1       0.435 -11.179   4.952  0.00  0.00    +0.145 HD
ATOM     29  H   UNL     1      -0.028 -11.734   6.469  0.00  0.00    +0.145 HD
ENDBRANCH  22  25
ENDBRANCH  18  19
ENDBRANCH  17  18
ENDBRANCH   4  17
TORSDOF 5
