REMARK  Name = ZINC36637291
REMARK  14 active torsions:
REMARK  status: ('A' for Active; 'I' for Inactive)
REMARK    1  A    between atoms: C_1  and  N_2
REMARK    2  A    between atoms: N_2  and  C_3
REMARK    3  A    between atoms: N_2  and  C_4
REMARK    4  A    between atoms: C_4  and  C_5
REMARK    5  A    between atoms: C_5  and  N_6
REMARK    6  A    between atoms: C_12  and  O_16
REMARK    7  A    between atoms: O_16  and  C_17
REMARK    8  A    between atoms: C_18  and  C_20
REMARK    9  A    between atoms: C_23  and  S_26
REMARK   10  A    between atoms: S_26  and  N_29
REMARK   11  A    between atoms: N_29  and  C_30
REMARK   12  A    between atoms: N_29  and  C_33
REMARK   13  A    between atoms: C_30  and  C_31
REMARK   14  A    between atoms: C_33  and  C_34
REMARK                            x       y       z     vdW  Elec       q    Type
REMARK                         _______ _______ _______ _____ _____    ______ ____
ROOT
ATOM      1  N   UNL     1       3.044  -0.570  -2.222  0.00  0.00    -0.248 N 
ATOM      2  C   UNL     1       3.224   0.195  -3.363  0.00  0.00    +0.168 A 
ATOM      3  N   UNL     1       2.978   1.470  -3.546  0.00  0.00    -0.224 NA
ATOM      4  C   UNL     1       3.205   2.092  -4.725  0.00  0.00    +0.081 A 
ATOM      5  C   UNL     1       2.985   3.450  -5.051  0.00  0.00    +0.032 A 
ATOM      6  C   UNL     1       3.270   3.926  -6.304  0.00  0.00    +0.048 A 
ATOM      7  C   UNL     1       3.783   3.096  -7.297  0.00  0.00    +0.121 A 
ATOM      8  C   UNL     1       4.011   1.758  -7.010  0.00  0.00    +0.063 A 
ATOM      9  C   UNL     1       3.727   1.278  -5.756  0.00  0.00    +0.044 A 
ATOM     10  S   UNL     1       3.858  -0.305  -4.958  0.00  0.00    -0.052 S 
ATOM     11  C   UNL     1       3.365  -1.879  -2.230  0.00  0.00    +0.252 C 
ATOM     12  O   UNL     1       3.879  -2.372  -3.215  0.00  0.00    -0.270 OA
ENDROOT
BRANCH  11  13
ATOM     13  C   UNL     1       3.092  -2.713  -1.041  0.00  0.00    +0.037 A 
ATOM     14  C   UNL     1       1.959  -2.475  -0.262  0.00  0.00    +0.015 A 
ATOM     15  C   UNL     1       1.710  -3.258   0.846  0.00  0.00    +0.029 A 
ATOM     16  C   UNL     1       2.582  -4.277   1.186  0.00  0.00    +0.106 A 
ATOM     17  C   UNL     1       3.708  -4.519   0.418  0.00  0.00    +0.029 A 
ATOM     18  C   UNL     1       3.965  -3.747  -0.696  0.00  0.00    +0.015 A 
BRANCH  16  19
ATOM     19  S   UNL     1       2.258  -5.272   2.604  0.00  0.00    +0.061 S 
ATOM     20  O   UNL     1       3.507  -5.805   3.021  0.00  0.00    -0.153 OA
ATOM     21  O   UNL     1       1.435  -4.497   3.465  0.00  0.00    -0.153 OA
BRANCH  19  22
ATOM     22  N   UNL     1       1.340  -6.556   2.101  0.00  0.00    -0.169 NA
BRANCH  22  23
ATOM     23  C   UNL     1       1.989  -7.790   1.653  0.00  0.00    +0.136 C 
BRANCH  23  24
ATOM     24  C   UNL     1       2.071  -8.761   2.803  0.00  0.00    -0.018 C 
ATOM     25  C   UNL     1       1.572  -9.966   2.679  0.00  0.00    +0.005 C 
ENDBRANCH  23  24
ENDBRANCH  22  23
BRANCH  22  26
ATOM     26  C   UNL     1      -0.122  -6.457   2.105  0.00  0.00    +0.136 C 
BRANCH  26  27
ATOM     27  C   UNL     1      -0.601  -6.042   0.738  0.00  0.00    -0.018 C 
ATOM     28  C   UNL     1      -1.486  -6.771   0.105  0.00  0.00    +0.005 C 
ENDBRANCH  26  27
ENDBRANCH  22  26
ENDBRANCH  19  22
ENDBRANCH  16  19
ENDBRANCH  11  13
BRANCH   7  29
ATOM     29  O   UNL     1       4.058   3.591  -8.533  0.00  0.00    -0.495 OA
ATOM     30  C   UNL     1       3.795   4.979  -8.750  0.00  0.00    +0.277 C 
ENDBRANCH   7  29
BRANCH   1  31
ATOM     31  C   UNL     1       2.504   0.045  -1.007  0.00  0.00    +0.097 C 
BRANCH  31  32
ATOM     32  C   UNL     1       1.004   0.294  -1.184  0.00  0.00    -0.060 C 
BRANCH  32  34
ATOM     33  C   UNL     1       1.009   2.082   0.415  0.00  0.00    -0.097 C 
ATOM     34  N   UNL     1       0.434   0.772   0.082  0.00  0.00    +0.377 N 
ATOM     35  C   UNL     1      -1.023   0.897  -0.053  0.00  0.00    -0.097 C 
ATOM     36  H   UNL     1       0.649   0.114   0.817  0.00  0.00    -0.083 HD
ENDBRANCH  32  34
ENDBRANCH  31  32
ENDBRANCH   1  31
TORSDOF 11
