REMARK  Name = ZINC65259998
REMARK  6 active torsions:
REMARK  status: ('A' for Active; 'I' for Inactive)
REMARK    1  A    between atoms: C_1  and  C_2
REMARK    2  A    between atoms: C_4  and  C_32
REMARK    3  A    between atoms: N_5  and  C_7
REMARK    4  A    between atoms: C_7  and  C_8
REMARK    5  A    between atoms: C_8  and  C_9
REMARK    6  A    between atoms: N_26  and  C_27
REMARK                            x       y       z     vdW  Elec       q    Type
REMARK                         _______ _______ _______ _____ _____    ______ ____
ROOT
ATOM      1  C   UNL     1       1.525  -4.907   2.662  0.00  0.00    +0.217 C 
ATOM      2  O   UNL     1       0.484  -5.413   3.023  0.00  0.00    -0.276 OA
ATOM      3  N   UNL     1       2.702  -5.436   3.052  0.00  0.00    -0.299 N 
ATOM      4  C   UNL     1       3.973  -4.832   2.628  0.00  0.00    +0.108 C 
ATOM      5  C   UNL     1       4.822  -4.545   3.871  0.00  0.00    +0.021 C 
ATOM      6  C   UNL     1       4.982  -5.832   4.684  0.00  0.00    +0.036 C 
ATOM      7  C   UNL     1       3.611  -6.332   5.130  0.00  0.00    +0.102 C 
ATOM      8  C   UNL     1       2.740  -6.626   3.915  0.00  0.00    +0.141 C 
ATOM      9  C   UNL     1       3.771  -7.591   5.957  0.00  0.00    +0.098 C 
ATOM     10  N   UNL     1       4.334  -7.437   7.212  0.00  0.00    -0.301 N 
ATOM     11  C   UNL     1       3.983  -6.293   7.947  0.00  0.00    +0.053 A 
ATOM     12  C   UNL     1       4.306  -6.210   9.293  0.00  0.00    +0.025 A 
ATOM     13  C   UNL     1       3.966  -5.082  10.016  0.00  0.00    +0.002 A 
ATOM     14  C   UNL     1       3.306  -4.034   9.401  0.00  0.00    +0.002 A 
ATOM     15  C   UNL     1       2.978  -4.109   8.060  0.00  0.00    +0.025 A 
ATOM     16  C   UNL     1       3.311  -5.240   7.328  0.00  0.00    +0.049 A 
ATOM     17  N   UNL     1       2.959  -5.321   5.973  0.00  0.00    -0.329 N 
ATOM     18  N   UNL     1       3.401  -8.748   5.514  0.00  0.00    -0.372 N 
ATOM     19  H   UNL     1       2.296  -4.720   5.598  0.00  0.00    +0.147 HD
ATOM     20  H   UNL     1       3.009  -8.827   4.631  0.00  0.00    +0.161 HD
ATOM     21  H   UNL     1       4.949  -8.096   7.570  0.00  0.00    +0.153 HD
ENDROOT
BRANCH  18  22
ATOM     22  C   UNL     1       3.574  -9.941   6.347  0.00  0.00    +0.080 C 
ATOM     23  C   UNL     1       4.976 -10.545   6.121  0.00  0.00    +0.024 C 
ATOM     24  C   UNL     1       4.745 -12.075   6.186  0.00  0.00    +0.002 C 
ATOM     25  C   UNL     1       3.378 -12.245   5.477  0.00  0.00    +0.002 C 
ATOM     26  C   UNL     1       2.558 -11.022   5.938  0.00  0.00    +0.024 C 
ENDBRANCH  18  22
BRANCH   1  27
ATOM     27  C   UNL     1       1.504  -3.688   1.777  0.00  0.00    +0.119 C 
BRANCH  27  28
ATOM     28  C   UNL     1       0.055  -3.295   1.485  0.00  0.00    +0.153 C 
BRANCH  28  33
ATOM     29  C   UNL     1      -0.018   1.503   0.010  0.00  0.00    +0.067 C 
ATOM     30  C   UNL     1       0.002  -0.004   0.002  0.00  0.00    +0.060 A 
ATOM     31  C   UNL     1       0.008  -0.818  -1.135  0.00  0.00    +0.047 A 
ATOM     32  C   UNL     1       0.028  -2.107  -0.725  0.00  0.00    +0.036 A 
ATOM     33  N   UNL     1       0.034  -2.109   0.625  0.00  0.00    -0.268 N 
ATOM     34  N   UNL     1       0.023  -0.777   1.058  0.00  0.00    -0.176 NA
ATOM     35  C   UNL     1       0.040  -3.323  -1.615  0.00  0.00    +0.065 C 
ENDBRANCH  28  33
ENDBRANCH  27  28
ENDBRANCH   1  27
TORSDOF 4
