REMARK  Name = ZINC01785010
REMARK  7 active torsions:
REMARK  status: ('A' for Active; 'I' for Inactive)
REMARK    1  A    between atoms: C_4  and  N_7
REMARK    2  A    between atoms: C_16  and  S_17
REMARK    3  A    between atoms: S_17  and  C_18
REMARK    4  A    between atoms: C_18  and  C_19
REMARK    5  A    between atoms: N_21  and  N_22
REMARK    6  A    between atoms: C_23  and  C_24
REMARK    7  A    between atoms: C_28  and  N_30
REMARK                            x       y       z     vdW  Elec       q    Type
REMARK                         _______ _______ _______ _____ _____    ______ ____
ROOT
ATOM      1  N   UNL     1      -4.939  12.687   0.113  0.00  0.00    -0.255 N 
ATOM      2  C   UNL     1      -4.687  13.822   0.791  0.00  0.00    +0.268 A 
ATOM      3  O   UNL     1      -5.575  14.383   1.409  0.00  0.00    -0.267 OA
ATOM      4  C   UNL     1      -3.361  14.360   0.776  0.00  0.00    +0.076 A 
ATOM      5  C   UNL     1      -2.866  15.570   1.437  0.00  0.00    -0.023 A 
ATOM      6  C   UNL     1      -1.562  15.868   1.270  0.00  0.00    -0.004 A 
ATOM      7  S   UNL     1      -0.922  14.576   0.238  0.00  0.00    -0.073 S 
ATOM      8  C   UNL     1      -2.414  13.636   0.033  0.00  0.00    +0.117 A 
ATOM      9  N   UNL     1      -2.726  12.517  -0.611  0.00  0.00    -0.215 NA
ATOM     10  C   UNL     1      -3.956  12.044  -0.585  0.00  0.00    +0.178 A 
ATOM     11  C   UNL     1      -0.820  17.040   1.835  0.00  0.00    +0.043 C 
ATOM     12  C   UNL     1      -1.845  18.067   2.338  0.00  0.00    +0.005 C 
ATOM     13  C   UNL     1      -2.896  17.339   3.181  0.00  0.00    +0.005 C 
ATOM     14  C   UNL     1      -3.770  16.465   2.280  0.00  0.00    +0.037 C 
ENDROOT
BRANCH   1  18
ATOM     15  C   UNL     1      -8.794  11.102   0.144  0.00  0.00    +0.000 A 
ATOM     16  C   UNL     1      -7.885  10.724   1.115  0.00  0.00    +0.002 A 
ATOM     17  C   UNL     1      -6.607  11.248   1.107  0.00  0.00    +0.026 A 
ATOM     18  C   UNL     1      -6.235  12.154   0.123  0.00  0.00    +0.052 A 
ATOM     19  C   UNL     1      -7.152  12.536  -0.847  0.00  0.00    +0.026 A 
ATOM     20  C   UNL     1      -8.427  12.005  -0.837  0.00  0.00    +0.002 A 
ENDBRANCH   1  18
BRANCH  10  21
ATOM     21  S   UNL     1      -4.335  10.561  -1.457  0.00  0.00    -0.078 S 
BRANCH  21  22
ATOM     22  C   UNL     1      -2.710  10.184  -2.159  0.00  0.00    +0.174 C 
BRANCH  22  23
ATOM     23  C   UNL     1      -2.795   8.918  -2.971  0.00  0.00    +0.242 C 
ATOM     24  O   UNL     1      -3.850   8.327  -3.066  0.00  0.00    -0.273 OA
ATOM     25  N   UNL     1      -1.698   8.440  -3.592  0.00  0.00    -0.206 N 
ATOM     26  H   UNL     1      -0.854   8.912  -3.516  0.00  0.00    +0.177 HD
BRANCH  25  27
ATOM     27  N   UNL     1      -1.776   7.263  -4.346  0.00  0.00    -0.188 NA
ATOM     28  C   UNL     1      -0.720   6.803  -4.944  0.00  0.00    +0.138 C 
BRANCH  28  29
ATOM     29  C   UNL     1      -0.803   5.563  -5.738  0.00  0.00    -0.003 A 
ATOM     30  C   UNL     1      -2.017   4.881  -5.850  0.00  0.00    +0.009 A 
ATOM     31  C   UNL     1      -2.089   3.726  -6.600  0.00  0.00    +0.003 A 
ATOM     32  C   UNL     1      -0.959   3.236  -7.231  0.00  0.00    +0.033 A 
ATOM     33  C   UNL     1       0.247   3.906  -7.125  0.00  0.00    +0.127 A 
ATOM     34  C   UNL     1       0.332   5.066  -6.383  0.00  0.00    +0.042 A 
BRANCH  33  35
ATOM     35  N   UNL     1       1.448   3.377  -7.809  0.00  0.00    +0.056 N 
ATOM     36  O   UNL     1       1.375   2.353  -8.464  0.00  0.00    -0.126 OA
ATOM     37  O   UNL     1       2.510   3.966  -7.716  0.00  0.00    -0.126 OA
ENDBRANCH  33  35
ENDBRANCH  28  29
ENDBRANCH  25  27
ENDBRANCH  22  23
ENDBRANCH  21  22
ENDBRANCH  10  21
TORSDOF 7
