REMARK  Name = ZINC23230290
REMARK  9 active torsions:
REMARK  status: ('A' for Active; 'I' for Inactive)
REMARK    1  A    between atoms: C_1  and  C_2
REMARK    2  A    between atoms: C_2  and  N_3
REMARK    3  A    between atoms: N_3  and  C_4
REMARK    4  A    between atoms: N_3  and  C_6
REMARK    5  A    between atoms: C_4  and  C_5
REMARK    6  A    between atoms: C_9  and  C_13
REMARK    7  A    between atoms: C_10  and  O_12
REMARK    8  A    between atoms: N_14  and  N_15
REMARK    9  A    between atoms: C_16  and  C_18
REMARK                            x       y       z     vdW  Elec       q    Type
REMARK                         _______ _______ _______ _____ _____    ______ ____
ROOT
ATOM      1  N   UNL     1       4.902   5.954  -0.012  0.00  0.00    -0.203 N 
ATOM      2  C   UNL     1       4.872   4.606  -0.019  0.00  0.00    +0.268 C 
ATOM      3  O   UNL     1       5.912   3.974  -0.033  0.00  0.00    -0.268 OA
ATOM      4  H   UNL     1       3.962   6.525   0.000  0.00  0.00    +0.178 HD
ENDROOT
BRANCH   2   5
ATOM      5  C   UNL     1       3.582   3.899  -0.011  0.00  0.00    +0.098 A 
ATOM      6  C   UNL     1       2.393   4.603   0.004  0.00  0.00    +0.030 A 
ATOM      7  C   UNL     1       1.140   3.847   0.012  0.00  0.00    +0.021 A 
ATOM      8  C   UNL     1      -0.091   4.516   0.027  0.00  0.00    +0.031 A 
ATOM      9  C   UNL     1      -1.262   3.792   0.034  0.00  0.00    +0.043 A 
ATOM     10  C   UNL     1      -1.226   2.404   0.021  0.00  0.00    +0.043 A 
ATOM     11  C   UNL     1      -0.021   1.732   0.012  0.00  0.00    +0.085 A 
ATOM     12  C   UNL     1       1.174   2.442   0.004  0.00  0.00    +0.156 A 
ATOM     13  O   UNL     1       2.352   1.780  -0.011  0.00  0.00    -0.438 OA
ATOM     14  C   UNL     1       3.533   2.427  -0.019  0.00  0.00    +0.205 A 
ATOM     15  N   UNL     1       4.645   1.743  -0.033  0.00  0.00    -0.369 N 
ATOM     16 CL   UNL     1       0.002  -0.004   0.002  0.00  0.00    -0.080 Cl
ATOM     17 CL   UNL     1      -2.789   4.618   0.051  0.00  0.00    -0.083 Cl
ATOM     18  H   UNL     1       4.614   0.644  -0.039  0.00  0.00    +0.159 HD
ATOM     19  H   UNL     1       5.612   2.267  -0.040  0.00  0.00    +0.159 HD
ENDBRANCH   2   5
BRANCH   1  21
ATOM     20  C   UNL     1       6.160   7.925  -0.013  0.00  0.00    +0.142 C 
ATOM     21  N   UNL     1       6.131   6.627  -0.020  0.00  0.00    -0.187 NA
BRANCH  20  25
ATOM     22  C   UNL     1       9.885   9.967  -0.035  0.00  0.00    +0.033 A 
ATOM     23  C   UNL     1       8.695  10.689  -0.020  0.00  0.00    +0.024 A 
ATOM     24  C   UNL     1       7.486  10.030  -0.013  0.00  0.00    +0.015 A 
ATOM     25  C   UNL     1       7.452   8.633  -0.021  0.00  0.00    +0.036 A 
ATOM     26  C   UNL     1       8.652   7.907  -0.030  0.00  0.00    +0.127 A 
ATOM     27  C   UNL     1       9.861   8.578  -0.042  0.00  0.00    +0.069 A 
BRANCH  26  28
ATOM     28  O   UNL     1       8.627   6.549  -0.032  0.00  0.00    -0.506 OA
ATOM     29  H   UNL     1       9.569   5.981  -0.040  0.00  0.00    +0.292 HD
ENDBRANCH  26  28
BRANCH  22  30
ATOM     30  N   UNL     1      11.106  10.641  -0.041  0.00  0.00    -0.330 N 
BRANCH  30  32
ATOM     31  C   UNL     1      11.157  12.607   1.412  0.00  0.00    +0.024 C 
ATOM     32  C   UNL     1      11.134  12.106  -0.033  0.00  0.00    +0.102 C 
ENDBRANCH  30  32
BRANCH  30  33
ATOM     33  C   UNL     1      12.360   9.884  -0.056  0.00  0.00    +0.102 C 
ATOM     34  C   UNL     1      12.785   9.629  -1.504  0.00  0.00    +0.024 C 
ENDBRANCH  30  33
ENDBRANCH  22  30
ENDBRANCH  20  25
ENDBRANCH   1  21
TORSDOF 7
