REMARK  Name = ZINC67602522
REMARK  6 active torsions:
REMARK  status: ('A' for Active; 'I' for Inactive)
REMARK    1  A    between atoms: C_1  and  C_2
REMARK    2  A    between atoms: C_7  and  C_10
REMARK    3  A    between atoms: N_18  and  C_19
REMARK    4  A    between atoms: C_19  and  C_21
REMARK    5  A    between atoms: C_19  and  C_22
REMARK    6  A    between atoms: C_22  and  C_23
REMARK                            x       y       z     vdW  Elec       q    Type
REMARK                         _______ _______ _______ _____ _____    ______ ____
ROOT
ATOM      1  C   UNL     1      -0.018   1.526   0.007  0.00  0.00    +0.039 C 
ATOM      2  C   UNL     1       0.003  -0.004  -0.002  0.00  0.00    +0.133 C 
ATOM      3  C   UNL     1      -1.435  -0.536   0.014  0.00  0.00    +0.140 C 
ATOM      4  N   UNL     1      -1.388  -1.995   0.195  0.00  0.00    -0.280 N 
ATOM      5  C   UNL     1      -0.575  -2.530   1.299  0.00  0.00    +0.145 C 
ATOM      6  C   UNL     1       0.821  -1.901   1.221  0.00  0.00    +0.166 C 
ATOM      7  O   UNL     1       0.694  -0.479   1.157  0.00  0.00    -0.366 OA
ATOM      8  C   UNL     1      -2.069  -2.818  -0.627  0.00  0.00    +0.303 C 
ATOM      9  O   UNL     1      -2.807  -2.356  -1.476  0.00  0.00    -0.253 OA
ATOM     10  N   UNL     1      -1.933  -4.154  -0.507  0.00  0.00    -0.296 N 
ATOM     11  H   UNL     1      -1.404  -4.525   0.216  0.00  0.00    +0.151 HD
ENDROOT
BRANCH   6  12
ATOM     12  C   UNL     1       1.614  -2.282   2.444  0.00  0.00    -0.017 A 
ATOM     13  C   UNL     1       1.411  -1.612   3.636  0.00  0.00    +0.006 A 
ATOM     14  C   UNL     1       2.139  -1.961   4.758  0.00  0.00    +0.000 A 
ATOM     15  C   UNL     1       3.069  -2.982   4.689  0.00  0.00    +0.000 A 
ATOM     16  C   UNL     1       3.271  -3.653   3.497  0.00  0.00    +0.000 A 
ATOM     17  C   UNL     1       2.540  -3.306   2.376  0.00  0.00    +0.006 A 
ENDBRANCH   6  12
BRANCH  10  18
ATOM     18  C   UNL     1      -2.585  -5.045  -1.469  0.00  0.00    +0.076 C 
ATOM     19  C   UNL     1      -1.690  -5.212  -2.699  0.00  0.00    +0.028 C 
BRANCH  18  20
ATOM     20  C   UNL     1      -2.820  -6.411  -0.821  0.00  0.00    +0.064 C 
BRANCH  20  21
ATOM     21  C   UNL     1      -3.800  -6.266   0.315  0.00  0.00    -0.008 A 
ATOM     22  C   UNL     1      -5.151  -6.368   0.295  0.00  0.00    +0.011 A 
ATOM     23  C   UNL     1      -5.854  -6.195   1.473  0.00  0.00    +0.008 A 
ATOM     24  C   UNL     1      -5.170  -5.930   2.613  0.00  0.00    +0.045 A 
ATOM     25  S   UNL     1      -3.480  -5.924   2.038  0.00  0.00    -0.102 S 
ENDBRANCH  20  21
ENDBRANCH  18  20
ENDBRANCH  10  18
TORSDOF 4
