REMARK  Name = ZINC24991901
REMARK  8 active torsions:
REMARK  status: ('A' for Active; 'I' for Inactive)
REMARK    1  A    between atoms: C_4  and  C_7
REMARK    2  A    between atoms: C_7  and  N_8
REMARK    3  A    between atoms: C_9  and  N_34
REMARK    4  A    between atoms: C_10  and  N_17
REMARK    5  A    between atoms: N_17  and  C_18
REMARK    6  A    between atoms: N_17  and  C_25
REMARK    7  A    between atoms: C_18  and  C_19
REMARK    8  A    between atoms: C_25  and  C_26
REMARK                            x       y       z     vdW  Elec       q    Type
REMARK                         _______ _______ _______ _____ _____    ______ ____
ROOT
ATOM      1  N   UNL     1       0.694   5.022   2.579  0.00  0.00    -0.276 N 
ATOM      2  C   UNL     1       0.460   3.677   2.405  0.00  0.00    +0.127 A 
ATOM      3  C   UNL     1      -0.330   3.263   1.366  0.00  0.00    +0.134 A 
ATOM      4  C   UNL     1      -0.877   4.226   0.499  0.00  0.00    +0.277 A 
ATOM      5  O   UNL     1      -1.580   3.881  -0.436  0.00  0.00    -0.266 OA
ATOM      6  N   UNL     1      -0.625   5.533   0.712  0.00  0.00    -0.273 N 
ATOM      7  H   UNL     1      -1.057   6.292   0.043  0.00  0.00    +0.173 HD
ATOM      8  C   UNL     1       0.153   5.922   1.738  0.00  0.00    +0.331 A 
ATOM      9  O   UNL     1       0.371   7.107   1.907  0.00  0.00    -0.246 OA
ENDROOT
BRANCH   2  10
ATOM     10  N   UNL     1       1.013   2.758   3.266  0.00  0.00    -0.343 N 
ATOM     11  H   UNL     1       0.822   1.684   3.122  0.00  0.00    +0.144 HD
ATOM     12  H   UNL     1       1.647   3.097   4.098  0.00  0.00    +0.144 HD
ENDBRANCH   2  10
BRANCH   1  13
ATOM     13  C   UNL     1       1.538   5.477   3.687  0.00  0.00    +0.163 C 
BRANCH  13  17
ATOM     14  C   UNL     1       5.607   5.658   2.399  0.00  0.00    +0.000 A 
ATOM     15  C   UNL     1       4.789   6.764   2.264  0.00  0.00    +0.000 A 
ATOM     16  C   UNL     1       3.472   6.705   2.680  0.00  0.00    +0.005 A 
ATOM     17  C   UNL     1       2.973   5.540   3.233  0.00  0.00    -0.028 A 
ATOM     18  C   UNL     1       3.793   4.436   3.374  0.00  0.00    +0.005 A 
ATOM     19  C   UNL     1       5.108   4.493   2.952  0.00  0.00    +0.000 A 
ENDBRANCH  13  17
ENDBRANCH   1  13
BRANCH   3  20
ATOM     20  N   UNL     1      -0.587   1.887   1.164  0.00  0.00    -0.312 N 
BRANCH  20  21
ATOM     21  C   UNL     1      -0.110   1.451  -0.155  0.00  0.00    +0.137 C 
BRANCH  21  22
ATOM     22  C   UNL     1       1.415   1.327  -0.131  0.00  0.00    +0.136 C 
ATOM     23  C   UNL     1       1.942   0.896  -1.518  0.00  0.00    +0.035 C 
ATOM     24  C   UNL     1       3.113  -0.058  -1.195  0.00  0.00    +0.031 C 
ATOM     25  C   UNL     1       3.156  -0.091   0.349  0.00  0.00    +0.160 C 
ATOM     26  O   UNL     1       1.819   0.266   0.763  0.00  0.00    -0.375 OA
ENDBRANCH  21  22
ENDBRANCH  20  21
BRANCH  20  27
ATOM     27  C   UNL     1      -2.015   1.588   1.333  0.00  0.00    +0.201 C 
BRANCH  27  28
ATOM     28  C   UNL     1      -2.190   0.117   1.610  0.00  0.00    +0.233 C 
ATOM     29  O   UNL     1      -1.227  -0.620   1.609  0.00  0.00    -0.274 OA
ATOM     30  N   UNL     1      -3.418  -0.381   1.857  0.00  0.00    -0.300 N 
ATOM     31  C   UNL     1      -4.595   0.500   1.866  0.00  0.00    +0.108 C 
ATOM     32  C   UNL     1      -5.644  -0.076   0.903  0.00  0.00    +0.019 C 
ATOM     33  C   UNL     1      -5.942  -1.526   1.291  0.00  0.00    +0.003 C 
ATOM     34  C   UNL     1      -4.665  -2.362   1.167  0.00  0.00    +0.019 C 
ATOM     35  C   UNL     1      -3.606  -1.812   2.127  0.00  0.00    +0.108 C 
ENDBRANCH  27  28
ENDBRANCH  20  27
ENDBRANCH   3  20
TORSDOF 8
