REMARK  Name = ZINC08422989
REMARK  8 active torsions:
REMARK  status: ('A' for Active; 'I' for Inactive)
REMARK    1  A    between atoms: C_1  and  C_2
REMARK    2  A    between atoms: C_9  and  C_11
REMARK    3  A    between atoms: N_13  and  N_14
REMARK    4  A    between atoms: C_15  and  C_17
REMARK    5  A    between atoms: C_21  and  S_23
REMARK    6  A    between atoms: S_23  and  N_26
REMARK    7  A    between atoms: N_26  and  C_27
REMARK    8  A    between atoms: N_26  and  C_28
REMARK                            x       y       z     vdW  Elec       q    Type
REMARK                         _______ _______ _______ _____ _____    ______ ____
ROOT
ATOM      1  N   UNL     1       5.672   6.423  -0.756  0.00  0.00    -0.230 N 
ATOM      2  C   UNL     1       5.440   7.707  -1.091  0.00  0.00    +0.260 C 
ATOM      3  O   UNL     1       4.302   8.092  -1.275  0.00  0.00    -0.269 OA
ATOM      4  H   UNL     1       6.580   6.116  -0.609  0.00  0.00    +0.173 HD
ENDROOT
BRANCH   2   5
ATOM      5  C   UNL     1       6.571   8.649  -1.236  0.00  0.00    +0.040 A 
ATOM      6  C   UNL     1       7.879   8.212  -1.021  0.00  0.00    +0.013 A 
ATOM      7  C   UNL     1       8.930   9.094  -1.163  0.00  0.00    +0.003 A 
ATOM      8  C   UNL     1       8.689  10.412  -1.508  0.00  0.00    +0.028 A 
ATOM      9  C   UNL     1       7.394  10.853  -1.718  0.00  0.00    +0.106 A 
ATOM     10  C   UNL     1       6.335   9.980  -1.584  0.00  0.00    +0.041 A 
BRANCH   9  11
ATOM     11  S   UNL     1       7.098  12.534  -2.156  0.00  0.00    +0.060 S 
ATOM     12  O   UNL     1       8.296  13.015  -2.751  0.00  0.00    -0.153 OA
ATOM     13  O   UNL     1       5.848  12.564  -2.829  0.00  0.00    -0.153 OA
BRANCH  11  14
ATOM     14  N   UNL     1       6.898  13.379  -0.746  0.00  0.00    -0.183 NA
ATOM     15  C   UNL     1       8.056  13.983  -0.083  0.00  0.00    +0.131 C 
ATOM     16  C   UNL     1       5.562  13.523  -0.162  0.00  0.00    +0.131 C 
ENDBRANCH  11  14
ENDBRANCH   9  11
ENDBRANCH   2   5
BRANCH   1  19
ATOM     17  C   UNL     1       4.832   4.246  -0.283  0.00  0.00    +0.267 C 
ATOM     18  O   UNL     1       5.971   3.861  -0.099  0.00  0.00    -0.268 OA
ATOM     19  N   UNL     1       4.600   5.531  -0.618  0.00  0.00    -0.230 N 
ATOM     20  H   UNL     1       3.692   5.838  -0.765  0.00  0.00    +0.173 HD
BRANCH  17  28
ATOM     21  C   UNL     1       0.830  -1.998   1.260  0.00  0.00    +0.008 C 
ATOM     22  C   UNL     1       0.991  -0.489   1.066  0.00  0.00    -0.009 C 
ATOM     23  C   UNL     1       0.002  -0.004   0.002  0.00  0.00    +0.009 C 
ATOM     24  C   UNL     1      -0.019   1.531   0.011  0.00  0.00    +0.043 C 
ATOM     25  C   UNL     1       1.396   2.023  -0.000  0.00  0.00    -0.006 A 
ATOM     26  C   UNL     1       2.522   1.297   0.266  0.00  0.00    -0.036 A 
ATOM     27  C   UNL     1       3.730   1.971   0.194  0.00  0.00    +0.024 A 
ATOM     28  C   UNL     1       3.711   3.313  -0.139  0.00  0.00    +0.076 A 
ATOM     29  S   UNL     1       1.963   3.611  -0.348  0.00  0.00    -0.088 S 
ATOM     30  C   UNL     1       2.423  -0.183   0.625  0.00  0.00    +0.039 C 
ENDBRANCH  17  28
ENDBRANCH   1  19
TORSDOF 5
