REMARK  Name = ZINC43223231
REMARK  10 active torsions:
REMARK  status: ('A' for Active; 'I' for Inactive)
REMARK    1  A    between atoms: C_1  and  S_2
REMARK    2  A    between atoms: S_2  and  C_3
REMARK    3  A    between atoms: C_3  and  C_4
REMARK    4  A    between atoms: C_4  and  N_5
REMARK    5  A    between atoms: C_6  and  C_8
REMARK    6  A    between atoms: C_13  and  C_15
REMARK    7  A    between atoms: N_17  and  C_18
REMARK    8  A    between atoms: C_18  and  C_20
REMARK    9  A    between atoms: C_18  and  C_27
REMARK   10  A    between atoms: C_20  and  C_21
REMARK                            x       y       z     vdW  Elec       q    Type
REMARK                         _______ _______ _______ _____ _____    ______ ____
ROOT
ATOM      1  C   UNL     1       4.192  -5.949   4.663  0.00  0.00    +0.215 C 
ATOM      2  O   UNL     1       5.086  -5.131   4.603  0.00  0.00    -0.276 OA
ATOM      3  N   UNL     1       4.484  -7.257   4.802  0.00  0.00    -0.308 N 
ATOM      4  H   UNL     1       3.769  -7.911   4.850  0.00  0.00    +0.149 HD
ENDROOT
BRANCH   1   9
ATOM      5  C   UNL     1       2.679  -3.969   4.425  0.00  0.00    +0.068 C 
ATOM      6  C   UNL     1       1.909  -3.474   5.668  0.00  0.00    -0.069 C 
ATOM      7  N   UNL     1       1.109  -4.648   6.105  0.00  0.00    +0.380 N 
ATOM      8  C   UNL     1       2.021  -5.804   5.908  0.00  0.00    -0.069 C 
ATOM      9  C   UNL     1       2.755  -5.502   4.582  0.00  0.00    +0.068 C 
ATOM     10  H   UNL     1       0.855  -4.560   7.077  0.00  0.00    -0.086 HD
ATOM     11  H   UNL     1       0.285  -4.747   5.531  0.00  0.00    -0.086 HD
BRANCH   5  13
ATOM     12  N   UNL     1       1.724  -2.313   2.855  0.00  0.00    -0.314 N 
ATOM     13  C   UNL     1       1.931  -3.608   3.168  0.00  0.00    +0.215 C 
ATOM     14  O   UNL     1       1.514  -4.482   2.438  0.00  0.00    -0.276 OA
ATOM     15  H   UNL     1       2.058  -1.614   3.439  0.00  0.00    +0.149 HD
BRANCH  12  16
ATOM     16  C   UNL     1       0.997  -1.962   1.633  0.00  0.00    +0.115 C 
BRANCH  16  17
ATOM     17  C   UNL     1       0.902  -0.439   1.516  0.00  0.00    +0.087 C 
BRANCH  17  19
ATOM     18  C   UNL     1      -0.022   1.810   0.012  0.00  0.00    +0.084 C 
ATOM     19  S   UNL     1       0.002  -0.004   0.002  0.00  0.00    -0.163 S 
ENDBRANCH  17  19
ENDBRANCH  16  17
ENDBRANCH  12  16
ENDBRANCH   5  13
ENDBRANCH   1   9
BRANCH   3  20
ATOM     20  C   UNL     1       5.881  -7.692   4.880  0.00  0.00    +0.107 C 
BRANCH  20  21
ATOM     21  C   UNL     1       6.432  -7.865   3.489  0.00  0.00    -0.027 A 
ATOM     22  C   UNL     1       5.646  -8.423   2.498  0.00  0.00    +0.005 A 
ATOM     23  C   UNL     1       6.152  -8.582   1.222  0.00  0.00    +0.000 A 
ATOM     24  C   UNL     1       7.444  -8.182   0.935  0.00  0.00    +0.000 A 
ATOM     25  C   UNL     1       8.230  -7.624   1.926  0.00  0.00    +0.000 A 
ATOM     26  C   UNL     1       7.723  -7.461   3.201  0.00  0.00    +0.005 A 
ENDBRANCH  20  21
BRANCH  20  27
ATOM     27  C   UNL     1       5.959  -9.024   5.630  0.00  0.00    +0.062 C 
BRANCH  27  28
ATOM     28  C   UNL     1       5.522  -8.823   7.058  0.00  0.00    -0.045 A 
ATOM     29  C   UNL     1       6.452  -8.484   8.023  0.00  0.00    +0.004 A 
ATOM     30  C   UNL     1       6.052  -8.300   9.334  0.00  0.00    +0.000 A 
ATOM     31  C   UNL     1       4.722  -8.454   9.678  0.00  0.00    +0.000 A 
ATOM     32  C   UNL     1       3.792  -8.793   8.713  0.00  0.00    +0.000 A 
ATOM     33  C   UNL     1       4.192  -8.973   7.402  0.00  0.00    +0.004 A 
ENDBRANCH  27  28
ENDBRANCH  20  27
ENDBRANCH   3  20
TORSDOF 9
