REMARK  Name = ZINC41106259
REMARK  6 active torsions:
REMARK  status: ('A' for Active; 'I' for Inactive)
REMARK    1  A    between atoms: C_1  and  N_2
REMARK    2  A    between atoms: N_2  and  C_3
REMARK    3  A    between atoms: C_4  and  C_6
REMARK    4  A    between atoms: N_9  and  C_12
REMARK    5  A    between atoms: C_12  and  C_13
REMARK    6  A    between atoms: N_18  and  C_19
REMARK                            x       y       z     vdW  Elec       q    Type
REMARK                         _______ _______ _______ _____ _____    ______ ____
ROOT
ATOM      1  C   UNL     1       1.617  -6.697  -2.806  0.00  0.00    +0.204 C 
ATOM      2  O   UNL     1       1.730  -5.929  -3.736  0.00  0.00    -0.277 OA
ATOM      3  N   UNL     1       1.724  -8.025  -3.011  0.00  0.00    -0.242 N 
ATOM      4  C   UNL     1       1.956  -8.498  -4.252  0.00  0.00    +0.306 C 
ATOM      5  O   UNL     1       2.069  -7.728  -5.185  0.00  0.00    -0.252 OA
ATOM      6  N   UNL     1       2.063  -9.826  -4.458  0.00  0.00    -0.294 N 
ATOM      7  H   UNL     1       1.634  -8.640  -2.267  0.00  0.00    +0.159 HD
ATOM      8  H   UNL     1       1.973 -10.441  -3.713  0.00  0.00    +0.151 HD
ENDROOT
BRANCH   6   9
ATOM      9  C   UNL     1       2.315 -10.340  -5.806  0.00  0.00    +0.037 C 
ATOM     10  C   UNL     1       1.178  -9.912  -6.736  0.00  0.00    +0.029 C 
ATOM     11  C   UNL     1       1.442 -10.449  -8.144  0.00  0.00    -0.008 C 
ATOM     12  C   UNL     1       1.518 -11.977  -8.101  0.00  0.00    +0.007 C 
ATOM     13  C   UNL     1       2.656 -12.405  -7.171  0.00  0.00    -0.008 C 
ATOM     14  C   UNL     1       2.392 -11.867  -5.763  0.00  0.00    +0.029 C 
ATOM     15  C   UNL     1       3.980 -11.842  -7.692  0.00  0.00    +0.007 C 
ATOM     16  C   UNL     1       3.903 -10.315  -7.735  0.00  0.00    -0.008 C 
ATOM     17  C   UNL     1       2.766  -9.887  -8.665  0.00  0.00    +0.007 C 
ATOM     18  C   UNL     1       3.639  -9.777  -6.327  0.00  0.00    +0.029 C 
ENDBRANCH   6   9
BRANCH   1  19
ATOM     19  C   UNL     1       1.357  -6.168  -1.419  0.00  0.00    +0.019 C 
BRANCH  19  23
ATOM     20  C   UNL     1      -0.019  -2.160  -0.976  0.00  0.00    +0.072 C 
ATOM     21  C   UNL     1       1.155  -2.652  -0.124  0.00  0.00    -0.006 C 
ATOM     22  C   UNL     1       1.151  -4.181  -0.094  0.00  0.00    -0.077 C 
ATOM     23  N   UNL     1       1.284  -4.702  -1.460  0.00  0.00    +0.385 N 
ATOM     24  C   UNL     1       0.125  -4.294  -2.263  0.00  0.00    -0.077 C 
ATOM     25  C   UNL     1       0.090  -2.768  -2.377  0.00  0.00    -0.006 C 
ATOM     26  H   UNL     1       2.127  -4.336  -1.877  0.00  0.00    -0.081 HD
BRANCH  20  30
ATOM     27  C   UNL     1      -0.641   1.554  -0.294  0.00  0.00    +0.131 C 
ATOM     28  N   UNL     1      -0.585   0.098  -0.139  0.00  0.00    -0.307 N 
ATOM     29  C   UNL     1      -1.192  -0.538   1.034  0.00  0.00    +0.131 C 
ATOM     30  C   UNL     1       0.025  -0.657  -1.074  0.00  0.00    +0.218 C 
ATOM     31  O   UNL     1       0.609  -0.126  -1.995  0.00  0.00    -0.275 OA
ENDBRANCH  20  30
ENDBRANCH  19  23
ENDBRANCH   1  19
TORSDOF 4
