REMARK  Name = ZINC63836444
REMARK  12 active torsions:
REMARK  status: ('A' for Active; 'I' for Inactive)
REMARK    1  A    between atoms: C_1  and  C_2
REMARK    2  A    between atoms: C_2  and  C_3
REMARK    3  A    between atoms: C_3  and  C_4
REMARK    4  A    between atoms: C_4  and  C_5
REMARK    5  A    between atoms: C_4  and  N_17
REMARK    6  A    between atoms: N_7  and  C_8
REMARK    7  A    between atoms: C_8  and  C_9
REMARK    8  A    between atoms: N_12  and  C_14
REMARK    9  A    between atoms: C_14  and  C_15
REMARK   10  A    between atoms: C_14  and  C_16
REMARK   11  A    between atoms: N_20  and  C_21
REMARK   12  A    between atoms: C_21  and  C_22
REMARK                            x       y       z     vdW  Elec       q    Type
REMARK                         _______ _______ _______ _____ _____    ______ ____
ROOT
ATOM      1  C   UNL     1      -1.413  -2.063   0.004  0.00  0.00    +0.160 C 
ENDROOT
BRANCH   1   2
ATOM      2  N   UNL     1      -0.810  -2.550   1.248  0.00  0.00    -0.288 N 
ATOM      3  C   UNL     1       0.529  -2.662   1.350  0.00  0.00    +0.300 C 
ATOM      4  O   UNL     1       1.237  -2.358   0.409  0.00  0.00    -0.253 OA
ATOM      5  N   UNL     1       1.083  -3.110   2.494  0.00  0.00    -0.295 N 
ATOM      6  H   UNL     1      -1.375  -2.793   1.998  0.00  0.00    +0.151 HD
ATOM      7  H   UNL     1       0.518  -3.352   3.244  0.00  0.00    +0.151 HD
BRANCH   5   8
ATOM      8  C   UNL     1       2.539  -3.231   2.604  0.00  0.00    +0.141 C 
BRANCH   8   9
ATOM      9  C   UNL     1       2.897  -3.750   3.973  0.00  0.00    -0.030 A 
ATOM     10  C   UNL     1       3.118  -2.865   5.011  0.00  0.00    +0.008 A 
ATOM     11  C   UNL     1       3.446  -3.340   6.267  0.00  0.00    +0.038 A 
ATOM     12  C   UNL     1       3.554  -4.703   6.485  0.00  0.00    +0.123 A 
ATOM     13  C   UNL     1       3.333  -5.588   5.444  0.00  0.00    +0.038 A 
ATOM     14  C   UNL     1       2.999  -5.111   4.190  0.00  0.00    +0.008 A 
ATOM     15  F   UNL     1       3.875  -5.168   7.712  0.00  0.00    -0.205 F 
ENDBRANCH   8   9
ENDBRANCH   5   8
ENDBRANCH   1   2
BRANCH   1  16
ATOM     16  C   UNL     1      -2.822  -2.584  -0.109  0.00  0.00    +0.233 C 
ATOM     17  O   UNL     1      -3.279  -3.293   0.763  0.00  0.00    -0.274 OA
ATOM     18  N   UNL     1      -3.575  -2.263  -1.179  0.00  0.00    -0.314 N 
ATOM     19  H   UNL     1      -3.210  -1.696  -1.877  0.00  0.00    +0.149 HD
BRANCH  18  20
ATOM     20  C   UNL     1      -4.946  -2.769  -1.289  0.00  0.00    +0.106 C 
BRANCH  20  21
ATOM     21  C   UNL     1      -5.575  -2.261  -2.588  0.00  0.00    -0.012 C 
ATOM     22  C   UNL     1      -4.944  -2.967  -3.816  0.00  0.00    -0.015 C 
ATOM     23  C   UNL     1      -6.087  -2.867  -4.857  0.00  0.00    -0.078 C 
ATOM     24  N   UNL     1      -7.327  -3.051  -4.074  0.00  0.00    +0.381 N 
ATOM     25  C   UNL     1      -7.059  -2.674  -2.674  0.00  0.00    -0.074 C 
ATOM     26  H   UNL     1      -7.615  -4.017  -4.116  0.00  0.00    -0.081 HD
BRANCH  24  27
ATOM     27  C   UNL     1      -8.389  -2.196  -4.621  0.00  0.00    -0.075 C 
ATOM     28  C   UNL     1      -8.674  -2.599  -6.069  0.00  0.00    -0.014 C 
ATOM     29  C   UNL     1      -9.660  -2.363  -3.786  0.00  0.00    -0.014 C 
ENDBRANCH  24  27
ENDBRANCH  20  21
ENDBRANCH  18  20
ENDBRANCH   1  16
BRANCH   1  30
ATOM     30  C   UNL     1      -1.433  -0.534   0.013  0.00  0.00    +0.031 C 
BRANCH  30  32
ATOM     31  C   UNL     1      -0.019   1.526   0.010  0.00  0.00    +0.004 C 
ATOM     32  C   UNL     1       0.002  -0.004   0.002  0.00  0.00    -0.001 C 
ENDBRANCH  30  32
ENDBRANCH   1  30
TORSDOF 9
