REMARK  Name = ZINC06149068
REMARK  14 active torsions:
REMARK  status: ('A' for Active; 'I' for Inactive)
REMARK    1  A    between atoms: C_1  and  C_2
REMARK    2  A    between atoms: C_2  and  C_3
REMARK    3  A    between atoms: C_3  and  C_4
REMARK    4  A    between atoms: C_3  and  C_5
REMARK    5  A    between atoms: C_3  and  N_6
REMARK    6  A    between atoms: C_7  and  C_11
REMARK    7  A    between atoms: C_11  and  C_13
REMARK    8  A    between atoms: C_11  and  N_72
REMARK    9  A    between atoms: C_17  and  C_26
REMARK   10  A    between atoms: C_18  and  C_25
REMARK   11  A    between atoms: C_27  and  C_28
REMARK   12  A    between atoms: C_27  and  N_72
REMARK   13  A    between atoms: C_34  and  C_35
REMARK   14  A    between atoms: C_34  and  N_72
REMARK                            x       y       z     vdW  Elec       q    Type
REMARK                         _______ _______ _______ _____ _____    ______ ____
ROOT
ATOM      1  C   UNL     1      -3.056   1.542   0.328  0.00  0.00    +0.040 C 
ENDROOT
BRANCH   1   2
ATOM      2  C   UNL     1      -4.012   1.706   1.482  0.00  0.00    +0.011 A 
ATOM      3  C   UNL     1      -4.460   0.614   2.148  0.00  0.00    +0.017 A 
ATOM      4  C   UNL     1      -5.387   0.807   3.265  0.00  0.00    -0.001 A 
ATOM      5  C   UNL     1      -5.884  -0.281   3.990  0.00  0.00    +0.013 A 
ATOM      6  C   UNL     1      -6.747  -0.067   5.026  0.00  0.00    -0.047 A 
ATOM      7  C   UNL     1      -7.137   1.222   5.366  0.00  0.00    -0.046 A 
ATOM      8  C   UNL     1      -6.661   2.309   4.666  0.00  0.00    +0.030 A 
ATOM      9  C   UNL     1      -5.780   2.115   3.607  0.00  0.00    +0.049 A 
ATOM     10  N   UNL     1      -5.288   3.184   2.888  0.00  0.00    -0.322 N 
ATOM     11  H   UNL     1      -5.572   4.112   3.130  0.00  0.00    +0.169 HD
ATOM     12  C   UNL     1      -4.432   2.997   1.868  0.00  0.00    +0.251 A 
ATOM     13  O   UNL     1      -4.013   3.966   1.259  0.00  0.00    -0.268 OA
ATOM     14  C   UNL     1      -8.091   1.434   6.513  0.00  0.00    +0.044 C 
ATOM     15  C   UNL     1      -7.283  -1.239   5.807  0.00  0.00    +0.044 C 
ENDBRANCH   1   2
BRANCH   1  17
ATOM     16  N   UNL     1      -0.610   1.526   1.050  0.00  0.00    -0.225 N 
ATOM     17  C   UNL     1      -1.732   2.170   0.679  0.00  0.00    +0.143 A 
ATOM     18  N   UNL     1      -1.450   3.450   0.686  0.00  0.00    -0.115 NA
ATOM     19  N   UNL     1      -0.217   3.584   1.035  0.00  0.00    -0.023 NA
ATOM     20  N   UNL     1       0.294   2.423   1.255  0.00  0.00    -0.043 NA
BRANCH  16  21
ATOM     21  C   UNL     1      -0.445   0.076   1.188  0.00  0.00    +0.061 C 
ATOM     22  C   UNL     1      -1.491  -0.466   2.163  0.00  0.00    +0.036 C 
ATOM     23  C   UNL     1      -0.625  -0.590  -0.177  0.00  0.00    +0.036 C 
BRANCH  21  25
ATOM     24  C   UNL     1       1.129  -1.741   1.867  0.00  0.00    +0.006 C 
ATOM     25  C   UNL     1       0.957  -0.228   1.723  0.00  0.00    +0.026 C 
ENDBRANCH  21  25
ENDBRANCH  16  21
ENDBRANCH   1  17
BRANCH   1  26
ATOM     26  N   UNL     1      -3.609   2.229  -0.859  0.00  0.00    +0.397 N 
ATOM     27  H   UNL     1      -3.582   3.243  -0.700  0.00  0.00    -0.079 HD
BRANCH  26  28
ATOM     28  C   UNL     1      -2.796   1.908  -2.051  0.00  0.00    -0.041 C 
BRANCH  28  29
ATOM     29  C   UNL     1      -1.579   2.796  -2.058  0.00  0.00    -0.064 A 
ATOM     30  C   UNL     1      -1.710   4.147  -2.316  0.00  0.00    +0.002 A 
ATOM     31  C   UNL     1      -0.594   4.963  -2.316  0.00  0.00    +0.000 A 
ATOM     32  C   UNL     1       0.655   4.424  -2.070  0.00  0.00    +0.000 A 
ATOM     33  C   UNL     1       0.788   3.072  -1.817  0.00  0.00    +0.000 A 
ATOM     34  C   UNL     1      -0.329   2.257  -1.811  0.00  0.00    +0.002 A 
ENDBRANCH  28  29
ENDBRANCH  26  28
BRANCH  26  35
ATOM     35  C   UNL     1      -5.010   1.813  -1.076  0.00  0.00    -0.001 C 
BRANCH  35  36
ATOM     36  C   UNL     1      -5.588   2.620  -2.210  0.00  0.00    +0.089 A 
ATOM     37  C   UNL     1      -5.667   2.229  -3.494  0.00  0.00    +0.042 A 
ATOM     38  C   UNL     1      -6.273   3.287  -4.209  0.00  0.00    +0.041 A 
ATOM     39  C   UNL     1      -6.529   4.262  -3.318  0.00  0.00    +0.195 A 
ATOM     40  O   UNL     1      -6.117   3.850  -2.108  0.00  0.00    -0.470 OA
ENDBRANCH  35  36
ENDBRANCH  26  35
ENDBRANCH   1  26
TORSDOF 9
