REMARK  Name = ZINC06530733
REMARK  8 active torsions:
REMARK  status: ('A' for Active; 'I' for Inactive)
REMARK    1  A    between atoms: C_1  and  C_2
REMARK    2  A    between atoms: C_4  and  S_25
REMARK    3  A    between atoms: C_5  and  C_23
REMARK    4  A    between atoms: C_6  and  C_18
REMARK    5  A    between atoms: C_8  and  C_9
REMARK    6  A    between atoms: N_11  and  C_12
REMARK    7  A    between atoms: S_25  and  C_26
REMARK    8  A    between atoms: C_26  and  C_27
REMARK                            x       y       z     vdW  Elec       q    Type
REMARK                         _______ _______ _______ _____ _____    ______ ____
ROOT
ATOM      1  C   UNL     1       0.468   0.812   0.217  0.00  0.00    +0.061 C 
ATOM      2  C   UNL     1       0.039  -0.631   0.271  0.00  0.00    +0.015 C 
ATOM      3  N   UNL     1      -0.123  -1.330  -0.895  0.00  0.00    -0.312 N 
ATOM      4  C   UNL     1      -0.846  -2.502  -0.905  0.00  0.00    +0.080 C 
ATOM      5  C   UNL     1      -1.101  -3.165   0.254  0.00  0.00    +0.072 C 
ATOM      6  C   UNL     1      -0.599  -2.650   1.574  0.00  0.00    +0.134 C 
ATOM      7  C   UNL     1      -0.174  -1.214   1.462  0.00  0.00    +0.047 C 
ATOM      8  H   UNL     1       0.273  -0.998  -1.716  0.00  0.00    +0.152 HD
ENDROOT
BRANCH   6   9
ATOM      9  C   UNL     1      -1.696  -2.767   2.601  0.00  0.00    +0.118 A 
ATOM     10  C   UNL     1      -1.604  -3.405   3.781  0.00  0.00    +0.045 A 
ATOM     11  C   UNL     1      -2.856  -3.265   4.421  0.00  0.00    +0.041 A 
ATOM     12  C   UNL     1      -3.639  -2.549   3.594  0.00  0.00    +0.195 A 
ATOM     13  O   UNL     1      -2.929  -2.244   2.496  0.00  0.00    -0.467 OA
ENDBRANCH   6   9
BRANCH   7  14
ATOM     14  C   UNL     1       0.002  -0.453   2.642  0.00  0.00    +0.247 C 
ATOM     15  O   UNL     1       0.978  -0.639   3.346  0.00  0.00    -0.270 OA
ATOM     16  N   UNL     1      -0.911   0.476   2.987  0.00  0.00    -0.282 N 
ATOM     17  H   UNL     1      -1.627   0.703   2.374  0.00  0.00    +0.155 HD
BRANCH  16  18
ATOM     18  C   UNL     1      -0.825   1.113   4.229  0.00  0.00    +0.034 A 
ATOM     19  C   UNL     1       0.417   1.424   4.768  0.00  0.00    +0.023 A 
ATOM     20  C   UNL     1       0.498   2.053   5.994  0.00  0.00    +0.002 A 
ATOM     21  C   UNL     1      -0.656   2.375   6.686  0.00  0.00    +0.000 A 
ATOM     22  C   UNL     1      -1.894   2.067   6.152  0.00  0.00    +0.002 A 
ATOM     23  C   UNL     1      -1.982   1.443   4.924  0.00  0.00    +0.023 A 
ENDBRANCH  16  18
ENDBRANCH   7  14
BRANCH   5  24
ATOM     24  C   UNL     1      -1.863  -4.377   0.217  0.00  0.00    +0.098 C 
ATOM     25  N   UNL     1      -2.468  -5.338   0.188  0.00  0.00    -0.191 NA
ENDBRANCH   5  24
BRANCH   4  26
ATOM     26  S   UNL     1      -1.445  -3.146  -2.432  0.00  0.00    -0.104 S 
BRANCH  26  27
ATOM     27  C   UNL     1      -0.872  -1.949  -3.668  0.00  0.00    +0.110 C 
BRANCH  27  28
ATOM     28  C   UNL     1      -1.323  -2.387  -5.038  0.00  0.00    -0.037 A 
ATOM     29  C   UNL     1      -0.520  -3.216  -5.798  0.00  0.00    +0.004 A 
ATOM     30  C   UNL     1      -0.934  -3.618  -7.054  0.00  0.00    +0.000 A 
ATOM     31  C   UNL     1      -2.151  -3.191  -7.550  0.00  0.00    +0.000 A 
ATOM     32  C   UNL     1      -2.955  -2.362  -6.790  0.00  0.00    +0.000 A 
ATOM     33  C   UNL     1      -2.543  -1.964  -5.532  0.00  0.00    +0.004 A 
ENDBRANCH  27  28
ENDBRANCH  26  27
ENDBRANCH   4  26
TORSDOF 7
