REMARK  Name = ZINC27316739
REMARK  10 active torsions:
REMARK  status: ('A' for Active; 'I' for Inactive)
REMARK    1  A    between atoms: C_1  and  C_2
REMARK    2  A    between atoms: C_7  and  N_8
REMARK    3  A    between atoms: C_9  and  C_11
REMARK    4  A    between atoms: C_11  and  N_12
REMARK    5  A    between atoms: N_12  and  C_13
REMARK    6  A    between atoms: C_14  and  C_16
REMARK    7  A    between atoms: C_16  and  S_17
REMARK    8  A    between atoms: S_17  and  C_18
REMARK    9  A    between atoms: C_21  and  C_25
REMARK   10  A    between atoms: C_22  and  N_24
REMARK                            x       y       z     vdW  Elec       q    Type
REMARK                         _______ _______ _______ _____ _____    ______ ____
ROOT
ATOM      1  N   UNL     1       0.002  -0.004   0.018  0.00  0.00    -0.295 N 
ATOM      2  C   UNL     1      -0.011  -0.731  -1.253  0.00  0.00    +0.132 C 
ATOM      3  C   UNL     1       0.031  -0.683   1.183  0.00  0.00    +0.226 C 
ATOM      4  O   UNL     1       0.041  -0.081   2.235  0.00  0.00    -0.275 OA
ENDROOT
BRANCH   1   5
ATOM      5  C   UNL     1      -0.018   1.461   0.025  0.00  0.00    +0.203 C 
BRANCH   5   7
ATOM      6  N   UNL     1       1.624   3.311   0.004  0.00  0.00    -0.284 N 
ATOM      7  C   UNL     1       1.396   1.982   0.003  0.00  0.00    +0.235 C 
ATOM      8  O   UNL     1       2.328   1.207  -0.017  0.00  0.00    -0.274 OA
ATOM      9  H   UNL     1       0.782   4.014  -0.070  0.00  0.00    +0.155 HD
BRANCH   6  16
ATOM     10  C   UNL     1       2.182   5.893  -1.051  0.00  0.00    +0.046 C 
ATOM     11  C   UNL     1       3.249   5.051  -0.402  0.00  0.00    -0.028 A 
ATOM     12  C   UNL     1       4.541   5.529  -0.302  0.00  0.00    +0.020 A 
ATOM     13  C   UNL     1       5.523   4.753   0.288  0.00  0.00    +0.018 A 
ATOM     14  C   UNL     1       5.213   3.499   0.785  0.00  0.00    +0.017 A 
ATOM     15  C   UNL     1       3.921   3.019   0.693  0.00  0.00    +0.024 A 
ATOM     16  C   UNL     1       2.934   3.795   0.100  0.00  0.00    +0.036 A 
ATOM     17 BR   UNL     1       7.293   5.408   0.417  0.00  0.00    -0.050 Br
ENDBRANCH   6  16
ENDBRANCH   5   7
ENDBRANCH   1   5
BRANCH   3  18
ATOM     18  C   UNL     1       0.051  -2.189   1.176  0.00  0.00    +0.173 C 
BRANCH  18  19
ATOM     19  S   UNL     1       0.089  -2.800   2.879  0.00  0.00    -0.077 S 
BRANCH  19  20
ATOM     20  C   UNL     1       0.107  -4.537   2.581  0.00  0.00    +0.190 A 
ATOM     21  N   UNL     1       0.091  -4.975   1.328  0.00  0.00    -0.229 NA
ATOM     22  C   UNL     1       0.104  -6.267   1.056  0.00  0.00    +0.136 A 
ATOM     23  C   UNL     1       0.135  -7.184   2.113  0.00  0.00    +0.109 A 
ATOM     24  C   UNL     1       0.151  -6.680   3.432  0.00  0.00    +0.138 A 
ATOM     25  N   UNL     1       0.142  -5.365   3.615  0.00  0.00    -0.206 NA
BRANCH  24  26
ATOM     26  N   UNL     1       0.181  -7.539   4.512  0.00  0.00    -0.342 N 
ATOM     27  H   UNL     1       0.193  -7.136   5.535  0.00  0.00    +0.144 HD
ATOM     28  H   UNL     1       0.192  -8.627   4.349  0.00  0.00    +0.144 HD
ENDBRANCH  24  26
BRANCH  23  29
ATOM     29  C   UNL     1       0.150  -8.594   1.864  0.00  0.00    +0.104 C 
ATOM     30  N   UNL     1       0.162  -9.712   1.666  0.00  0.00    -0.191 NA
ENDBRANCH  23  29
ENDBRANCH  19  20
ENDBRANCH  18  19
ENDBRANCH   3  18
TORSDOF 8
