REMARK  Name = ZINC35665758
REMARK  15 active torsions:
REMARK  status: ('A' for Active; 'I' for Inactive)
REMARK    1  A    between atoms: C_1  and  C_2
REMARK    2  A    between atoms: C_2  and  C_3
REMARK    3  A    between atoms: C_2  and  C_4
REMARK    4  A    between atoms: C_4  and  N_5
REMARK    5  A    between atoms: C_6  and  C_20
REMARK    6  A    between atoms: C_9  and  S_10
REMARK    7  A    between atoms: S_10  and  C_13
REMARK    8  A    between atoms: C_13  and  C_14
REMARK    9  A    between atoms: C_20  and  N_21
REMARK   10  A    between atoms: N_21  and  C_22
REMARK   11  A    between atoms: C_22  and  C_23
REMARK   12  A    between atoms: C_23  and  N_24
REMARK   13  A    between atoms: N_24  and  C_25
REMARK   14  A    between atoms: N_24  and  C_26
REMARK   15  A    between atoms: C_27  and  C_29
REMARK                            x       y       z     vdW  Elec       q    Type
REMARK                         _______ _______ _______ _____ _____    ______ ____
ROOT
ATOM      1  N   UNL     1      -1.937   0.149  -0.857  0.00  0.00    -0.311 N 
ATOM      2  C   UNL     1      -2.890   1.062  -1.217  0.00  0.00    +0.057 A 
ATOM      3  C   UNL     1      -3.297   0.732  -2.458  0.00  0.00    +0.137 A 
ATOM      4  N   UNL     1      -2.611  -0.354  -2.844  0.00  0.00    -0.220 NA
ATOM      5  C   UNL     1      -1.791  -0.706  -1.892  0.00  0.00    +0.252 A 
ENDROOT
BRANCH   5   6
ATOM      6  S   UNL     1      -0.679  -2.072  -1.947  0.00  0.00    +0.034 S 
ATOM      7  O   UNL     1      -0.418  -2.272  -3.329  0.00  0.00    -0.166 OA
ATOM      8  O   UNL     1       0.370  -1.722  -1.055  0.00  0.00    -0.166 OA
BRANCH   6   9
ATOM      9  C   UNL     1      -1.626  -3.470  -1.282  0.00  0.00    +0.210 C 
BRANCH   9  10
ATOM     10  C   UNL     1      -0.763  -4.705  -1.282  0.00  0.00    -0.026 A 
ATOM     11  C   UNL     1      -0.746  -5.536  -2.387  0.00  0.00    +0.005 A 
ATOM     12  C   UNL     1       0.045  -6.670  -2.387  0.00  0.00    +0.000 A 
ATOM     13  C   UNL     1       0.819  -6.973  -1.282  0.00  0.00    +0.000 A 
ATOM     14  C   UNL     1       0.802  -6.142  -0.177  0.00  0.00    +0.000 A 
ATOM     15  C   UNL     1       0.014  -5.006  -0.179  0.00  0.00    +0.005 A 
ENDBRANCH   9  10
ENDBRANCH   6   9
ENDBRANCH   5   6
BRANCH   1  16
ATOM     16  C   UNL     1      -1.207   0.109   0.413  0.00  0.00    +0.128 C 
BRANCH  16  18
ATOM     17  C   UNL     1      -0.124   2.319  -0.020  0.00  0.00    +0.009 C 
ATOM     18  C   UNL     1       0.130   0.835   0.255  0.00  0.00    +0.003 C 
ATOM     19  C   UNL     1       0.946   0.687   1.541  0.00  0.00    +0.009 C 
ENDBRANCH  16  18
ENDBRANCH   1  16
BRANCH   2  20
ATOM     20  C   UNL     1      -3.389   2.216  -0.386  0.00  0.00    +0.162 C 
BRANCH  20  21
ATOM     21  N   UNL     1      -4.564   1.793   0.380  0.00  0.00    -0.293 N 
ATOM     22  C   UNL     1      -5.784   1.810  -0.193  0.00  0.00    +0.250 C 
ATOM     23  O   UNL     1      -5.894   2.031  -1.383  0.00  0.00    -0.270 OA
BRANCH  22  24
ATOM     24  C   UNL     1      -6.988   1.560   0.626  0.00  0.00    +0.072 A 
ATOM     25  C   UNL     1      -6.860   1.170   1.961  0.00  0.00    +0.016 A 
ATOM     26  C   UNL     1      -7.988   0.939   2.719  0.00  0.00    +0.001 A 
ATOM     27  C   UNL     1      -9.246   1.092   2.162  0.00  0.00    +0.003 A 
ATOM     28  C   UNL     1      -9.383   1.478   0.842  0.00  0.00    +0.039 A 
ATOM     29  C   UNL     1      -8.261   1.719   0.070  0.00  0.00    +0.135 A 
ATOM     30  F   UNL     1      -8.395   2.102  -1.219  0.00  0.00    -0.205 F 
ENDBRANCH  22  24
BRANCH  21  31
ATOM     31  C   UNL     1      -4.413   1.352   1.769  0.00  0.00    +0.090 C 
BRANCH  31  32
ATOM     32  C   UNL     1      -4.871  -0.102   1.895  0.00  0.00    -0.060 C 
BRANCH  32  33
ATOM     33  N   UNL     1      -4.854  -0.500   3.309  0.00  0.00    +0.377 N 
ATOM     34  C   UNL     1      -5.459  -1.831   3.451  0.00  0.00    -0.097 C 
ATOM     35  C   UNL     1      -3.466  -0.540   3.790  0.00  0.00    -0.097 C 
ATOM     36  H   UNL     1      -5.379   0.168   3.853  0.00  0.00    -0.083 HD
ENDBRANCH  32  33
ENDBRANCH  31  32
ENDBRANCH  21  31
ENDBRANCH  20  21
ENDBRANCH   2  20
TORSDOF 11
