REMARK  Name = ZINC22851877
REMARK  8 active torsions:
REMARK  status: ('A' for Active; 'I' for Inactive)
REMARK    1  A    between atoms: C_1  and  O_2
REMARK    2  A    between atoms: O_2  and  C_3
REMARK    3  A    between atoms: C_6  and  N_9
REMARK    4  A    between atoms: N_12  and  C_15
REMARK    5  A    between atoms: C_15  and  C_17
REMARK    6  A    between atoms: C_15  and  C_24
REMARK    7  A    between atoms: C_25  and  O_37
REMARK    8  A    between atoms: C_30  and  C_32
REMARK                            x       y       z     vdW  Elec       q    Type
REMARK                         _______ _______ _______ _____ _____    ______ ____
ROOT
ATOM      1  C   UNL     1       2.452   3.936   0.000  0.00  0.00    +0.131 C 
ENDROOT
BRANCH   1   2
ATOM      2  C   UNL     1       2.745   4.421   1.397  0.00  0.00    +0.076 A 
ATOM      3  C   UNL     1       2.535   5.630   1.931  0.00  0.00    +0.228 A 
ATOM      4  N   UNL     1       2.871   5.886   3.238  0.00  0.00    -0.173 N 
ATOM      5  C   UNL     1       3.421   4.858   3.954  0.00  0.00    +0.200 A 
ATOM      6  S   UNL     1       3.454   3.530   2.773  0.00  0.00    -0.047 S 
ATOM      7  N   UNL     1       3.682   5.256   5.167  0.00  0.00    -0.197 NA
ATOM      8  C   UNL     1       3.321   6.540   5.299  0.00  0.00    +0.218 A 
ATOM      9  N   UNL     1       2.825   6.966   4.158  0.00  0.00    -0.138 NA
BRANCH   8  10
ATOM     10  C   UNL     1       3.458   7.348   6.529  0.00  0.00    +0.173 A 
ATOM     11  C   UNL     1       3.970   6.917   7.713  0.00  0.00    +0.053 A 
ATOM     12  C   UNL     1       3.910   8.009   8.602  0.00  0.00    +0.042 A 
ATOM     13  C   UNL     1       3.370   9.041   7.924  0.00  0.00    +0.196 A 
ATOM     14  O   UNL     1       3.103   8.639   6.671  0.00  0.00    -0.460 OA
ENDBRANCH   8  10
BRANCH   3  15
ATOM     15  O   UNL     1       1.985   6.615   1.172  0.00  0.00    -0.492 OA
ATOM     16  H   UNL     1       1.811   7.611   1.605  0.00  0.00    +0.294 HD
ENDBRANCH   3  15
ENDBRANCH   1   2
BRANCH   1  17
ATOM     17  C   UNL     1       1.321   2.941   0.041  0.00  0.00    -0.007 A 
ATOM     18  C   UNL     1       1.593   1.589   0.143  0.00  0.00    +0.007 A 
ATOM     19  C   UNL     1       0.556   0.676   0.181  0.00  0.00    +0.000 A 
ATOM     20  C   UNL     1      -0.754   1.114   0.111  0.00  0.00    +0.001 A 
ATOM     21  C   UNL     1      -1.027   2.465   0.015  0.00  0.00    +0.020 A 
ATOM     22  C   UNL     1       0.011   3.379  -0.023  0.00  0.00    +0.046 A 
ATOM     23 CL   UNL     1      -0.331   5.077  -0.151  0.00  0.00    -0.083 Cl
ENDBRANCH   1  17
BRANCH   1  27
ATOM     24  N   UNL     1       5.860   3.053  -2.335  0.00  0.00    -0.327 N 
ATOM     25  C   UNL     1       4.682   2.186  -2.481  0.00  0.00    +0.120 C 
ATOM     26  C   UNL     1       3.443   2.922  -1.963  0.00  0.00    +0.104 C 
ATOM     27  N   UNL     1       3.650   3.293  -0.556  0.00  0.00    -0.288 NA
ATOM     28  C   UNL     1       4.828   4.159  -0.410  0.00  0.00    +0.104 C 
ATOM     29  C   UNL     1       6.066   3.424  -0.928  0.00  0.00    +0.120 C 
BRANCH  24  33
ATOM     30  C   UNL     1       9.259   1.228  -3.913  0.00  0.00    +0.120 A 
ATOM     31  C   UNL     1       9.350   2.492  -3.349  0.00  0.00    +0.047 A 
ATOM     32  C   UNL     1       8.224   3.097  -2.825  0.00  0.00    +0.027 A 
ATOM     33  C   UNL     1       7.001   2.440  -2.865  0.00  0.00    +0.030 A 
ATOM     34  C   UNL     1       6.913   1.173  -3.425  0.00  0.00    +0.027 A 
ATOM     35  C   UNL     1       8.039   0.572  -3.953  0.00  0.00    +0.047 A 
BRANCH  30  37
ATOM     36  C   UNL     1      10.203  -0.668  -4.993  0.00  0.00    +0.277 C 
ATOM     37  O   UNL     1      10.369   0.633  -4.428  0.00  0.00    -0.495 OA
ENDBRANCH  30  37
ENDBRANCH  24  33
ENDBRANCH   1  27
TORSDOF 7
