REMARK  Name = ZINC00057480
REMARK  10 active torsions:
REMARK  status: ('A' for Active; 'I' for Inactive)
REMARK    1  A    between atoms: C_1  and  C_2
REMARK    2  A    between atoms: C_2  and  C_4
REMARK    3  A    between atoms: C_2  and  N_14
REMARK    4  A    between atoms: C_4  and  C_6
REMARK    5  A    between atoms: C_4  and  O_13
REMARK    6  A    between atoms: C_9  and  O_12
REMARK    7  A    between atoms: N_14  and  C_15
REMARK    8  A    between atoms: C_15  and  C_16
REMARK    9  A    between atoms: C_16  and  C_17
REMARK   10  A    between atoms: C_20  and  O_23
REMARK                            x       y       z     vdW  Elec       q    Type
REMARK                         _______ _______ _______ _____ _____    ______ ____
ROOT
ATOM      1  C   UNL     1      -0.019   1.526   0.010  0.00  0.00    -0.011 C 
ATOM      2  C   UNL     1       0.002  -0.004   0.002  0.00  0.00    -0.041 C 
ENDROOT
BRANCH   2   3
ATOM      3  N   UNL     1       0.713  -0.491   1.192  0.00  0.00    +0.383 N 
ATOM      4  H   UNL     1       0.798  -1.495   1.145  0.00  0.00    -0.085 HD
ATOM      5  H   UNL     1       1.632  -0.076   1.228  0.00  0.00    -0.085 HD
BRANCH   3   6
ATOM      6  C   UNL     1      -0.040  -0.119   2.398  0.00  0.00    -0.077 C 
BRANCH   6   7
ATOM      7  C   UNL     1       0.700  -0.626   3.637  0.00  0.00    +0.016 C 
BRANCH   7   8
ATOM      8  C   UNL     1      -0.072  -0.244   4.874  0.00  0.00    -0.049 A 
ATOM      9  C   UNL     1       0.177   0.965   5.497  0.00  0.00    +0.007 A 
ATOM     10  C   UNL     1      -0.529   1.317   6.631  0.00  0.00    +0.045 A 
ATOM     11  C   UNL     1      -1.488   0.456   7.145  0.00  0.00    +0.117 A 
ATOM     12  C   UNL     1      -1.736  -0.756   6.517  0.00  0.00    +0.045 A 
ATOM     13  C   UNL     1      -1.031  -1.101   5.380  0.00  0.00    +0.007 A 
BRANCH  11  14
ATOM     14  O   UNL     1      -2.184   0.799   8.261  0.00  0.00    -0.507 OA
ATOM     15  H   UNL     1      -3.001   1.285   8.081  0.00  0.00    +0.292 HD
ENDBRANCH  11  14
ENDBRANCH   7   8
ENDBRANCH   6   7
ENDBRANCH   3   6
ENDBRANCH   2   3
BRANCH   2  16
ATOM     16  C   UNL     1       0.718  -0.497  -1.257  0.00  0.00    +0.130 C 
BRANCH  16  17
ATOM     17  C   UNL     1      -0.077  -0.103  -2.474  0.00  0.00    -0.020 A 
ATOM     18  C   UNL     1       0.094   1.150  -3.034  0.00  0.00    +0.009 A 
ATOM     19  C   UNL     1      -0.634   1.514  -4.151  0.00  0.00    +0.046 A 
ATOM     20  C   UNL     1      -1.537   0.622  -4.710  0.00  0.00    +0.117 A 
ATOM     21  C   UNL     1      -1.707  -0.635  -4.146  0.00  0.00    +0.046 A 
ATOM     22  C   UNL     1      -0.973  -0.996  -3.033  0.00  0.00    +0.009 A 
BRANCH  20  23
ATOM     23  O   UNL     1      -2.255   0.978  -5.807  0.00  0.00    -0.507 OA
ATOM     24  H   UNL     1      -1.825   0.762  -6.646  0.00  0.00    +0.292 HD
ENDBRANCH  20  23
ENDBRANCH  16  17
BRANCH  16  25
ATOM     25  O   UNL     1       2.019   0.090  -1.326  0.00  0.00    -0.389 OA
ATOM     26  H   UNL     1       2.012   1.057  -1.362  0.00  0.00    +0.210 HD
ENDBRANCH  16  25
ENDBRANCH   2  16
TORSDOF 9
