REMARK  Name = ZINC19853384
REMARK  16 active torsions:
REMARK  status: ('A' for Active; 'I' for Inactive)
REMARK    1  A    between atoms: C_1  and  C_2
REMARK    2  A    between atoms: C_2  and  C_3
REMARK    3  A    between atoms: C_2  and  O_4
REMARK    4  A    between atoms: O_4  and  C_5
REMARK    5  A    between atoms: C_5  and  C_6
REMARK    6  A    between atoms: C_6  and  C_7
REMARK    7  A    between atoms: C_7  and  N_8
REMARK    8  A    between atoms: C_19  and  N_23
REMARK    9  A    between atoms: N_23  and  C_24
REMARK   10  A    between atoms: C_24  and  C_25
REMARK   11  A    between atoms: C_25  and  C_26
REMARK   12  A    between atoms: C_25  and  C_27
REMARK   13  A    between atoms: C_25  and  C_28
REMARK   14  A    between atoms: C_28  and  N_29
REMARK   15  A    between atoms: N_29  and  C_30
REMARK   16  A    between atoms: N_29  and  C_31
REMARK                            x       y       z     vdW  Elec       q    Type
REMARK                         _______ _______ _______ _____ _____    ______ ____
ROOT
ATOM      1  N   UNL     1       6.110  -1.995   6.061  0.00  0.00    -0.299 N 
ATOM      2  C   UNL     1       7.184  -1.188   5.879  0.00  0.00    +0.203 A 
ATOM      3  N   UNL     1       7.196  -0.197   5.016  0.00  0.00    -0.230 NA
ATOM      4  C   UNL     1       6.093   0.005   4.301  0.00  0.00    +0.116 A 
ATOM      5  C   UNL     1       4.924  -0.779   4.419  0.00  0.00    +0.076 A 
ATOM      6  C   UNL     1       4.953  -1.852   5.373  0.00  0.00    +0.262 A 
ATOM      7  O   UNL     1       3.997  -2.587   5.551  0.00  0.00    -0.267 OA
ATOM      8  C   UNL     1       3.816  -0.412   3.557  0.00  0.00    -0.023 A 
ATOM      9  C   UNL     1       4.014   0.641   2.729  0.00  0.00    -0.006 A 
ATOM     10  S   UNL     1       5.671   1.186   3.059  0.00  0.00    -0.073 S 
ATOM     11  C   UNL     1       3.042   1.218   1.747  0.00  0.00    +0.027 C 
ATOM     12  C   UNL     1       1.900   0.212   1.544  0.00  0.00    -0.067 C 
ATOM     13  C   UNL     1       1.418  -0.266   2.917  0.00  0.00    -0.011 C 
ATOM     14  C   UNL     1       2.483  -1.155   3.560  0.00  0.00    +0.035 C 
ENDROOT
BRANCH  12  15
ATOM     15  N   UNL     1       0.792   0.861   0.831  0.00  0.00    +0.381 N 
ATOM     16  H   UNL     1      -0.151   0.352   1.078  0.00  0.00    -0.085 HD
ATOM     17  H   UNL     1       0.729   1.917   1.135  0.00  0.00    -0.085 HD
BRANCH  15  18
ATOM     18  C   UNL     1       0.993   0.800  -0.623  0.00  0.00    -0.078 C 
BRANCH  18  19
ATOM     19  C   UNL     1      -0.178   1.485  -1.329  0.00  0.00    -0.065 C 
ATOM     20  C   UNL     1      -1.481   0.770  -0.965  0.00  0.00    +0.007 C 
ATOM     21  C   UNL     1      -0.257   2.947  -0.886  0.00  0.00    +0.007 C 
BRANCH  19  22
ATOM     22  C   UNL     1       0.032   1.421  -2.844  0.00  0.00    -0.075 C 
BRANCH  22  23
ATOM     23  N   UNL     1       0.025   0.019  -3.280  0.00  0.00    +0.376 N 
ATOM     24  C   UNL     1      -1.342  -0.436  -3.571  0.00  0.00    -0.097 C 
ATOM     25  C   UNL     1       0.902  -0.175  -4.443  0.00  0.00    -0.097 C 
ATOM     26  H   UNL     1       0.417  -0.594  -2.455  0.00  0.00    -0.083 HD
ENDBRANCH  22  23
ENDBRANCH  19  22
ENDBRANCH  18  19
ENDBRANCH  15  18
ENDBRANCH  12  15
BRANCH   1  27
ATOM     27  C   UNL     1       6.206  -3.072   7.050  0.00  0.00    +0.128 C 
BRANCH  27  28
ATOM     28  C   UNL     1       6.736  -4.338   6.375  0.00  0.00    +0.050 C 
BRANCH  28  29
ATOM     29  C   UNL     1       6.836  -5.463   7.408  0.00  0.00    +0.162 C 
BRANCH  29  30
ATOM     30  O   UNL     1       7.331  -6.646   6.777  0.00  0.00    -0.377 OA
BRANCH  30  32
ATOM     31  C   UNL     1       6.159  -8.563   7.668  0.00  0.00    +0.037 C 
ATOM     32  C   UNL     1       7.463  -7.763   7.659  0.00  0.00    +0.112 C 
ATOM     33  C   UNL     1       8.607  -8.658   7.181  0.00  0.00    +0.037 C 
ENDBRANCH  30  32
ENDBRANCH  29  30
ENDBRANCH  28  29
ENDBRANCH  27  28
ENDBRANCH   1  27
TORSDOF 10
