REMARK  Name = ZINC02301962
REMARK  11 active torsions:
REMARK  status: ('A' for Active; 'I' for Inactive)
REMARK    1  A    between atoms: C_1  and  C_2
REMARK    2  A    between atoms: C_7  and  N_8
REMARK    3  A    between atoms: C_20  and  S_21
REMARK    4  A    between atoms: S_21  and  C_22
REMARK    5  A    between atoms: C_22  and  C_23
REMARK    6  A    between atoms: C_23  and  O_25
REMARK    7  A    between atoms: O_25  and  C_26
REMARK    8  A    between atoms: C_28  and  C_32
REMARK    9  A    between atoms: C_32  and  C_33
REMARK   10  A    between atoms: C_32  and  C_34
REMARK   11  A    between atoms: C_32  and  C_35
REMARK                            x       y       z     vdW  Elec       q    Type
REMARK                         _______ _______ _______ _____ _____    ______ ____
ROOT
ATOM      1  N   UNL     1      -1.023   3.687   0.031  0.00  0.00    -0.245 N 
ATOM      2  C   UNL     1      -1.198   2.355   0.032  0.00  0.00    +0.268 A 
ATOM      3  O   UNL     1      -2.321   1.885   0.046  0.00  0.00    -0.266 OA
ATOM      4  C   UNL     1      -0.018   1.460   0.010  0.00  0.00    +0.075 A 
ATOM      5  C   UNL     1       0.002  -0.004   0.002  0.00  0.00    -0.023 A 
ATOM      6  C   UNL     1       1.222  -0.577  -0.011  0.00  0.00    -0.004 A 
ATOM      7  S   UNL     1       2.358   0.781  -0.015  0.00  0.00    -0.074 S 
ATOM      8  C   UNL     1       1.226   2.082   0.002  0.00  0.00    +0.102 A 
ATOM      9  N   UNL     1       1.358   3.452   0.006  0.00  0.00    -0.249 N 
ATOM     10  C   UNL     1       0.243   4.251   0.020  0.00  0.00    +0.245 A 
ATOM     11  N   UNL     1       0.641   5.501   0.021  0.00  0.00    -0.109 NA
ATOM     12  N   UNL     1       2.041   5.512   0.007  0.00  0.00    -0.120 NA
ATOM     13  C   UNL     1       2.457   4.269  -0.002  0.00  0.00    +0.198 A 
ATOM     14  C   UNL     1       1.534  -2.042  -0.021  0.00  0.00    +0.046 C 
ATOM     15  C   UNL     1       0.259  -2.809   0.362  0.00  0.00    -0.000 C 
ATOM     16  C   UNL     1      -0.911  -2.264  -0.462  0.00  0.00    +0.009 C 
ATOM     17  C   UNL     1      -1.264  -0.852   0.007  0.00  0.00    +0.037 C 
ENDROOT
BRANCH   1  24
ATOM     18  C   UNL     1      -2.083   4.471   2.553  0.00  0.00    +0.046 C 
ATOM     19  C   UNL     1      -2.694   4.931   1.255  0.00  0.00    -0.026 A 
ATOM     20  C   UNL     1      -3.798   5.761   1.266  0.00  0.00    +0.005 A 
ATOM     21  C   UNL     1      -4.363   6.178   0.075  0.00  0.00    +0.000 A 
ATOM     22  C   UNL     1      -3.822   5.771  -1.131  0.00  0.00    +0.002 A 
ATOM     23  C   UNL     1      -2.715   4.945  -1.149  0.00  0.00    +0.026 A 
ATOM     24  C   UNL     1      -2.145   4.524   0.046  0.00  0.00    +0.056 A 
ENDBRANCH   1  24
BRANCH  15  25
ATOM     25  C   UNL     1       0.448  -4.298   0.063  0.00  0.00    -0.035 C 
ATOM     26  C   UNL     1       0.742  -4.486  -1.427  0.00  0.00    +0.011 C 
ATOM     27  C   UNL     1       1.617  -4.840   0.887  0.00  0.00    +0.011 C 
ATOM     28  C   UNL     1      -0.829  -5.057   0.430  0.00  0.00    +0.011 C 
ENDBRANCH  15  25
BRANCH  13  29
ATOM     29  S   UNL     1       4.138   3.742  -0.020  0.00  0.00    -0.074 S 
BRANCH  29  30
ATOM     30  C   UNL     1       5.084   5.290  -0.023  0.00  0.00    +0.197 C 
BRANCH  30  31
ATOM     31  C   UNL     1       6.558   4.977  -0.039  0.00  0.00    +0.317 C 
ATOM     32  O   UNL     1       6.932   3.829  -0.047  0.00  0.00    -0.250 OA
BRANCH  31  33
ATOM     33  O   UNL     1       7.456   5.976  -0.044  0.00  0.00    -0.467 OA
ATOM     34  C   UNL     1       8.858   5.601  -0.059  0.00  0.00    +0.280 C 
ENDBRANCH  31  33
ENDBRANCH  30  31
ENDBRANCH  29  30
ENDBRANCH  13  29
TORSDOF 6
