REMARK  Name = ZINC45129542
REMARK  5 active torsions:
REMARK  status: ('A' for Active; 'I' for Inactive)
REMARK    1  A    between atoms: C_8  and  C_12
REMARK    2  A    between atoms: C_12  and  N_13
REMARK    3  A    between atoms: N_16  and  N_17
REMARK    4  A    between atoms: C_18  and  C_20
REMARK    5  A    between atoms: C_20  and  C_21
REMARK                            x       y       z     vdW  Elec       q    Type
REMARK                         _______ _______ _______ _____ _____    ______ ____
ROOT
ATOM      1  N   UNL     1       3.899  -4.767   0.598  0.00  0.00    -0.298 N 
ATOM      2  C   UNL     1       4.189  -6.074   0.444  0.00  0.00    +0.316 C 
ATOM      3  O   UNL     1       3.401  -6.809  -0.120  0.00  0.00    -0.251 OA
ATOM      4  N   UNL     1       5.351  -6.567   0.916  0.00  0.00    -0.218 N 
ATOM      5  H   UNL     1       4.527  -4.181   1.048  0.00  0.00    +0.150 HD
ATOM      6  H   UNL     1       5.560  -7.508   0.805  0.00  0.00    +0.174 HD
ENDROOT
BRANCH   4   7
ATOM      7  N   UNL     1       6.259  -5.720   1.566  0.00  0.00    -0.233 N 
ATOM      8  C   UNL     1       7.421  -6.212   2.038  0.00  0.00    +0.234 C 
ATOM      9  O   UNL     1       7.682  -7.389   1.899  0.00  0.00    -0.274 OA
ATOM     10  H   UNL     1       6.050  -4.779   1.677  0.00  0.00    +0.173 HD
BRANCH   8  11
ATOM     11  C   UNL     1       8.397  -5.302   2.737  0.00  0.00    +0.134 C 
BRANCH  11  12
ATOM     12  C   UNL     1       9.606  -6.093   3.163  0.00  0.00    -0.014 A 
ATOM     13  C   UNL     1       9.809  -6.656   4.365  0.00  0.00    +0.087 A 
ATOM     14  N   UNL     1      11.020  -7.293   4.384  0.00  0.00    -0.360 N 
ATOM     15  H   UNL     1      11.386  -7.772   5.143  0.00  0.00    +0.165 HD
ATOM     16  C   UNL     1      11.641  -7.153   3.163  0.00  0.00    +0.047 A 
ATOM     17  C   UNL     1      10.780  -6.401   2.343  0.00  0.00    +0.003 A 
ATOM     18  C   UNL     1      11.151  -6.104   1.030  0.00  0.00    +0.010 A 
ATOM     19  C   UNL     1      12.349  -6.550   0.547  0.00  0.00    +0.001 A 
ATOM     20  C   UNL     1      13.200  -7.296   1.350  0.00  0.00    +0.002 A 
ATOM     21  C   UNL     1      12.858  -7.592   2.652  0.00  0.00    +0.026 A 
ENDBRANCH  11  12
ENDBRANCH   8  11
ENDBRANCH   4   7
BRANCH   1  22
ATOM     22  C   UNL     1       2.635  -4.231   0.086  0.00  0.00    +0.113 C 
BRANCH  22  30
ATOM     23  C   UNL     1      -0.017   1.377   0.010  0.00  0.00    +0.000 A 
ATOM     24  C   UNL     1       1.172   2.084   0.002  0.00  0.00    +0.004 A 
ATOM     25  C   UNL     1       2.375   1.409  -0.011  0.00  0.00    +0.046 A 
ATOM     26  C   UNL     1       2.398   0.018  -0.018  0.00  0.00    +0.124 A 
ATOM     27  C   UNL     1       1.207  -0.687  -0.014  0.00  0.00    -0.005 A 
ATOM     28  C   UNL     1       0.002  -0.004   0.002  0.00  0.00    +0.007 A 
ATOM     29  C   UNL     1       1.187  -2.194  -0.033  0.00  0.00    +0.047 C 
ATOM     30  C   UNL     1       2.556  -2.734   0.389  0.00  0.00    +0.048 C 
ATOM     31  C   UNL     1       3.634  -1.986  -0.407  0.00  0.00    +0.234 C 
ATOM     32  O   UNL     1       3.602  -0.610  -0.025  0.00  0.00    -0.491 OA
ENDBRANCH  22  30
ENDBRANCH   1  22
TORSDOF 5
