REMARK  Name = ZINC21233200
REMARK  12 active torsions:
REMARK  status: ('A' for Active; 'I' for Inactive)
REMARK    1  A    between atoms: C_1  and  C_2
REMARK    2  A    between atoms: C_3  and  C_33
REMARK    3  A    between atoms: C_11  and  C_13
REMARK    4  A    between atoms: C_13  and  C_15
REMARK    5  A    between atoms: C_13  and  S_16
REMARK    6  A    between atoms: S_16  and  C_17
REMARK    7  A    between atoms: C_20  and  C_23
REMARK    8  A    between atoms: N_21  and  N_22
REMARK    9  A    between atoms: C_26  and  C_29
REMARK   10  A    between atoms: C_29  and  C_30
REMARK   11  A    between atoms: C_29  and  C_31
REMARK   12  A    between atoms: C_29  and  C_32
REMARK                            x       y       z     vdW  Elec       q    Type
REMARK                         _______ _______ _______ _____ _____    ______ ____
ROOT
ATOM      1  C   UNL     1      -0.876  -5.847   5.633  0.00  0.00    +0.209 A 
ATOM      2  N   UNL     1      -0.301  -5.506   6.766  0.00  0.00    -0.121 NA
ATOM      3  N   UNL     1      -0.498  -6.417   7.651  0.00  0.00    -0.127 NA
ATOM      4  C   UNL     1      -1.210  -7.394   7.139  0.00  0.00    +0.182 A 
ATOM      5  N   UNL     1      -1.479  -7.056   5.833  0.00  0.00    -0.224 N 
ENDROOT
BRANCH   4   6
ATOM      6  C   UNL     1      -1.646  -8.622   7.836  0.00  0.00    +0.021 A 
ATOM      7  C   UNL     1      -2.116  -9.714   7.105  0.00  0.00    +0.012 A 
ATOM      8  C   UNL     1      -2.521 -10.857   7.762  0.00  0.00    +0.005 A 
ATOM      9  C   UNL     1      -2.462 -10.924   9.143  0.00  0.00    -0.042 A 
ATOM     10  C   UNL     1      -1.997  -9.845   9.873  0.00  0.00    +0.005 A 
ATOM     11  C   UNL     1      -1.583  -8.697   9.229  0.00  0.00    +0.012 A 
BRANCH   9  12
ATOM     12  C   UNL     1      -2.905 -12.176   9.853  0.00  0.00    -0.013 C 
ATOM     13  C   UNL     1      -2.051 -13.357   9.387  0.00  0.00    +0.015 C 
ATOM     14  C   UNL     1      -2.740 -11.992  11.363  0.00  0.00    +0.015 C 
ATOM     15  C   UNL     1      -4.376 -12.451   9.531  0.00  0.00    +0.015 C 
ENDBRANCH   9  12
ENDBRANCH   4   6
BRANCH   5  16
ATOM     16  N   UNL     1      -2.196  -7.780   4.924  0.00  0.00    -0.295 N 
ATOM     17  H   UNL     1      -1.599  -8.410   4.410  0.00  0.00    +0.163 HD
ATOM     18  H   UNL     1      -2.948  -8.281   5.373  0.00  0.00    +0.163 HD
ENDBRANCH   5  16
BRANCH   1  19
ATOM     19  S   UNL     1      -0.875  -4.913   4.139  0.00  0.00    -0.074 S 
BRANCH  19  20
ATOM     20  C   UNL     1       0.090  -3.432   4.547  0.00  0.00    +0.117 C 
ATOM     21  C   UNL     1       1.535  -3.832   4.850  0.00  0.00    +0.027 C 
BRANCH  20  32
ATOM     22  C   UNL     1      -0.018   1.503   0.010  0.00  0.00    +0.045 C 
ATOM     23  C   UNL     1       0.002  -0.004   0.002  0.00  0.00    -0.026 A 
ATOM     24  C   UNL     1       0.006  -0.677  -1.160  0.00  0.00    -0.008 A 
ATOM     25  S   UNL     1       0.032  -2.385  -0.648  0.00  0.00    -0.073 S 
ATOM     26  C   UNL     1       0.037  -2.144   1.110  0.00  0.00    +0.116 A 
ATOM     27  C   UNL     1       0.024  -0.745   1.250  0.00  0.00    +0.075 A 
ATOM     28  C   UNL     1       0.029  -0.257   2.597  0.00  0.00    +0.260 A 
ATOM     29  O   UNL     1       0.014   0.942   2.821  0.00  0.00    -0.267 OA
ATOM     30  N   UNL     1       0.051  -1.142   3.611  0.00  0.00    -0.309 N 
ATOM     31  H   UNL     1       0.054  -0.817   4.525  0.00  0.00    +0.170 HD
ATOM     32  C   UNL     1       0.067  -2.480   3.380  0.00  0.00    +0.124 A 
ATOM     33  N   UNL     1       0.053  -2.956   2.163  0.00  0.00    -0.225 NA
ATOM     34  C   UNL     1      -0.009  -0.122  -2.561  0.00  0.00    +0.052 C 
ENDBRANCH  20  32
ENDBRANCH  19  20
ENDBRANCH   1  19
TORSDOF 6
