REMARK  Name = ZINC12377693
REMARK  7 active torsions:
REMARK  status: ('A' for Active; 'I' for Inactive)
REMARK    1  A    between atoms: C_5  and  N_7
REMARK    2  A    between atoms: N_7  and  C_8
REMARK    3  A    between atoms: C_8  and  N_10
REMARK    4  A    between atoms: N_10  and  C_11
REMARK    5  A    between atoms: C_11  and  C_13
REMARK    6  A    between atoms: C_11  and  N_17
REMARK    7  A    between atoms: C_18  and  C_20
REMARK                            x       y       z     vdW  Elec       q    Type
REMARK                         _______ _______ _______ _____ _____    ______ ____
ROOT
ATOM      1  C   UNL     1       1.750   7.332   0.170  0.00  0.00    +0.211 C 
ENDROOT
BRANCH   1   2
ATOM      2  C   UNL     1       1.048   8.394   1.019  0.00  0.00    +0.225 C 
ATOM      3 CL   UNL     1       1.175   7.950   2.762  0.00  0.00    -0.080 Cl
ATOM      4 CL   UNL     1       1.833   9.994   0.748  0.00  0.00    -0.080 Cl
ATOM      5 CL   UNL     1      -0.689   8.489   0.547  0.00  0.00    -0.080 Cl
ENDBRANCH   1   2
BRANCH   1   6
ATOM      6  N   UNL     1       1.112   6.031   0.390  0.00  0.00    -0.287 N 
ATOM      7  C   UNL     1       1.870   4.933   0.583  0.00  0.00    +0.281 C 
ATOM      8  O   UNL     1       3.084   5.022   0.573  0.00  0.00    -0.267 OA
ATOM      9  H   UNL     1       0.145   5.960   0.398  0.00  0.00    +0.151 HD
BRANCH   7  10
ATOM     10  C   UNL     1       1.232   3.632   0.803  0.00  0.00    +0.191 A 
ATOM     11  C   UNL     1       1.878   2.447   1.010  0.00  0.00    +0.056 A 
ATOM     12  C   UNL     1       0.885   1.469   1.174  0.00  0.00    +0.058 A 
ATOM     13  C   UNL     1      -0.310   2.092   1.056  0.00  0.00    +0.171 A 
ATOM     14  O   UNL     1      -0.096   3.396   0.838  0.00  0.00    -0.444 OA
ATOM     15 BR   UNL     1      -2.003   1.259   1.181  0.00  0.00    -0.008 Br
ENDBRANCH   7  10
ENDBRANCH   1   6
BRANCH   1  16
ATOM     16  N   UNL     1       1.647   7.692  -1.246  0.00  0.00    -0.305 N 
ATOM     17  H   UNL     1       0.800   7.997  -1.609  0.00  0.00    +0.150 HD
BRANCH  16  18
ATOM     18  C   UNL     1       2.728   7.601  -2.045  0.00  0.00    +0.136 C 
ATOM     19  S   UNL     1       4.223   7.063  -1.405  0.00  0.00    -0.019 S 
BRANCH  18  20
ATOM     20  N   UNL     1       2.634   7.932  -3.348  0.00  0.00    -0.296 N 
ATOM     21  H   UNL     1       1.774   8.177  -3.725  0.00  0.00    +0.154 HD
BRANCH  20  26
ATOM     22  C   UNL     1       5.766   6.832  -4.930  0.00  0.00    +0.002 A 
ATOM     23  C   UNL     1       6.035   7.907  -5.756  0.00  0.00    +0.002 A 
ATOM     24  C   UNL     1       5.178   8.992  -5.785  0.00  0.00    +0.022 A 
ATOM     25  C   UNL     1       4.049   9.004  -4.988  0.00  0.00    +0.062 A 
ATOM     26  C   UNL     1       3.776   7.924  -4.157  0.00  0.00    +0.051 A 
ATOM     27  C   UNL     1       4.642   6.839  -4.127  0.00  0.00    +0.025 A 
ATOM     28 CL   UNL     1       2.973  10.366  -5.025  0.00  0.00    -0.082 Cl
ENDBRANCH  20  26
ENDBRANCH  18  20
ENDBRANCH  16  18
ENDBRANCH   1  16
TORSDOF 7
