REMARK  Name = ZINC16400547
REMARK  5 active torsions:
REMARK  status: ('A' for Active; 'I' for Inactive)
REMARK    1  A    between atoms: C_1  and  C_2
REMARK    2  A    between atoms: C_2  and  C_22
REMARK    3  A    between atoms: N_5  and  C_9
REMARK    4  A    between atoms: C_9  and  C_10
REMARK    5  A    between atoms: N_12  and  C_13
REMARK                            x       y       z     vdW  Elec       q    Type
REMARK                         _______ _______ _______ _____ _____    ______ ____
ROOT
ATOM      1  C   UNL     1      -3.533   2.189   2.911  0.00  0.00    +0.050 C 
ATOM      2  C   UNL     1      -2.066   1.768   3.024  0.00  0.00    +0.168 C 
ATOM      3  C   UNL     1      -1.667   0.903   1.845  0.00  0.00    +0.254 C 
ATOM      4  O   UNL     1      -2.134  -0.172   1.534  0.00  0.00    -0.272 OA
ATOM      5  N   UNL     1      -0.686   1.578   1.213  0.00  0.00    -0.215 N 
ATOM      6  C   UNL     1      -0.410   2.735   1.826  0.00  0.00    +0.310 C 
ATOM      7  O   UNL     1       0.441   3.515   1.444  0.00  0.00    -0.252 OA
ATOM      8  N   UNL     1      -1.181   2.940   2.909  0.00  0.00    -0.279 N 
ATOM      9  H   UNL     1      -1.156   3.708   3.501  0.00  0.00    +0.152 HD
ENDROOT
BRANCH   2  10
ATOM     10  C   UNL     1      -1.823   1.041   4.321  0.00  0.00    +0.137 A 
ATOM     11  C   UNL     1      -1.509   1.614   5.497  0.00  0.00    +0.047 A 
ATOM     12  C   UNL     1      -1.375   0.568   6.439  0.00  0.00    +0.041 A 
ATOM     13  C   UNL     1      -1.607  -0.582   5.780  0.00  0.00    +0.195 A 
ATOM     14  O   UNL     1      -1.878  -0.289   4.498  0.00  0.00    -0.465 OA
ENDBRANCH   2  10
BRANCH   5  15
ATOM     15  C   UNL     1      -0.003   1.101   0.008  0.00  0.00    +0.214 C 
BRANCH  15  16
ATOM     16  C   UNL     1      -0.738   1.591  -1.213  0.00  0.00    +0.235 C 
ATOM     17  O   UNL     1      -1.735   2.271  -1.089  0.00  0.00    -0.274 OA
ATOM     18  N   UNL     1      -0.288   1.272  -2.443  0.00  0.00    -0.283 N 
ATOM     19  H   UNL     1       0.544   0.784  -2.544  0.00  0.00    +0.155 HD
BRANCH  18  20
ATOM     20  C   UNL     1      -1.022   1.647  -3.575  0.00  0.00    +0.053 A 
ATOM     21  C   UNL     1      -1.723   2.845  -3.585  0.00  0.00    +0.046 A 
ATOM     22  C   UNL     1      -2.441   3.215  -4.706  0.00  0.00    +0.061 A 
ATOM     23  C   UNL     1      -2.472   2.386  -5.815  0.00  0.00    +0.061 A 
ATOM     24  C   UNL     1      -1.780   1.188  -5.806  0.00  0.00    +0.043 A 
ATOM     25  C   UNL     1      -1.055   0.817  -4.689  0.00  0.00    +0.064 A 
ATOM     26 CL   UNL     1      -0.185  -0.686  -4.679  0.00  0.00    -0.082 Cl
ATOM     27 CL   UNL     1      -3.381   2.850  -7.220  0.00  0.00    -0.082 Cl
ATOM     28 CL   UNL     1      -3.311   4.717  -4.722  0.00  0.00    -0.082 Cl
ENDBRANCH  18  20
ENDBRANCH  15  16
ENDBRANCH   5  15
TORSDOF 4
