REMARK  Name = ZINC14475722
REMARK  4 active torsions:
REMARK  status: ('A' for Active; 'I' for Inactive)
REMARK    1  A    between atoms: C_6  and  C_7
REMARK    2  A    between atoms: C_17  and  C_20
REMARK    3  A    between atoms: C_22  and  N_27
REMARK    4  A    between atoms: C_25  and  O_26
REMARK                            x       y       z     vdW  Elec       q    Type
REMARK                         _______ _______ _______ _____ _____    ______ ____
ROOT
ATOM      1  C   UNL     1       1.071  -0.595   0.012  0.00  0.00    +0.015 A 
ATOM      2  C   UNL     1       2.273   0.076  -0.003  0.00  0.00    +0.024 A 
ATOM      3  C   UNL     1       2.298   1.469  -0.003  0.00  0.00    +0.031 A 
ATOM      4  C   UNL     1       1.118   2.198   0.012  0.00  0.00    -0.019 A 
ATOM      5  C   UNL     1      -0.091   1.526   0.024  0.00  0.00    +0.019 A 
ATOM      6  C   UNL     1      -0.123   0.131   0.025  0.00  0.00    +0.037 A 
ATOM      7  C   UNL     1       1.086   3.712   0.009  0.00  0.00    +0.049 C 
ATOM      8  C   UNL     1       0.358   4.138   1.285  0.00  0.00    -0.023 C 
ATOM      9  C   UNL     1       1.215   4.417   2.235  0.00  0.00    -0.030 C 
ATOM     10  C   UNL     1       2.637   4.214   1.743  0.00  0.00    +0.033 C 
ATOM     11  C   UNL     1       2.489   4.315   0.207  0.00  0.00    +0.029 C 
ATOM     12  C   UNL     1       3.562   3.508  -0.499  0.00  0.00    +0.108 C 
ATOM     13  N   UNL     1       3.529   2.122  -0.021  0.00  0.00    -0.336 N 
ATOM     14  H   UNL     1       4.457   1.631   0.308  0.00  0.00    +0.147 HD
ENDROOT
BRANCH  12  15
ATOM     15  C   UNL     1       3.313   3.533  -1.985  0.00  0.00    +0.017 A 
ATOM     16  C   UNL     1       2.744   2.439  -2.609  0.00  0.00    +0.041 A 
ATOM     17  C   UNL     1       2.515   2.461  -3.972  0.00  0.00    +0.127 A 
ATOM     18  C   UNL     1       2.854   3.577  -4.715  0.00  0.00    +0.036 A 
ATOM     19  C   UNL     1       3.424   4.673  -4.096  0.00  0.00    +0.048 A 
ATOM     20  C   UNL     1       3.650   4.655  -2.727  0.00  0.00    +0.122 A 
BRANCH  17  21
ATOM     21  N   UNL     1       1.904   1.289  -4.638  0.00  0.00    +0.056 N 
ATOM     22  O   UNL     1       1.604   0.305  -3.985  0.00  0.00    -0.126 OA
ATOM     23  O   UNL     1       1.702   1.307  -5.838  0.00  0.00    -0.126 OA
ENDBRANCH  17  21
BRANCH  20  24
ATOM     24  O   UNL     1       4.205   5.734  -2.115  0.00  0.00    -0.506 OA
ATOM     25  H   UNL     1       4.472   6.624  -2.704  0.00  0.00    +0.292 HD
ENDBRANCH  20  24
ENDBRANCH  12  15
BRANCH   6  26
ATOM     26  C   UNL     1      -1.417  -0.577   0.039  0.00  0.00    +0.242 C 
ATOM     27  O   UNL     1      -2.456   0.054   0.050  0.00  0.00    -0.270 OA
ATOM     28  N   UNL     1      -1.448  -1.925   0.040  0.00  0.00    -0.325 N 
ATOM     29  H   UNL     1      -2.412  -2.453   0.051  0.00  0.00    +0.145 HD
ATOM     30  H   UNL     1      -0.508  -2.496   0.030  0.00  0.00    +0.145 HD
ENDBRANCH   6  26
TORSDOF 4
