REMARK  Name = ZINC37020239
REMARK  9 active torsions:
REMARK  status: ('A' for Active; 'I' for Inactive)
REMARK    1  A    between atoms: C_1  and  C_2
REMARK    2  A    between atoms: C_2  and  C_3
REMARK    3  A    between atoms: C_2  and  C_4
REMARK    4  A    between atoms: C_4  and  C_5
REMARK    5  A    between atoms: C_5  and  C_7
REMARK    6  A    between atoms: C_5  and  N_22
REMARK    7  A    between atoms: N_9  and  C_10
REMARK    8  A    between atoms: C_15  and  O_16
REMARK    9  A    between atoms: O_16  and  C_17
REMARK                            x       y       z     vdW  Elec       q    Type
REMARK                         _______ _______ _______ _____ _____    ______ ____
ROOT
ATOM      1  C   UNL     1      -2.817  -2.598   0.013  0.00  0.00    +0.203 C 
ATOM      2  O   UNL     1      -3.452  -2.890  -0.978  0.00  0.00    -0.277 OA
ATOM      3  N   UNL     1      -3.370  -2.737   1.234  0.00  0.00    -0.284 N 
ATOM      4  H   UNL     1      -2.842  -2.565   2.028  0.00  0.00    +0.155 HD
ENDROOT
BRANCH   3   5
ATOM      5  C   UNL     1      -4.709  -3.132   1.355  0.00  0.00    +0.078 A 
ATOM      6  C   UNL     1      -5.256  -4.024   0.444  0.00  0.00    +0.047 A 
ATOM      7  C   UNL     1      -6.578  -4.412   0.565  0.00  0.00    +0.044 A 
ATOM      8  C   UNL     1      -7.358  -3.913   1.593  0.00  0.00    +0.039 A 
ATOM      9  C   UNL     1      -6.818  -3.024   2.505  0.00  0.00    +0.063 A 
ATOM     10  C   UNL     1      -5.492  -2.635   2.393  0.00  0.00    +0.162 A 
ATOM     11 BR   UNL     1      -7.887  -2.345   3.909  0.00  0.00    -0.046 Br
ATOM     12 CL   UNL     1      -7.261  -5.528  -0.577  0.00  0.00    -0.083 Cl
BRANCH  10  13
ATOM     13  O   UNL     1      -4.959  -1.764   3.292  0.00  0.00    -0.431 OA
BRANCH  13  14
ATOM     14  C   UNL     1      -5.059  -0.372   2.986  0.00  0.00    +0.541 C 
ATOM     15  F   UNL     1      -4.404  -0.113   1.777  0.00  0.00    -0.166 F 
ATOM     16  F   UNL     1      -6.407  -0.016   2.871  0.00  0.00    -0.166 F 
ENDBRANCH  13  14
ENDBRANCH  10  13
ENDBRANCH   3   5
BRANCH   1  17
ATOM     17  C   UNL     1      -1.409  -2.078  -0.121  0.00  0.00    +0.013 C 
BRANCH  17  18
ATOM     18  N   UNL     1      -0.870  -2.455  -1.435  0.00  0.00    +0.386 N 
ATOM     19  H   UNL     1       0.073  -2.107  -1.524  0.00  0.00    -0.089 HD
ATOM     20  H   UNL     1      -0.867  -3.460  -1.521  0.00  0.00    -0.089 HD
ATOM     21  H   UNL     1      -1.446  -2.057  -2.161  0.00  0.00    -0.089 HD
ENDBRANCH  17  18
BRANCH  17  22
ATOM     22  C   UNL     1      -1.413  -0.553   0.009  0.00  0.00    -0.004 C 
BRANCH  22  24
ATOM     23  C   UNL     1       0.019   1.494   0.004  0.00  0.00    +0.007 C 
ATOM     24  C   UNL     1       0.027  -0.036  -0.001  0.00  0.00    -0.018 C 
ATOM     25  C   UNL     1       0.761  -0.547   1.240  0.00  0.00    +0.007 C 
ENDBRANCH  22  24
ENDBRANCH  17  22
ENDBRANCH   1  17
TORSDOF 7
