REMARK  Name = ZINC24450825
REMARK  6 active torsions:
REMARK  status: ('A' for Active; 'I' for Inactive)
REMARK    1  A    between atoms: C_9  and  C_18
REMARK    2  A    between atoms: C_18  and  N_19
REMARK    3  A    between atoms: C_20  and  C_22
REMARK    4  A    between atoms: C_22  and  C_23
REMARK    5  A    between atoms: C_23  and  C_25
REMARK    6  A    between atoms: C_23  and  N_32
REMARK                            x       y       z     vdW  Elec       q    Type
REMARK                         _______ _______ _______ _____ _____    ______ ____
ROOT
ATOM      1  N   UNL     1      -4.205  -1.706   2.173  0.00  0.00    -0.315 N 
ATOM      2  C   UNL     1      -3.386  -1.487   1.125  0.00  0.00    +0.215 C 
ATOM      3  O   UNL     1      -3.759  -1.742  -0.001  0.00  0.00    -0.276 OA
ATOM      4  H   UNL     1      -3.866  -1.475   3.193  0.00  0.00    +0.149 HD
ENDROOT
BRANCH   1   5
ATOM      5  C   UNL     1      -5.546  -2.253   1.952  0.00  0.00    +0.108 C 
BRANCH   5  14
ATOM      6  C   UNL     1      -7.382  -6.773   1.499  0.00  0.00    +0.000 A 
ATOM      7  C   UNL     1      -8.046  -5.830   0.737  0.00  0.00    +0.000 A 
ATOM      8  C   UNL     1      -8.186  -4.526   1.196  0.00  0.00    +0.004 A 
ATOM      9  C   UNL     1      -7.657  -4.196   2.411  0.00  0.00    -0.036 A 
ATOM     10  C   UNL     1      -6.989  -5.147   3.179  0.00  0.00    -0.036 A 
ATOM     11  C   UNL     1      -6.846  -6.430   2.734  0.00  0.00    +0.004 A 
ATOM     12  C   UNL     1      -6.458  -4.624   4.505  0.00  0.00    +0.050 C 
ATOM     13  C   UNL     1      -5.530  -3.445   4.138  0.00  0.00    +0.018 C 
ATOM     14  C   UNL     1      -6.262  -2.404   3.296  0.00  0.00    +0.019 C 
ATOM     15  C   UNL     1      -7.729  -2.815   3.043  0.00  0.00    +0.054 C 
ATOM     16  C   UNL     1      -8.328  -3.042   4.423  0.00  0.00    -0.036 A 
ATOM     17  C   UNL     1      -7.660  -3.993   5.191  0.00  0.00    -0.036 A 
ATOM     18  C   UNL     1      -8.087  -4.298   6.451  0.00  0.00    +0.004 A 
ATOM     19  C   UNL     1      -9.203  -3.643   6.957  0.00  0.00    +0.000 A 
ATOM     20  C   UNL     1      -9.866  -2.699   6.194  0.00  0.00    +0.000 A 
ATOM     21  C   UNL     1      -9.424  -2.393   4.913  0.00  0.00    +0.004 A 
ENDBRANCH   5  14
ENDBRANCH   1   5
BRANCH   2  22
ATOM     22  C   UNL     1      -2.006  -0.925   1.351  0.00  0.00    +0.123 C 
BRANCH  22  23
ATOM     23  C   UNL     1      -1.290  -0.774   0.008  0.00  0.00    +0.115 C 
BRANCH  23  24
ATOM     24  C   UNL     1       0.041  -0.099   0.221  0.00  0.00    -0.008 A 
ATOM     25  C   UNL     1       0.570   0.000   1.494  0.00  0.00    +0.007 A 
ATOM     26  C   UNL     1       1.790   0.619   1.690  0.00  0.00    +0.000 A 
ATOM     27  C   UNL     1       2.482   1.139   0.612  0.00  0.00    +0.001 A 
ATOM     28  C   UNL     1       1.955   1.040  -0.661  0.00  0.00    +0.020 A 
ATOM     29  C   UNL     1       0.733   0.421  -0.858  0.00  0.00    +0.046 A 
ATOM     30 CL   UNL     1       0.073   0.291  -2.458  0.00  0.00    -0.083 Cl
ENDBRANCH  23  24
BRANCH  23  31
ATOM     31  N   UNL     1      -1.077  -2.098  -0.583  0.00  0.00    -0.292 N 
ATOM     32  C   UNL     1      -0.265  -2.985   0.025  0.00  0.00    +0.298 C 
ATOM     33  O   UNL     1       0.217  -2.723   1.111  0.00  0.00    -0.253 OA
ATOM     34  N   UNL     1       0.014  -4.162  -0.569  0.00  0.00    -0.313 N 
ATOM     35  H   UNL     1      -1.580  -2.367  -1.524  0.00  0.00    +0.151 HD
ATOM     36  H   UNL     1       0.676  -4.886  -0.072  0.00  0.00    +0.146 HD
ATOM     37  H   UNL     1      -0.422  -4.398  -1.551  0.00  0.00    +0.146 HD
ENDBRANCH  23  31
ENDBRANCH  22  23
ENDBRANCH   2  22
TORSDOF 6
