REMARK  Name = ZINC25597651
REMARK  8 active torsions:
REMARK  status: ('A' for Active; 'I' for Inactive)
REMARK    1  A    between atoms: C_4  and  C_7
REMARK    2  A    between atoms: C_12  and  O_13
REMARK    3  A    between atoms: O_13  and  C_14
REMARK    4  A    between atoms: C_14  and  C_15
REMARK    5  A    between atoms: N_17  and  N_18
REMARK    6  A    between atoms: C_19  and  C_21
REMARK    7  A    between atoms: C_25  and  C_30
REMARK    8  A    between atoms: C_30  and  C_31
REMARK                            x       y       z     vdW  Elec       q    Type
REMARK                         _______ _______ _______ _____ _____    ______ ____
ROOT
ATOM      1  N   UNL     1      -5.230   7.686   0.093  0.00  0.00    -0.233 N 
ATOM      2  C   UNL     1      -5.414   9.021   0.102  0.00  0.00    +0.250 C 
ATOM      3  O   UNL     1      -4.456   9.765   0.096  0.00  0.00    -0.272 OA
ATOM      4  H   UNL     1      -6.098   7.010   0.099  0.00  0.00    +0.173 HD
ENDROOT
BRANCH   2   5
ATOM      5  C   UNL     1      -6.810   9.589   0.118  0.00  0.00    +0.170 C 
ATOM      6  C   UNL     1      -7.404   9.480  -1.286  0.00  0.00    +0.101 C 
ATOM      7  S   UNL     1      -8.988  10.379  -1.300  0.00  0.00    -0.145 S 
ATOM      8  C   UNL     1      -8.470  12.069  -0.871  0.00  0.00    +0.136 C 
ATOM      9  C   UNL     1      -7.472  12.002   0.249  0.00  0.00    +0.227 C 
ATOM     10  O   UNL     1      -7.311  13.012   0.901  0.00  0.00    -0.275 OA
ATOM     11  N   UNL     1      -6.753  10.953   0.593  0.00  0.00    -0.302 N 
ATOM     12  H   UNL     1      -6.021  11.238   1.362  0.00  0.00    +0.150 HD
BRANCH   8  13
ATOM     13  C   UNL     1      -9.688  12.881  -0.424  0.00  0.00    +0.058 C 
BRANCH  13  14
ATOM     14  C   UNL     1     -10.632  13.051  -1.587  0.00  0.00    -0.046 A 
ATOM     15  C   UNL     1     -10.507  14.144  -2.424  0.00  0.00    +0.006 A 
ATOM     16  C   UNL     1     -11.368  14.299  -3.493  0.00  0.00    +0.038 A 
ATOM     17  C   UNL     1     -12.364  13.364  -3.719  0.00  0.00    +0.123 A 
ATOM     18  C   UNL     1     -12.492  12.273  -2.877  0.00  0.00    +0.038 A 
ATOM     19  C   UNL     1     -11.626  12.117  -1.812  0.00  0.00    +0.006 A 
ATOM     20  F   UNL     1     -13.211  13.517  -4.761  0.00  0.00    -0.205 F 
ENDBRANCH  13  14
ENDBRANCH   8  13
ENDBRANCH   2   5
BRANCH   1  23
ATOM     21  C   UNL     1      -3.748   5.822   0.069  0.00  0.00    +0.267 C 
ATOM     22  O   UNL     1      -4.705   5.078   0.075  0.00  0.00    -0.271 OA
ATOM     23  N   UNL     1      -3.932   7.157   0.078  0.00  0.00    -0.232 N 
ATOM     24  H   UNL     1      -3.064   7.833   0.073  0.00  0.00    +0.173 HD
BRANCH  21  25
ATOM     25  C   UNL     1      -2.352   5.254   0.053  0.00  0.00    +0.326 C 
BRANCH  25  26
ATOM     26  O   UNL     1      -2.419   3.827   0.046  0.00  0.00    -0.482 OA
BRANCH  26  32
ATOM     27  C   UNL     1      -1.228   1.757   0.017  0.00  0.00    +0.024 A 
ATOM     28  C   UNL     1      -0.013   1.076   0.008  0.00  0.00    +0.012 A 
ATOM     29  C   UNL     1       1.173   1.783   0.000  0.00  0.00    +0.001 A 
ATOM     30  C   UNL     1       1.159   3.167   0.008  0.00  0.00    +0.004 A 
ATOM     31  C   UNL     1      -0.041   3.852   0.023  0.00  0.00    +0.046 A 
ATOM     32  C   UNL     1      -1.239   3.155   0.031  0.00  0.00    +0.129 A 
BRANCH  27  36
ATOM     33  C   UNL     1      -4.888  -0.408   0.023  0.00  0.00    +0.000 A 
ATOM     34  C   UNL     1      -3.906  -0.716  -0.902  0.00  0.00    +0.001 A 
ATOM     35  C   UNL     1      -2.717  -0.016  -0.909  0.00  0.00    +0.008 A 
ATOM     36  C   UNL     1      -2.505   1.002   0.019  0.00  0.00    -0.014 A 
ATOM     37  C   UNL     1      -3.494   1.304   0.953  0.00  0.00    +0.008 A 
ATOM     38  C   UNL     1      -4.683   0.602   0.946  0.00  0.00    +0.001 A 
ENDBRANCH  27  36
ENDBRANCH  26  32
ENDBRANCH  25  26
ENDBRANCH  21  25
ENDBRANCH   1  23
TORSDOF 8
