REMARK  Name = ZINC06196993
REMARK  8 active torsions:
REMARK  status: ('A' for Active; 'I' for Inactive)
REMARK    1  A    between atoms: C_1  and  C_2
REMARK    2  A    between atoms: C_2  and  O_3
REMARK    3  A    between atoms: O_3  and  C_4
REMARK    4  A    between atoms: C_11  and  C_16
REMARK    5  A    between atoms: C_16  and  C_18
REMARK    6  A    between atoms: C_16  and  N_75
REMARK    7  A    between atoms: N_22  and  C_23
REMARK    8  A    between atoms: C_23  and  C_24
REMARK                            x       y       z     vdW  Elec       q    Type
REMARK                         _______ _______ _______ _____ _____    ______ ____
ROOT
ATOM      1  C   UNL     1      -1.194  -0.920   0.009  0.00  0.00    +0.039 C 
ENDROOT
BRANCH   1   9
ATOM      2  C   UNL     1      -2.630  -3.299   5.551  0.00  0.00    +0.121 A 
ATOM      3  C   UNL     1      -3.231  -2.148   6.056  0.00  0.00    +0.047 A 
ATOM      4  C   UNL     1      -3.313  -1.006   5.292  0.00  0.00    +0.030 A 
ATOM      5  C   UNL     1      -2.792  -0.993   4.002  0.00  0.00    +0.049 A 
ATOM      6  C   UNL     1      -2.184  -2.154   3.488  0.00  0.00    +0.002 A 
ATOM      7  C   UNL     1      -2.107  -3.308   4.274  0.00  0.00    +0.055 A 
ATOM      8  C   UNL     1      -1.645  -2.128   2.127  0.00  0.00    +0.017 A 
ATOM      9  C   UNL     1      -1.743  -0.981   1.411  0.00  0.00    +0.011 A 
ATOM     10  C   UNL     1      -2.362   0.156   1.974  0.00  0.00    +0.251 A 
ATOM     11  O   UNL     1      -2.445   1.176   1.312  0.00  0.00    -0.268 OA
ATOM     12  N   UNL     1      -2.865   0.142   3.221  0.00  0.00    -0.322 N 
ATOM     13  H   UNL     1      -3.297   0.966   3.587  0.00  0.00    +0.169 HD
BRANCH   2  14
ATOM     14  O   UNL     1      -2.559  -4.418   6.319  0.00  0.00    -0.492 OA
BRANCH  14  16
ATOM     15  C   UNL     1      -2.946  -5.686   8.340  0.00  0.00    +0.048 C 
ATOM     16  C   UNL     1      -3.119  -4.341   7.631  0.00  0.00    +0.225 C 
ENDBRANCH  14  16
ENDBRANCH   2  14
ENDBRANCH   1   9
BRANCH   1  27
ATOM     17  C   UNL     1      -3.381  -1.387  -0.920  0.00  0.00    -0.077 C 
ATOM     18  C   UNL     1      -4.511  -0.803  -1.770  0.00  0.00    -0.018 C 
ATOM     19  C   UNL     1      -4.003  -0.570  -3.196  0.00  0.00    +0.003 C 
ATOM     20  C   UNL     1      -2.791   0.363  -3.150  0.00  0.00    -0.044 C 
ATOM     21  C   UNL     1      -1.710  -0.254  -2.261  0.00  0.00    -0.071 C 
ATOM     22  C   UNL     1      -3.212   1.718  -2.576  0.00  0.00    +0.005 C 
ATOM     23  C   UNL     1      -4.296   2.332  -3.464  0.00  0.00    +0.000 C 
ATOM     24  C   UNL     1      -3.747   2.525  -4.879  0.00  0.00    +0.000 C 
ATOM     25  C   UNL     1      -3.326   1.170  -5.453  0.00  0.00    +0.000 C 
ATOM     26  C   UNL     1      -2.242   0.555  -4.565  0.00  0.00    +0.005 C 
ATOM     27  N   UNL     1      -2.253  -0.430  -0.897  0.00  0.00    +0.390 N 
ATOM     28  H   UNL     1      -2.593   0.476  -0.554  0.00  0.00    -0.080 HD
ENDBRANCH   1  27
BRANCH   1  29
ATOM     29  C   UNL     1      -0.031   0.037  -0.034  0.00  0.00    +0.143 A 
ATOM     30  N   UNL     1      -0.095   1.344  -0.098  0.00  0.00    -0.115 NA
ATOM     31  N   UNL     1       1.109   1.802  -0.116  0.00  0.00    -0.023 NA
ATOM     32  N   UNL     1       1.940   0.820  -0.066  0.00  0.00    -0.044 NA
ATOM     33  N   UNL     1       1.276  -0.285  -0.015  0.00  0.00    -0.228 N 
BRANCH  33  34
ATOM     34  C   UNL     1       1.838  -1.636   0.053  0.00  0.00    +0.178 C 
BRANCH  34  35
ATOM     35  C   UNL     1       2.038  -2.177  -1.364  0.00  0.00    +0.140 C 
ATOM     36  C   UNL     1       2.683  -3.585  -1.316  0.00  0.00    +0.035 C 
ATOM     37  C   UNL     1       2.207  -4.174  -2.672  0.00  0.00    +0.031 C 
ATOM     38  C   UNL     1       0.809  -3.539  -2.833  0.00  0.00    +0.160 C 
ATOM     39  O   UNL     1       0.768  -2.368  -2.009  0.00  0.00    -0.375 OA
ENDBRANCH  34  35
ENDBRANCH  33  34
ENDBRANCH   1  29
TORSDOF 7
