REMARK  Name = ZINC00547505
REMARK  3 active torsions:
REMARK  status: ('A' for Active; 'I' for Inactive)
REMARK    1  A    between atoms: C_4  and  C_7
REMARK    2  A    between atoms: N_17  and  C_18
REMARK    3  A    between atoms: C_18  and  C_19
REMARK                            x       y       z     vdW  Elec       q    Type
REMARK                         _______ _______ _______ _____ _____    ______ ____
ROOT
ATOM      1  C   UNL     1      -0.725   8.846  -3.134  0.00  0.00    +0.084 A 
ATOM      2  C   UNL     1      -0.872   9.758  -2.059  0.00  0.00    +0.028 A 
ATOM      3  C   UNL     1      -1.172  11.109  -2.268  0.00  0.00    +0.032 A 
ATOM      4  C   UNL     1      -1.302  11.943  -1.195  0.00  0.00    +0.042 A 
ATOM      5  C   UNL     1      -1.140  11.467   0.104  0.00  0.00    +0.022 A 
ATOM      6  C   UNL     1      -0.847  10.157   0.341  0.00  0.00    +0.030 A 
ATOM      7  C   UNL     1      -0.706   9.273  -0.738  0.00  0.00    +0.077 A 
ATOM      8  N   UNL     1      -0.419   7.976  -0.558  0.00  0.00    -0.214 NA
ATOM      9  C   UNL     1      -0.293   7.170  -1.595  0.00  0.00    +0.217 A 
ATOM     10  N   UNL     1      -0.435   7.583  -2.850  0.00  0.00    -0.214 NA
ATOM     11  N   UNL     1       0.004   5.838  -1.366  0.00  0.00    -0.308 N 
ATOM     12 CL   UNL     1      -1.675  13.618  -1.453  0.00  0.00    -0.084 Cl
ATOM     13  H   UNL     1       0.101   5.227  -2.113  0.00  0.00    +0.149 HD
ENDROOT
BRANCH   1  17
ATOM     14  C   UNL     1      -1.184  10.127  -7.159  0.00  0.00    +0.000 A 
ATOM     15  C   UNL     1      -0.450  10.893  -6.272  0.00  0.00    +0.001 A 
ATOM     16  C   UNL     1      -0.297  10.483  -4.964  0.00  0.00    +0.010 A 
ATOM     17  C   UNL     1      -0.885   9.292  -4.536  0.00  0.00    +0.001 A 
ATOM     18  C   UNL     1      -1.620   8.521  -5.437  0.00  0.00    +0.010 A 
ATOM     19  C   UNL     1      -1.770   8.945  -6.741  0.00  0.00    +0.001 A 
ENDBRANCH   1  17
BRANCH  11  20
ATOM     20  C   UNL     1       0.173   5.351   0.006  0.00  0.00    +0.160 C 
BRANCH  20  21
ATOM     21  C   UNL     1       0.489   3.877  -0.020  0.00  0.00    +0.058 A 
ATOM     22  C   UNL     1       1.807   3.461   0.018  0.00  0.00    +0.025 A 
ATOM     23  C   UNL     1       2.087   2.103  -0.005  0.00  0.00    +0.003 A 
ATOM     24  C   UNL     1       1.026   1.212  -0.068  0.00  0.00    +0.020 A 
ATOM     25  C   UNL     1      -0.265   1.702  -0.109  0.00  0.00    +0.111 A 
ATOM     26  N   UNL     1      -0.494   3.001  -0.079  0.00  0.00    -0.258 NA
ENDBRANCH  20  21
ENDBRANCH  11  20
TORSDOF 3
