REMARK  Name = ZINC13164787
REMARK  9 active torsions:
REMARK  status: ('A' for Active; 'I' for Inactive)
REMARK    1  A    between atoms: C_1  and  O_2
REMARK    2  A    between atoms: O_2  and  C_3
REMARK    3  A    between atoms: C_8  and  O_9
REMARK    4  A    between atoms: O_9  and  C_10
REMARK    5  A    between atoms: C_11  and  C_31
REMARK    6  A    between atoms: N_13  and  C_16
REMARK    7  A    between atoms: C_16  and  C_17
REMARK    8  A    between atoms: N_19  and  C_20
REMARK    9  A    between atoms: C_21  and  C_28
REMARK                            x       y       z     vdW  Elec       q    Type
REMARK                         _______ _______ _______ _____ _____    ______ ____
ROOT
ATOM      1  C   UNL     1       0.606  -0.608  -1.056  0.00  0.00    +0.162 A 
ATOM      2  C   UNL     1       1.173   0.156  -2.062  0.00  0.00    +0.053 A 
ATOM      3  C   UNL     1       1.788  -0.455  -3.144  0.00  0.00    -0.037 A 
ATOM      4  C   UNL     1       1.836  -1.831  -3.223  0.00  0.00    -0.018 A 
ATOM      5  C   UNL     1       1.273  -2.600  -2.216  0.00  0.00    +0.055 A 
ATOM      6  C   UNL     1       0.663  -1.996  -1.131  0.00  0.00    +0.162 A 
ATOM      7  C   UNL     1       2.483  -2.537  -4.386  0.00  0.00    +0.125 C 
ATOM      8  N   UNL     1       3.364  -1.621  -5.118  0.00  0.00    -0.282 NA
ATOM      9  C   UNL     1       2.635  -0.396  -5.482  0.00  0.00    +0.090 C 
ATOM     10  C   UNL     1       2.395   0.420  -4.211  0.00  0.00    +0.051 C 
ENDROOT
BRANCH   7  11
ATOM     11  C   UNL     1       3.293  -3.700  -3.873  0.00  0.00    +0.011 A 
ATOM     12  C   UNL     1       2.974  -5.017  -3.845  0.00  0.00    +0.013 A 
ATOM     13  C   UNL     1       3.883  -5.917  -3.322  0.00  0.00    +0.008 A 
ATOM     14  C   UNL     1       5.068  -5.456  -2.852  0.00  0.00    +0.045 A 
ATOM     15  S   UNL     1       4.926  -3.701  -3.150  0.00  0.00    -0.100 S 
ENDBRANCH   7  11
BRANCH   1  17
ATOM     16  C   UNL     1      -0.017   1.425   0.010  0.00  0.00    +0.277 C 
ATOM     17  O   UNL     1       0.002  -0.004   0.002  0.00  0.00    -0.491 OA
ENDBRANCH   1  17
BRANCH   6  18
ATOM     18  O   UNL     1       0.117  -2.756  -0.144  0.00  0.00    -0.491 OA
ATOM     19  C   UNL     1       0.213  -4.174  -0.289  0.00  0.00    +0.277 C 
ENDBRANCH   6  18
BRANCH   8  20
ATOM     20  C   UNL     1       3.926  -2.272  -6.309  0.00  0.00    +0.181 C 
BRANCH  20  21
ATOM     21  C   UNL     1       5.005  -1.398  -6.896  0.00  0.00    +0.232 C 
ATOM     22  O   UNL     1       5.278  -0.338  -6.374  0.00  0.00    -0.274 OA
ATOM     23  N   UNL     1       5.666  -1.795  -8.002  0.00  0.00    -0.278 N 
ATOM     24  H   UNL     1       5.447  -2.643  -8.419  0.00  0.00    +0.155 HD
BRANCH  23  25
ATOM     25  C   UNL     1       6.658  -0.992  -8.542  0.00  0.00    +0.084 A 
ATOM     26  C   UNL     1       7.430  -1.232  -9.664  0.00  0.00    +0.068 A 
ATOM     27  C   UNL     1       8.417  -0.216 -10.027  0.00  0.00    -0.023 A 
ATOM     28  C   UNL     1       8.445   0.843  -9.200  0.00  0.00    -0.004 A 
ATOM     29  S   UNL     1       7.194   0.499  -7.989  0.00  0.00    -0.077 S 
ATOM     30  C   UNL     1       9.479   1.854  -9.616  0.00  0.00    +0.043 C 
ATOM     31  C   UNL     1      10.405   1.087 -10.586  0.00  0.00    +0.010 C 
ATOM     32  C   UNL     1       9.462  -0.009 -11.122  0.00  0.00    +0.037 C 
BRANCH  26  33
ATOM     33  C   UNL     1       7.265  -2.454 -10.456  0.00  0.00    +0.244 C 
ATOM     34  O   UNL     1       6.478  -2.477 -11.383  0.00  0.00    -0.270 OA
ATOM     35  N   UNL     1       7.986  -3.553 -10.157  0.00  0.00    -0.325 N 
ATOM     36  H   UNL     1       8.614  -3.535  -9.417  0.00  0.00    +0.145 HD
ATOM     37  H   UNL     1       7.877  -4.362 -10.681  0.00  0.00    +0.145 HD
ENDBRANCH  26  33
ENDBRANCH  23  25
ENDBRANCH  20  21
ENDBRANCH   8  20
TORSDOF 7
