REMARK  Name = ZINC40980628
REMARK  12 active torsions:
REMARK  status: ('A' for Active; 'I' for Inactive)
REMARK    1  A    between atoms: C_1  and  C_2
REMARK    2  A    between atoms: C_2  and  C_3
REMARK    3  A    between atoms: C_3  and  S_4
REMARK    4  A    between atoms: S_4  and  C_5
REMARK    5  A    between atoms: C_10  and  C_19
REMARK    6  A    between atoms: C_12  and  C_16
REMARK    7  A    between atoms: C_13  and  C_15
REMARK    8  A    between atoms: C_21  and  O_28
REMARK    9  A    between atoms: C_22  and  O_26
REMARK   10  A    between atoms: O_26  and  C_27
REMARK   11  A    between atoms: O_28  and  C_29
REMARK   12  A    between atoms: C_29  and  C_30
REMARK                            x       y       z     vdW  Elec       q    Type
REMARK                         _______ _______ _______ _____ _____    ______ ____
ROOT
ATOM      1  C   UNL     1       2.001  -2.722  -2.561  0.00  0.00    +0.210 A 
ATOM      2  N   UNL     1       2.451  -1.841  -3.467  0.00  0.00    -0.187 NA
ATOM      3  C   UNL     1       2.836  -2.478  -4.540  0.00  0.00    +0.219 A 
ATOM      4  N   UNL     1       2.633  -3.803  -4.339  0.00  0.00    -0.220 N 
ATOM      5  N   UNL     1       2.103  -3.937  -3.057  0.00  0.00    -0.141 NA
ATOM      6  C   UNL     1       2.940  -4.827  -5.334  0.00  0.00    +0.177 C 
ATOM      7  C   UNL     1       3.765  -4.222  -6.438  0.00  0.00    +0.060 C 
ATOM      8  C   UNL     1       3.935  -2.900  -6.585  0.00  0.00    +0.018 C 
ATOM      9  N   UNL     1       3.373  -1.990  -5.723  0.00  0.00    -0.287 N 
ATOM     10  C   UNL     1       4.771  -2.396  -7.732  0.00  0.00    +0.061 C 
ATOM     11  H   UNL     1       3.351  -1.043  -5.934  0.00  0.00    +0.155 HD
ENDROOT
BRANCH   6  12
ATOM     12  C   UNL     1       1.657  -5.372  -5.907  0.00  0.00    -0.014 A 
ATOM     13  C   UNL     1       1.359  -6.716  -5.776  0.00  0.00    +0.055 A 
ATOM     14  C   UNL     1       0.179  -7.219  -6.301  0.00  0.00    +0.163 A 
ATOM     15  C   UNL     1      -0.703  -6.369  -6.961  0.00  0.00    +0.175 A 
ATOM     16  C   UNL     1      -0.399  -5.023  -7.089  0.00  0.00    +0.063 A 
ATOM     17  C   UNL     1       0.778  -4.526  -6.557  0.00  0.00    +0.025 A 
ATOM     18 BR   UNL     1      -1.595  -3.864  -7.984  0.00  0.00    -0.046 Br
BRANCH  15  19
ATOM     19  O   UNL     1      -1.862  -6.858  -7.479  0.00  0.00    -0.490 OA
ATOM     20  C   UNL     1      -3.007  -6.853  -6.625  0.00  0.00    +0.277 C 
ENDBRANCH  15  19
BRANCH  14  21
ATOM     21  O   UNL     1      -0.114  -8.540  -6.174  0.00  0.00    -0.489 OA
BRANCH  21  22
ATOM     22  C   UNL     1       0.838  -9.353  -5.485  0.00  0.00    +0.226 C 
ATOM     23  C   UNL     1       0.339 -10.799  -5.442  0.00  0.00    +0.048 C 
ENDBRANCH  21  22
ENDBRANCH  14  21
ENDBRANCH   6  12
BRANCH   7  24
ATOM     24  C   UNL     1       4.391  -5.089  -7.365  0.00  0.00    +0.241 C 
ATOM     25  O   UNL     1       5.374  -5.728  -7.033  0.00  0.00    -0.271 OA
ATOM     26  N   UNL     1       3.901  -5.208  -8.615  0.00  0.00    -0.325 N 
ATOM     27  H   UNL     1       3.118  -4.699  -8.879  0.00  0.00    +0.145 HD
ATOM     28  H   UNL     1       4.330  -5.802  -9.250  0.00  0.00    +0.145 HD
ENDBRANCH   7  24
BRANCH   1  29
ATOM     29  S   UNL     1       1.382  -2.318  -0.962  0.00  0.00    -0.084 S 
BRANCH  29  30
ATOM     30  C   UNL     1       1.502  -0.510  -0.888  0.00  0.00    +0.077 C 
BRANCH  30  32
ATOM     31  C   UNL     1       1.091   1.506   0.530  0.00  0.00    +0.004 C 
ATOM     32  C   UNL     1       0.990  -0.019   0.468  0.00  0.00    +0.008 C 
ENDBRANCH  30  32
ENDBRANCH  29  30
ENDBRANCH   1  29
TORSDOF 8
