REMARK  Name = ZINC09159532
REMARK  7 active torsions:
REMARK  status: ('A' for Active; 'I' for Inactive)
REMARK    1  A    between atoms: C_1  and  N_2
REMARK    2  A    between atoms: N_2  and  C_3
REMARK    3  A    between atoms: N_2  and  C_4
REMARK    4  A    between atoms: C_7  and  C_10
REMARK    5  A    between atoms: C_30  and  C_32
REMARK    6  A    between atoms: C_35  and  O_38
REMARK    7  A    between atoms: O_38  and  C_39
REMARK                            x       y       z     vdW  Elec       q    Type
REMARK                         _______ _______ _______ _____ _____    ______ ____
ROOT
ATOM      1  C   UNL     1       4.373   0.883  -0.036  0.00  0.00    +0.182 A 
ATOM      2  N   UNL     1       3.636  -0.235  -0.031  0.00  0.00    -0.206 NA
ATOM      3  C   UNL     1       2.363   0.080  -0.017  0.00  0.00    +0.167 A 
ATOM      4  C   UNL     1       1.189  -0.689  -0.008  0.00  0.00    +0.070 A 
ATOM      5  C   UNL     1       0.002  -0.004   0.002  0.00  0.00    +0.230 A 
ATOM      6  N   UNL     1      -0.016   1.338   0.009  0.00  0.00    -0.201 NA
ATOM      7  C   UNL     1       1.065   2.079   0.003  0.00  0.00    +0.229 A 
ATOM      8  N   UNL     1       2.272   1.462  -0.011  0.00  0.00    -0.201 N 
ATOM      9  N   UNL     1       3.575   1.939  -0.024  0.00  0.00    -0.143 NA
ATOM     10  O   UNL     1      -1.170  -0.678   0.000  0.00  0.00    -0.437 OA
ATOM     11  C   UNL     1      -1.222  -1.974   0.393  0.00  0.00    +0.135 A 
ATOM     12  C   UNL     1      -2.459  -2.510   0.785  0.00  0.00    +0.047 A 
ATOM     13  C   UNL     1      -2.574  -3.803   1.183  0.00  0.00    +0.012 A 
ATOM     14  C   UNL     1      -1.436  -4.628   1.207  0.00  0.00    -0.017 A 
ATOM     15  C   UNL     1      -1.517  -5.972   1.610  0.00  0.00    +0.008 A 
ATOM     16  C   UNL     1      -0.393  -6.739   1.622  0.00  0.00    +0.001 A 
ATOM     17  C   UNL     1       0.840  -6.213   1.241  0.00  0.00    +0.001 A 
ATOM     18  C   UNL     1       0.956  -4.916   0.845  0.00  0.00    +0.009 A 
ATOM     19  C   UNL     1      -0.184  -4.093   0.818  0.00  0.00    -0.010 A 
ATOM     20  C   UNL     1      -0.100  -2.750   0.409  0.00  0.00    +0.015 A 
ATOM     21  C   UNL     1       1.232  -2.185  -0.009  0.00  0.00    +0.092 C 
ENDROOT
BRANCH   1  25
ATOM     22  C   UNL     1       8.625   1.020  -0.082  0.00  0.00    +0.029 A 
ATOM     23  C   UNL     1       7.892   2.202  -0.071  0.00  0.00    +0.024 A 
ATOM     24  C   UNL     1       6.514   2.160  -0.056  0.00  0.00    +0.013 A 
ATOM     25  C   UNL     1       5.856   0.931  -0.052  0.00  0.00    +0.021 A 
ATOM     26  C   UNL     1       6.592  -0.253  -0.058  0.00  0.00    +0.013 A 
ATOM     27  C   UNL     1       7.970  -0.206  -0.079  0.00  0.00    +0.024 A 
BRANCH  22  29
ATOM     28  C   UNL     1      10.710   2.357  -0.102  0.00  0.00    +0.129 C 
ATOM     29  N   UNL     1      10.019   1.065  -0.098  0.00  0.00    -0.336 N 
ATOM     30  C   UNL     1      10.792  -0.179  -0.110  0.00  0.00    +0.129 C 
ENDBRANCH  22  29
ENDBRANCH   1  25
BRANCH  21  31
ATOM     31  C   UNL     1       1.568  -2.673  -1.394  0.00  0.00    -0.035 A 
ATOM     32  C   UNL     1       0.737  -2.365  -2.455  0.00  0.00    +0.008 A 
ATOM     33  C   UNL     1       1.045  -2.806  -3.727  0.00  0.00    +0.046 A 
ATOM     34  C   UNL     1       2.184  -3.569  -3.938  0.00  0.00    +0.120 A 
ATOM     35  C   UNL     1       3.014  -3.883  -2.871  0.00  0.00    +0.046 A 
ATOM     36  C   UNL     1       2.704  -3.434  -1.602  0.00  0.00    +0.008 A 
BRANCH  34  37
ATOM     37  O   UNL     1       2.488  -4.009  -5.188  0.00  0.00    -0.495 OA
ATOM     38  C   UNL     1       1.589  -3.649  -6.238  0.00  0.00    +0.277 C 
ENDBRANCH  34  37
ENDBRANCH  21  31
TORSDOF 4
