REMARK  Name = ZINC42006656
REMARK  5 active torsions:
REMARK  status: ('A' for Active; 'I' for Inactive)
REMARK    1  A    between atoms: C_7  and  C_13
REMARK    2  A    between atoms: C_7  and  S_16
REMARK    3  A    between atoms: S_16  and  C_17
REMARK    4  A    between atoms: C_17  and  C_18
REMARK    5  A    between atoms: C_18  and  N_19
REMARK                            x       y       z     vdW  Elec       q    Type
REMARK                         _______ _______ _______ _____ _____    ______ ____
ROOT
ATOM      1  C   UNL     1       0.195   1.843   0.027  0.00  0.00    -0.000 C 
ATOM      2  C   UNL     1       1.620   2.390   0.129  0.00  0.00    +0.000 C 
ATOM      3  C   UNL     1       1.736   3.284   1.365  0.00  0.00    +0.000 C 
ATOM      4  C   UNL     1       2.911   2.815   2.225  0.00  0.00    +0.000 C 
ATOM      5  C   UNL     1       2.432   2.577   3.659  0.00  0.00    +0.002 C 
ATOM      6  C   UNL     1       2.825   1.166   4.101  0.00  0.00    +0.029 C 
ATOM      7  C   UNL     1       1.586   0.429   4.614  0.00  0.00    +0.117 C 
ATOM      8  C   UNL     1       1.447  -0.906   3.880  0.00  0.00    +0.029 C 
ATOM      9  C   UNL     1       0.045  -1.012   3.276  0.00  0.00    +0.002 C 
ATOM     10  C   UNL     1       0.156  -1.330   1.783  0.00  0.00    +0.000 C 
ATOM     11  C   UNL     1      -0.650  -0.306   0.983  0.00  0.00    +0.000 C 
ATOM     12  C   UNL     1       0.242   0.318  -0.092  0.00  0.00    +0.000 C 
ENDROOT
BRANCH   7  13
ATOM     13  C   UNL     1       0.361   1.270   4.363  0.00  0.00    +0.372 C 
ATOM     14  O   UNL     1       0.061   1.586   3.224  0.00  0.00    -0.245 OA
ATOM     15  O   UNL     1      -0.330   1.635   5.299  0.00  0.00    -0.245 OA
ENDBRANCH   7  13
BRANCH   7  16
ATOM     16  S   UNL     1       1.757   0.126   6.394  0.00  0.00    -0.144 S 
BRANCH  16  17
ATOM     17  C   UNL     1       0.229  -0.743   6.840  0.00  0.00    +0.051 C 
BRANCH  17  18
ATOM     18  C   UNL     1       0.242  -1.064   8.336  0.00  0.00    -0.076 C 
BRANCH  18  19
ATOM     19  N   UNL     1      -0.996  -1.768   8.697  0.00  0.00    +0.379 N 
ATOM     20  H   UNL     1      -1.790  -1.182   8.486  0.00  0.00    -0.090 HD
ATOM     21  H   UNL     1      -1.061  -2.625   8.170  0.00  0.00    -0.090 HD
ATOM     22  H   UNL     1      -0.987  -1.979   9.684  0.00  0.00    -0.090 HD
ENDBRANCH  18  19
ENDBRANCH  17  18
ENDBRANCH  16  17
ENDBRANCH   7  16
TORSDOF 5
