REMARK  Name = ZINC09361373
REMARK  3 active torsions:
REMARK  status: ('A' for Active; 'I' for Inactive)
REMARK    1  A    between atoms: C_1  and  C_2
REMARK    2  A    between atoms: C_7  and  N_8
REMARK    3  A    between atoms: C_27  and  C_32
REMARK                            x       y       z     vdW  Elec       q    Type
REMARK                         _______ _______ _______ _____ _____    ______ ____
ROOT
ATOM      1  N   UNL     1      -2.229   0.953   0.172  0.00  0.00    -0.210 N 
ATOM      2  C   UNL     1      -1.242   1.347  -0.688  0.00  0.00    +0.228 C 
ATOM      3  O   UNL     1      -1.379   1.812  -1.800  0.00  0.00    -0.275 OA
ATOM      4  C   UNL     1      -0.013   1.086   0.008  0.00  0.00    +0.074 C 
ATOM      5  C   UNL     1       1.432   1.388  -0.004  0.00  0.00    -0.054 C 
ATOM      6  C   UNL     1       2.153   0.697  -1.183  0.00  0.00    -0.016 C 
ATOM      7  C   UNL     1       2.492  -0.734  -0.667  0.00  0.00    -0.020 C 
ATOM      8  C   UNL     1       1.922  -0.798   0.761  0.00  0.00    -0.076 C 
ATOM      9  C   UNL     1       0.755   0.763   2.215  0.00  0.00    +0.053 C 
ATOM     10  C   UNL     1      -0.423   1.406   1.499  0.00  0.00    +0.089 C 
ATOM     11  C   UNL     1      -1.752   0.694   1.430  0.00  0.00    +0.229 C 
ATOM     12  O   UNL     1      -2.283   0.036   2.299  0.00  0.00    -0.275 OA
ATOM     13  C   UNL     1       0.386  -0.526   2.889  0.00  0.00    -0.027 A 
ATOM     14  C   UNL     1      -0.155  -1.718   2.456  0.00  0.00    +0.006 A 
ATOM     15  C   UNL     1      -0.386  -2.753   3.341  0.00  0.00    +0.020 A 
ATOM     16  C   UNL     1      -0.079  -2.593   4.682  0.00  0.00    +0.046 A 
ATOM     17  C   UNL     1       0.449  -1.399   5.129  0.00  0.00    -0.011 A 
ATOM     18  C   UNL     1       0.678  -0.352   4.241  0.00  0.00    +0.040 A 
ATOM     19  N   UNL     1       1.182   0.931   4.465  0.00  0.00    -0.286 N 
ATOM     20  C   UNL     1       1.243   1.656   3.337  0.00  0.00    +0.212 C 
ATOM     21  O   UNL     1       1.618   2.805   3.235  0.00  0.00    -0.277 OA
ATOM     22  C   UNL     1       0.780  -1.228   6.589  0.00  0.00    +0.047 C 
ATOM     23 CL   UNL     1      -0.358  -3.892   5.799  0.00  0.00    -0.083 Cl
ATOM     24  H   UNL     1       1.456   1.260   5.336  0.00  0.00    +0.155 HD
ATOM     25  N   UNL     1       1.822   0.606   1.175  0.00  0.00    +0.395 N 
ATOM     26  H   UNL     1       2.723   0.932   1.544  0.00  0.00    -0.079 HD
ENDROOT
BRANCH   1  33
ATOM     27  C   UNL     1      -3.131  -1.554  -0.828  0.00  0.00    +0.045 C 
ATOM     28  C   UNL     1      -4.058  -0.375  -0.683  0.00  0.00    -0.029 A 
ATOM     29  C   UNL     1      -5.389  -0.495  -1.035  0.00  0.00    +0.006 A 
ATOM     30  C   UNL     1      -6.240   0.586  -0.907  0.00  0.00    +0.020 A 
ATOM     31  C   UNL     1      -5.763   1.792  -0.422  0.00  0.00    +0.043 A 
ATOM     32  C   UNL     1      -4.434   1.916  -0.063  0.00  0.00    +0.044 A 
ATOM     33  C   UNL     1      -3.578   0.830  -0.191  0.00  0.00    +0.048 A 
ATOM     34 CL   UNL     1      -6.835   3.148  -0.264  0.00  0.00    -0.083 Cl
ENDBRANCH   1  33
TORSDOF 1
