REMARK  Name = ZINC39427203
REMARK  10 active torsions:
REMARK  status: ('A' for Active; 'I' for Inactive)
REMARK    1  A    between atoms: C_1  and  C_2
REMARK    2  A    between atoms: N_4  and  S_5
REMARK    3  A    between atoms: S_5  and  C_8
REMARK    4  A    between atoms: C_11  and  N_14
REMARK    5  A    between atoms: C_15  and  C_17
REMARK    6  A    between atoms: C_18  and  N_35
REMARK    7  A    between atoms: C_28  and  C_31
REMARK    8  A    between atoms: C_31  and  C_32
REMARK    9  A    between atoms: C_31  and  C_33
REMARK   10  A    between atoms: C_31  and  C_34
REMARK                            x       y       z     vdW  Elec       q    Type
REMARK                         _______ _______ _______ _____ _____    ______ ____
ROOT
ATOM      1  C   UNL     1      -8.780  -4.595  -1.095  0.00  0.00    +0.097 A 
ATOM      2  C   UNL     1      -9.633  -4.757  -2.165  0.00  0.00    +0.053 A 
ATOM      3  C   UNL     1     -11.020  -5.105  -1.895  0.00  0.00    +0.027 A 
ATOM      4  C   UNL     1     -12.076  -5.319  -2.811  0.00  0.00    +0.017 A 
ATOM      5  C   UNL     1     -13.333  -5.647  -2.340  0.00  0.00    -0.027 A 
ATOM      6  C   UNL     1     -13.552  -5.767  -0.980  0.00  0.00    +0.020 A 
ATOM      7  N   UNL     1     -12.558  -5.560  -0.127  0.00  0.00    -0.352 N 
ATOM      8  C   UNL     1     -11.349  -5.245  -0.527  0.00  0.00    +0.088 A 
ATOM      9  S   UNL     1      -9.821  -4.916   0.315  0.00  0.00    -0.064 S 
ATOM     10  C   UNL     1     -14.895  -6.140  -0.406  0.00  0.00    +0.054 C 
ATOM     11  C   UNL     1     -15.999  -5.920  -1.437  0.00  0.00    +0.010 C 
ATOM     12  C   UNL     1     -15.594  -6.623  -2.738  0.00  0.00    -0.001 C 
ATOM     13  C   UNL     1     -14.426  -5.858  -3.356  0.00  0.00    +0.041 C 
ATOM     14  H   UNL     1     -12.731  -5.643   0.824  0.00  0.00    +0.166 HD
ENDROOT
BRANCH   1  16
ATOM     15  N   UNL     1      -6.722  -4.150   0.044  0.00  0.00    -0.281 N 
ATOM     16  C   UNL     1      -7.404  -4.260  -1.113  0.00  0.00    +0.257 C 
ATOM     17  O   UNL     1      -6.836  -4.072  -2.175  0.00  0.00    -0.269 OA
ATOM     18  H   UNL     1      -7.152  -4.374   0.884  0.00  0.00    +0.155 HD
BRANCH  15  22
ATOM     19  C   UNL     1      -2.765  -2.847   0.014  0.00  0.00    +0.113 A 
ATOM     20  C   UNL     1      -3.180  -3.772   0.955  0.00  0.00    +0.031 A 
ATOM     21  C   UNL     1      -4.491  -4.206   0.968  0.00  0.00    +0.025 A 
ATOM     22  C   UNL     1      -5.394  -3.712   0.034  0.00  0.00    +0.034 A 
ATOM     23  C   UNL     1      -4.974  -2.784  -0.909  0.00  0.00    +0.025 A 
ATOM     24  C   UNL     1      -3.663  -2.350  -0.913  0.00  0.00    +0.031 A 
BRANCH  19  25
ATOM     25  S   UNL     1      -1.092  -2.296   0.001  0.00  0.00    +0.102 S 
ATOM     26  O   UNL     1      -0.826  -1.836  -1.316  0.00  0.00    -0.146 OA
ATOM     27  O   UNL     1      -0.323  -3.318   0.621  0.00  0.00    -0.146 OA
BRANCH  25  31
ATOM     28  C   UNL     1       0.202   0.838   2.064  0.00  0.00    +0.116 C 
ATOM     29  C   UNL     1       0.122  -0.367   1.163  0.00  0.00    +0.262 C 
ATOM     30  O   UNL     1       1.229  -0.813   0.534  0.00  0.00    -0.270 OA
ATOM     31  N   UNL     1      -1.005  -0.972   0.992  0.00  0.00    -0.091 NA
ENDBRANCH  25  31
ENDBRANCH  19  25
ENDBRANCH  15  22
ENDBRANCH   1  16
BRANCH  12  32
ATOM     32  C   UNL     1     -16.776  -6.633  -3.709  0.00  0.00    -0.035 C 
ATOM     33  C   UNL     1     -17.193  -5.194  -4.019  0.00  0.00    +0.011 C 
ATOM     34  C   UNL     1     -16.366  -7.335  -5.005  0.00  0.00    +0.011 C 
ATOM     35  C   UNL     1     -17.951  -7.379  -3.074  0.00  0.00    +0.011 C 
ENDBRANCH  12  32
BRANCH   2  36
ATOM     36  N   UNL     1      -9.182  -4.592  -3.467  0.00  0.00    -0.356 N 
ATOM     37  H   UNL     1      -8.255  -4.360  -3.633  0.00  0.00    +0.142 HD
ATOM     38  H   UNL     1      -9.793  -4.709  -4.211  0.00  0.00    +0.142 HD
ENDBRANCH   2  36
TORSDOF 6
