REMARK  Name = ZINC09406853
REMARK  9 active torsions:
REMARK  status: ('A' for Active; 'I' for Inactive)
REMARK    1  A    between atoms: C_1  and  C_2
REMARK    2  A    between atoms: C_2  and  C_4
REMARK    3  A    between atoms: C_2  and  N_10
REMARK    4  A    between atoms: C_11  and  C_13
REMARK    5  A    between atoms: C_13  and  N_14
REMARK    6  A    between atoms: N_14  and  C_15
REMARK    7  A    between atoms: N_14  and  S_16
REMARK    8  A    between atoms: S_16  and  C_19
REMARK    9  A    between atoms: C_26  and  C_29
REMARK                            x       y       z     vdW  Elec       q    Type
REMARK                         _______ _______ _______ _____ _____    ______ ____
ROOT
ATOM      1  S   UNL     1      -2.713   0.835   0.019  0.00  0.00    +0.061 S 
ATOM      2  O   UNL     1      -3.706   1.695  -0.522  0.00  0.00    -0.153 OA
ATOM      3  O   UNL     1      -2.421  -0.439  -0.540  0.00  0.00    -0.153 OA
ENDROOT
BRANCH   1   4
ATOM      4  C   UNL     1      -1.204   1.744   0.017  0.00  0.00    +0.108 A 
ATOM      5  C   UNL     1      -1.238   3.131   0.029  0.00  0.00    +0.030 A 
ATOM      6  C   UNL     1      -0.067   3.859   0.022  0.00  0.00    +0.030 A 
ATOM      7  C   UNL     1       1.154   3.199   0.008  0.00  0.00    +0.067 A 
ATOM      8  C   UNL     1       1.188   1.793   0.000  0.00  0.00    +0.091 A 
ATOM      9  C   UNL     1      -0.013   1.076   0.008  0.00  0.00    +0.058 A 
ATOM     10  N   UNL     1       2.493   1.425  -0.014  0.00  0.00    -0.228 NA
ATOM     11  C   UNL     1       3.252   2.493  -0.015  0.00  0.00    +0.139 A 
ATOM     12  N   UNL     1       2.470   3.617  -0.003  0.00  0.00    -0.338 N 
ATOM     13  H   UNL     1       2.792   4.563  -0.001  0.00  0.00    +0.167 HD
BRANCH  11  14
ATOM     14  C   UNL     1       4.731   2.485  -0.030  0.00  0.00    +0.017 A 
ATOM     15  C   UNL     1       5.437   3.688  -0.037  0.00  0.00    +0.011 A 
ATOM     16  C   UNL     1       6.817   3.675  -0.046  0.00  0.00    +0.001 A 
ATOM     17  C   UNL     1       7.500   2.471  -0.059  0.00  0.00    +0.000 A 
ATOM     18  C   UNL     1       6.805   1.275  -0.057  0.00  0.00    +0.001 A 
ATOM     19  C   UNL     1       5.425   1.275  -0.043  0.00  0.00    +0.011 A 
ENDBRANCH  11  14
ENDBRANCH   1   4
BRANCH   1  20
ATOM     20  N   UNL     1      -3.125   0.573   1.602  0.00  0.00    -0.171 NA
ATOM     21  C   UNL     1      -3.962   1.545   2.311  0.00  0.00    +0.132 C 
BRANCH  20  22
ATOM     22  C   UNL     1      -2.653  -0.629   2.293  0.00  0.00    +0.204 C 
BRANCH  22  24
ATOM     23  N   UNL     1      -0.771  -1.270   3.765  0.00  0.00    -0.308 N 
ATOM     24  C   UNL     1      -1.389  -0.310   3.050  0.00  0.00    +0.229 C 
ATOM     25  O   UNL     1      -0.929   0.812   3.015  0.00  0.00    -0.274 OA
ATOM     26  H   UNL     1      -1.139  -2.167   3.792  0.00  0.00    +0.149 HD
BRANCH  23  28
ATOM     27  C   UNL     1       0.099  -0.377   5.869  0.00  0.00    +0.033 C 
ATOM     28  C   UNL     1       0.457  -0.960   4.500  0.00  0.00    +0.100 C 
BRANCH  28  29
ATOM     29  C   UNL     1       1.263  -2.220   4.686  0.00  0.00    -0.027 A 
ATOM     30  C   UNL     1       0.627  -3.408   4.994  0.00  0.00    +0.005 A 
ATOM     31  C   UNL     1       1.366  -4.564   5.160  0.00  0.00    +0.000 A 
ATOM     32  C   UNL     1       2.742  -4.531   5.028  0.00  0.00    +0.000 A 
ATOM     33  C   UNL     1       3.378  -3.341   4.726  0.00  0.00    +0.000 A 
ATOM     34  C   UNL     1       2.639  -2.186   4.556  0.00  0.00    +0.005 A 
ENDBRANCH  28  29
ENDBRANCH  23  28
ENDBRANCH  22  24
ENDBRANCH  20  22
ENDBRANCH   1  20
TORSDOF 7
