REMARK  Name = ZINC00071707
REMARK  6 active torsions:
REMARK  status: ('A' for Active; 'I' for Inactive)
REMARK    1  A    between atoms: C_1  and  C_2
REMARK    2  A    between atoms: C_3  and  C_24
REMARK    3  A    between atoms: C_4  and  C_10
REMARK    4  A    between atoms: C_13  and  O_16
REMARK    5  A    between atoms: O_16  and  C_17
REMARK    6  A    between atoms: C_17  and  C_18
REMARK                            x       y       z     vdW  Elec       q    Type
REMARK                         _______ _______ _______ _____ _____    ______ ____
ROOT
ATOM      1  C   UNL     1      -1.048   3.051  -3.378  0.00  0.00    +0.061 C 
ATOM      2  C   UNL     1      -0.277   2.674  -2.139  0.00  0.00    +0.019 C 
ATOM      3  C   UNL     1      -0.894   1.984  -1.158  0.00  0.00    +0.055 C 
ATOM      4  C   UNL     1      -0.082   1.625   0.070  0.00  0.00    +0.142 C 
ATOM      5  N   UNL     1       1.324   2.061   0.091  0.00  0.00    -0.288 N 
ATOM      6  C   UNL     1       1.800   2.746  -0.968  0.00  0.00    +0.304 C 
ATOM      7  O   UNL     1       2.959   3.111  -0.960  0.00  0.00    -0.252 OA
ATOM      8  N   UNL     1       1.036   3.036  -2.029  0.00  0.00    -0.273 N 
ATOM      9  H   UNL     1       1.895   1.861   0.850  0.00  0.00    +0.151 HD
ATOM     10  H   UNL     1       1.438   3.531  -2.760  0.00  0.00    +0.156 HD
ENDROOT
BRANCH   4  11
ATOM     11  C   UNL     1      -0.105   0.125   0.220  0.00  0.00    -0.022 A 
ATOM     12  C   UNL     1       0.749  -0.657  -0.536  0.00  0.00    +0.009 A 
ATOM     13  C   UNL     1       0.734  -2.031  -0.396  0.00  0.00    +0.046 A 
ATOM     14  C   UNL     1      -0.148  -2.627   0.494  0.00  0.00    +0.121 A 
ATOM     15  C   UNL     1      -1.008  -1.841   1.247  0.00  0.00    +0.046 A 
ATOM     16  C   UNL     1      -0.984  -0.466   1.108  0.00  0.00    +0.009 A 
BRANCH  14  17
ATOM     17  O   UNL     1      -0.169  -3.979   0.628  0.00  0.00    -0.487 OA
BRANCH  17  18
ATOM     18  C   UNL     1       0.744  -4.726  -0.178  0.00  0.00    +0.264 C 
BRANCH  18  19
ATOM     19  C   UNL     1       0.577  -6.197   0.105  0.00  0.00    -0.010 A 
ATOM     20  C   UNL     1       1.329  -6.800   1.096  0.00  0.00    +0.007 A 
ATOM     21  C   UNL     1       1.172  -8.148   1.359  0.00  0.00    +0.000 A 
ATOM     22  C   UNL     1       0.272  -8.895   0.623  0.00  0.00    +0.000 A 
ATOM     23  C   UNL     1      -0.476  -8.294  -0.372  0.00  0.00    +0.000 A 
ATOM     24  C   UNL     1      -0.323  -6.944  -0.631  0.00  0.00    +0.007 A 
ENDBRANCH  18  19
ENDBRANCH  17  18
ENDBRANCH  14  17
ENDBRANCH   4  11
BRANCH   3  25
ATOM     25  C   UNL     1      -2.255   1.608  -1.272  0.00  0.00    +0.241 C 
ATOM     26  O   UNL     1      -3.113   2.241  -0.683  0.00  0.00    -0.271 OA
ATOM     27  N   UNL     1      -2.601   0.549  -2.031  0.00  0.00    -0.326 N 
ATOM     28  H   UNL     1      -1.913   0.001  -2.441  0.00  0.00    +0.145 HD
ATOM     29  H   UNL     1      -3.537   0.336  -2.168  0.00  0.00    +0.145 HD
ENDBRANCH   3  25
TORSDOF 5
