REMARK  Name = ZINC03376781
REMARK  6 active torsions:
REMARK  status: ('A' for Active; 'I' for Inactive)
REMARK    1  A    between atoms: C_1  and  O_2
REMARK    2  A    between atoms: O_2  and  C_3
REMARK    3  A    between atoms: C_6  and  C_9
REMARK    4  A    between atoms: C_12  and  C_24
REMARK    5  A    between atoms: C_15  and  C_17
REMARK    6  A    between atoms: C_17  and  N_18
REMARK                            x       y       z     vdW  Elec       q    Type
REMARK                         _______ _______ _______ _____ _____    ______ ____
ROOT
ATOM      1  C   UNL     1       3.350   6.702   2.746  0.00  0.00    +0.191 C 
ATOM      2  C   UNL     1       4.849   6.887   2.673  0.00  0.00    +0.182 C 
ATOM      3  C   UNL     1       5.268   6.311   1.545  0.00  0.00    +0.173 C 
ATOM      4  N   UNL     1       4.204   5.743   0.840  0.00  0.00    -0.222 NA
ATOM      5  N   UNL     1       3.000   5.957   1.526  0.00  0.00    -0.220 N 
ATOM      6  C   UNL     1       1.771   5.556   1.147  0.00  0.00    +0.250 C 
ATOM      7  O   UNL     1       0.810   5.806   1.844  0.00  0.00    -0.272 OA
ATOM      8  O   UNL     1       5.627   7.525   3.589  0.00  0.00    -0.293 OA
ATOM      9  H   UNL     1       4.285   5.271  -0.003  0.00  0.00    +0.146 HD
ENDROOT
BRANCH   3  10
ATOM     10  C   UNL     1       6.678   6.273   1.101  0.00  0.00    +0.003 A 
ATOM     11  C   UNL     1       7.734   5.783   1.798  0.00  0.00    +0.089 A 
ATOM     12  N   UNL     1       8.877   5.921   1.060  0.00  0.00    -0.360 N 
ATOM     13  H   UNL     1       9.761   5.643   1.349  0.00  0.00    +0.165 HD
ATOM     14  C   UNL     1       8.592   6.511  -0.152  0.00  0.00    +0.047 A 
ATOM     15  C   UNL     1       7.208   6.753  -0.186  0.00  0.00    +0.005 A 
ATOM     16  C   UNL     1       6.631   7.344  -1.309  0.00  0.00    +0.010 A 
ATOM     17  C   UNL     1       7.423   7.685  -2.382  0.00  0.00    +0.001 A 
ATOM     18  C   UNL     1       8.789   7.444  -2.351  0.00  0.00    +0.002 A 
ATOM     19  C   UNL     1       9.375   6.867  -1.245  0.00  0.00    +0.026 A 
ENDBRANCH   3  10
BRANCH   1  23
ATOM     20  C   UNL     1       1.384  10.496   2.785  0.00  0.00    +0.120 A 
ATOM     21  C   UNL     1       1.491   9.757   3.954  0.00  0.00    +0.046 A 
ATOM     22  C   UNL     1       2.128   8.531   3.939  0.00  0.00    +0.009 A 
ATOM     23  C   UNL     1       2.657   8.040   2.760  0.00  0.00    -0.018 A 
ATOM     24  C   UNL     1       2.556   8.777   1.594  0.00  0.00    +0.009 A 
ATOM     25  C   UNL     1       1.916  10.001   1.603  0.00  0.00    +0.046 A 
BRANCH  20  27
ATOM     26  C   UNL     1       0.685  12.408   1.557  0.00  0.00    +0.277 C 
ATOM     27  O   UNL     1       0.758  11.703   2.798  0.00  0.00    -0.495 OA
ENDBRANCH  20  27
ENDBRANCH   1  23
BRANCH   6  28
ATOM     28  C   UNL     1       1.589   4.797  -0.142  0.00  0.00    +0.220 C 
BRANCH  28  29
ATOM     29  N   UNL     1       0.171   4.479  -0.326  0.00  0.00    -0.318 N 
ATOM     30  C   UNL     1      -0.330   3.273   0.069  0.00  0.00    +0.096 A 
ATOM     31  C   UNL     1      -1.621   2.994  -0.104  0.00  0.00    +0.066 A 
ATOM     32  S   UNL     1      -2.227   4.486  -0.876  0.00  0.00    -0.059 S 
ATOM     33  C   UNL     1      -0.687   5.390  -0.903  0.00  0.00    +0.166 A 
ATOM     34  N   UNL     1      -0.438   6.595  -1.354  0.00  0.00    -0.277 NA
ATOM     35  H   UNL     1      -1.153   7.125  -1.738  0.00  0.00    +0.189 HD
ENDBRANCH  28  29
ENDBRANCH   6  28
TORSDOF 5
