REMARK  Name = ZINC08431539
REMARK  10 active torsions:
REMARK  status: ('A' for Active; 'I' for Inactive)
REMARK    1  A    between atoms: C_1  and  C_2
REMARK    2  A    between atoms: C_6  and  C_36
REMARK    3  A    between atoms: C_7  and  O_8
REMARK    4  A    between atoms: O_8  and  C_9
REMARK    5  A    between atoms: C_9  and  C_10
REMARK    6  A    between atoms: C_10  and  C_12
REMARK    7  A    between atoms: C_10  and  O_35
REMARK    8  A    between atoms: C_12  and  N_13
REMARK    9  A    between atoms: C_16  and  C_19
REMARK   10  A    between atoms: C_19  and  N_20
REMARK                            x       y       z     vdW  Elec       q    Type
REMARK                         _______ _______ _______ _____ _____    ______ ____
ROOT
ATOM      1  N   UNL     1      -2.200   2.280   6.028  0.00  0.00    +0.381 N 
ATOM      2  C   UNL     1      -1.508   3.521   5.657  0.00  0.00    -0.078 C 
ATOM      3  C   UNL     1      -1.224   4.346   6.914  0.00  0.00    -0.014 C 
ATOM      4  C   UNL     1      -2.547   4.685   7.606  0.00  0.00    +0.003 C 
ATOM      5  C   UNL     1      -3.295   3.386   7.921  0.00  0.00    -0.014 C 
ATOM      6  C   UNL     1      -3.502   2.596   6.627  0.00  0.00    -0.078 C 
ATOM      7  H   UNL     1      -1.639   1.771   6.694  0.00  0.00    -0.082 HD
ENDROOT
BRANCH   1   8
ATOM      8  C   UNL     1      -2.401   1.456   4.828  0.00  0.00    -0.044 C 
BRANCH   8   9
ATOM      9  C   UNL     1      -1.043   1.022   4.274  0.00  0.00    +0.135 C 
BRANCH   9  10
ATOM     10  O   UNL     1      -0.396   0.166   5.217  0.00  0.00    -0.390 OA
ATOM     11  H   UNL     1      -0.891  -0.639   5.421  0.00  0.00    +0.210 HD
ENDBRANCH   9  10
BRANCH   9  12
ATOM     12  C   UNL     1      -1.246   0.270   2.957  0.00  0.00    +0.258 C 
BRANCH  12  13
ATOM     13  O   UNL     1       0.025  -0.033   2.381  0.00  0.00    -0.489 OA
BRANCH  13  20
ATOM     14  C   UNL     1      -0.018   1.503   0.010  0.00  0.00    +0.047 C 
ATOM     15  C   UNL     1       0.002  -0.004   0.002  0.00  0.00    -0.009 A 
ATOM     16  C   UNL     1       0.006  -0.689  -1.198  0.00  0.00    +0.007 A 
ATOM     17  C   UNL     1       0.024  -2.071  -1.206  0.00  0.00    +0.001 A 
ATOM     18  C   UNL     1       0.040  -2.772  -0.014  0.00  0.00    +0.007 A 
ATOM     19  C   UNL     1       0.036  -2.092   1.188  0.00  0.00    -0.009 A 
ATOM     20  C   UNL     1       0.023  -0.705   1.199  0.00  0.00    +0.126 A 
ATOM     21  C   UNL     1       0.052  -2.856   2.487  0.00  0.00    +0.047 C 
ENDBRANCH  13  20
ENDBRANCH  12  13
ENDBRANCH   9  12
ENDBRANCH   8   9
ENDBRANCH   1   8
BRANCH   4  22
ATOM     22  C   UNL     1      -2.266   5.441   8.906  0.00  0.00    +0.120 C 
BRANCH  22  23
ATOM     23  N   UNL     1      -3.533   5.869   9.505  0.00  0.00    -0.234 N 
ATOM     24  C   UNL     1      -4.039   7.069   9.164  0.00  0.00    +0.254 C 
ATOM     25  O   UNL     1      -3.443   7.774   8.372  0.00  0.00    -0.270 OA
ATOM     26  C   UNL     1      -5.308   7.533   9.744  0.00  0.00    +0.046 A 
ATOM     27  C   UNL     1      -5.865   8.761   9.421  0.00  0.00    +0.014 A 
ATOM     28  C   UNL     1      -7.067   9.156   9.996  0.00  0.00    +0.001 A 
ATOM     29  C   UNL     1      -7.730   8.359  10.886  0.00  0.00    +0.008 A 
ATOM     30  C   UNL     1      -7.200   7.106  11.240  0.00  0.00    -0.016 A 
ATOM     31  C   UNL     1      -5.980   6.695  10.663  0.00  0.00    +0.006 A 
ATOM     32  C   UNL     1      -5.420   5.441  10.999  0.00  0.00    +0.046 A 
ATOM     33  C   UNL     1      -6.087   4.626  11.902  0.00  0.00    +0.014 A 
ATOM     34  C   UNL     1      -7.289   5.043  12.463  0.00  0.00    +0.001 A 
ATOM     35  C   UNL     1      -7.844   6.250  12.150  0.00  0.00    +0.008 A 
ATOM     36  C   UNL     1      -4.150   5.045  10.373  0.00  0.00    +0.254 C 
ATOM     37  O   UNL     1      -3.652   3.969  10.644  0.00  0.00    -0.270 OA
ENDBRANCH  22  23
ENDBRANCH   4  22
TORSDOF 8
