REMARK  Name = ZINC39662572
REMARK  6 active torsions:
REMARK  status: ('A' for Active; 'I' for Inactive)
REMARK    1  A    between atoms: C_4  and  C_7
REMARK    2  A    between atoms: C_10  and  C_12
REMARK    3  A    between atoms: C_16  and  C_25
REMARK    4  A    between atoms: N_27  and  C_28
REMARK    5  A    between atoms: C_28  and  C_30
REMARK    6  A    between atoms: C_28  and  C_32
REMARK                            x       y       z     vdW  Elec       q    Type
REMARK                         _______ _______ _______ _____ _____    ______ ____
ROOT
ATOM      1  C   UNL     1       7.456  -0.859  -0.102  0.00  0.00    +0.282 C 
ATOM      2  O   UNL     1       8.238  -1.791  -0.065  0.00  0.00    -0.267 OA
ATOM      3  N   UNL     1       7.914   0.407  -0.061  0.00  0.00    -0.294 N 
ATOM      4  C   UNL     1       7.124   1.661  -0.088  0.00  0.00    +0.121 C 
ATOM      5  C   UNL     1       7.840   2.596   0.912  0.00  0.00    +0.100 C 
ATOM      6  C   UNL     1       9.283   2.068   0.979  0.00  0.00    -0.004 C 
ATOM      7  C   UNL     1       9.323   0.862   0.029  0.00  0.00    +0.115 C 
ATOM      8  C   UNL     1      10.261   3.142   0.512  0.00  0.00    -0.010 C 
ATOM      9  C   UNL     1      11.692   2.614   0.642  0.00  0.00    -0.082 C 
ATOM     10  N   UNL     1      11.959   2.256   2.040  0.00  0.00    +0.379 N 
ATOM     11  C   UNL     1      11.076   1.158   2.453  0.00  0.00    -0.082 C 
ATOM     12  C   UNL     1       9.618   1.624   2.400  0.00  0.00    -0.010 C 
ATOM     13  H   UNL     1      12.920   1.966   2.135  0.00  0.00    -0.086 HD
ATOM     14  H   UNL     1      11.793   3.058   2.629  0.00  0.00    -0.086 HD
ENDROOT
BRANCH   1  18
ATOM     15  C   UNL     1       3.848  -0.780  -0.316  0.00  0.00    +0.136 A 
ATOM     16  C   UNL     1       4.037  -2.132  -0.320  0.00  0.00    +0.050 A 
ATOM     17  C   UNL     1       5.416  -2.354  -0.240  0.00  0.00    +0.055 A 
ATOM     18  C   UNL     1       6.016  -1.115  -0.191  0.00  0.00    +0.190 A 
ATOM     19  O   UNL     1       5.046  -0.177  -0.244  0.00  0.00    -0.450 OA
BRANCH  15  23
ATOM     20  C   UNL     1       0.093   1.194  -0.518  0.00  0.00    +0.000 A 
ATOM     21  C   UNL     1       1.259   1.937  -0.445  0.00  0.00    +0.001 A 
ATOM     22  C   UNL     1       2.482   1.302  -0.379  0.00  0.00    +0.011 A 
ATOM     23  C   UNL     1       2.542  -0.093  -0.385  0.00  0.00    +0.017 A 
ATOM     24  C   UNL     1       1.362  -0.836  -0.458  0.00  0.00    +0.011 A 
ATOM     25  C   UNL     1       0.146  -0.189  -0.524  0.00  0.00    +0.001 A 
ENDBRANCH  15  23
ENDBRANCH   1  18
BRANCH   5  26
ATOM     26  C   UNL     1       7.821   4.016   0.409  0.00  0.00    +0.219 C 
ATOM     27  O   UNL     1       7.831   4.237  -0.784  0.00  0.00    -0.275 OA
ATOM     28  N   UNL     1       7.793   5.041   1.283  0.00  0.00    -0.296 N 
ATOM     29  H   UNL     1       7.785   4.864   2.237  0.00  0.00    +0.150 HD
BRANCH  28  30
ATOM     30  C   UNL     1       7.775   6.421   0.794  0.00  0.00    +0.207 C 
BRANCH  30  31
ATOM     31  C   UNL     1       7.146   7.314   1.832  0.00  0.00    -0.013 A 
ATOM     32  C   UNL     1       7.432   7.124   3.171  0.00  0.00    +0.006 A 
ATOM     33  C   UNL     1       6.856   7.943   4.124  0.00  0.00    +0.000 A 
ATOM     34  C   UNL     1       5.995   8.953   3.738  0.00  0.00    +0.000 A 
ATOM     35  C   UNL     1       5.710   9.144   2.399  0.00  0.00    +0.000 A 
ATOM     36  C   UNL     1       6.290   8.328   1.446  0.00  0.00    +0.006 A 
ENDBRANCH  30  31
BRANCH  30  37
ATOM     37  C   UNL     1       9.153   6.867   0.532  0.00  0.00    +0.090 C 
ATOM     38  N   UNL     1      10.216   7.212   0.329  0.00  0.00    -0.194 NA
ENDBRANCH  30  37
ENDBRANCH  28  30
ENDBRANCH   5  26
TORSDOF 6
