REMARK  Name = ZINC50611109
REMARK  5 active torsions:
REMARK  status: ('A' for Active; 'I' for Inactive)
REMARK    1  A    between atoms: C_1  and  O_2
REMARK    2  A    between atoms: O_2  and  C_3
REMARK    3  A    between atoms: C_13  and  C_15
REMARK    4  A    between atoms: N_17  and  N_18
REMARK    5  A    between atoms: N_18  and  C_19
REMARK                            x       y       z     vdW  Elec       q    Type
REMARK                         _______ _______ _______ _____ _____    ______ ____
ROOT
ATOM      1  C   UNL     1      -1.655  -0.296   1.131  0.00  0.00    +0.120 A 
ATOM      2  C   UNL     1      -2.897   0.321   1.092  0.00  0.00    +0.046 A 
ATOM      3  C   UNL     1      -4.027  -0.430   0.852  0.00  0.00    +0.007 A 
ATOM      4  C   UNL     1      -3.937  -1.802   0.645  0.00  0.00    -0.041 A 
ATOM      5  C   UNL     1      -2.703  -2.414   0.675  0.00  0.00    -0.023 A 
ATOM      6  C   UNL     1      -1.563  -1.661   0.918  0.00  0.00    +0.051 A 
ATOM      7  C   UNL     1      -2.530  -3.892   0.431  0.00  0.00    +0.143 C 
ATOM      8  N   UNL     1      -3.839  -4.553   0.453  0.00  0.00    -0.289 N 
ATOM      9  C   UNL     1      -4.939  -3.897  -0.273  0.00  0.00    +0.113 C 
ATOM     10  C   UNL     1      -5.217  -2.557   0.405  0.00  0.00    +0.054 C 
ATOM     11  C   UNL     1      -4.027  -5.714   1.111  0.00  0.00    +0.303 C 
ATOM     12  O   UNL     1      -5.145  -6.175   1.222  0.00  0.00    -0.265 OA
ENDROOT
BRANCH  11  13
ATOM     13  C   UNL     1      -2.860  -6.433   1.706  0.00  0.00    +0.315 C 
ATOM     14  O   UNL     1      -1.733  -6.037   1.497  0.00  0.00    -0.264 OA
ATOM     15  N   UNL     1      -3.060  -7.522   2.474  0.00  0.00    -0.229 N 
ATOM     16  H   UNL     1      -3.962  -7.839   2.642  0.00  0.00    +0.173 HD
BRANCH  15  17
ATOM     17  N   UNL     1      -1.966  -8.197   3.032  0.00  0.00    -0.263 N 
ATOM     18  H   UNL     1      -1.065  -7.880   2.865  0.00  0.00    +0.170 HD
BRANCH  17  19
ATOM     19  C   UNL     1      -2.174  -9.326   3.829  0.00  0.00    +0.063 A 
ATOM     20  C   UNL     1      -3.463  -9.784   4.065  0.00  0.00    +0.027 A 
ATOM     21  C   UNL     1      -3.666 -10.901   4.853  0.00  0.00    +0.022 A 
ATOM     22  C   UNL     1      -2.585 -11.563   5.408  0.00  0.00    +0.042 A 
ATOM     23  C   UNL     1      -1.298 -11.110   5.176  0.00  0.00    +0.042 A 
ATOM     24  C   UNL     1      -1.089  -9.997   4.383  0.00  0.00    +0.065 A 
ATOM     25 CL   UNL     1       0.525  -9.433   4.085  0.00  0.00    -0.082 Cl
ATOM     26 CL   UNL     1      -2.844 -12.965   6.399  0.00  0.00    -0.083 Cl
ENDBRANCH  17  19
ENDBRANCH  15  17
ENDBRANCH  11  13
BRANCH   1  28
ATOM     27  C   UNL     1      -0.710   1.838   1.583  0.00  0.00    +0.277 C 
ATOM     28  O   UNL     1      -0.535   0.435   1.372  0.00  0.00    -0.495 OA
ENDBRANCH   1  28
TORSDOF 4
