REMARK  Name = ZINC63351071
REMARK  11 active torsions:
REMARK  status: ('A' for Active; 'I' for Inactive)
REMARK    1  A    between atoms: C_1  and  C_2
REMARK    2  A    between atoms: C_6  and  O_18
REMARK    3  A    between atoms: C_12  and  C_13
REMARK    4  A    between atoms: C_13  and  C_14
REMARK    5  A    between atoms: C_14  and  O_16
REMARK    6  A    between atoms: O_16  and  C_17
REMARK    7  A    between atoms: O_18  and  C_19
REMARK    8  A    between atoms: C_19  and  C_20
REMARK    9  A    between atoms: C_35  and  C_37
REMARK   10  A    between atoms: C_37  and  O_39
REMARK   11  A    between atoms: O_39  and  C_40
REMARK                            x       y       z     vdW  Elec       q    Type
REMARK                         _______ _______ _______ _____ _____    ______ ____
ROOT
ATOM      1  C   UNL     1      -7.059  -3.226   0.828  0.00  0.00    +0.254 C 
ATOM      2  O   UNL     1      -6.869  -4.416   0.693  0.00  0.00    -0.272 OA
ATOM      3  N   UNL     1      -8.305  -2.763   1.047  0.00  0.00    -0.283 N 
ATOM      4  C   UNL     1      -8.529  -1.317   1.204  0.00  0.00    +0.137 C 
ATOM      5  C   UNL     1      -9.143  -1.084   2.588  0.00  0.00    +0.124 C 
ATOM      6  C   UNL     1     -10.296  -2.070   2.724  0.00  0.00    -0.035 C 
ATOM      7  C   UNL     1     -11.376  -1.349   2.998  0.00  0.00    -0.001 A 
ATOM      8  C   UNL     1     -12.763  -1.738   3.303  0.00  0.00    +0.010 A 
ATOM      9  C   UNL     1     -13.635  -0.720   3.528  0.00  0.00    +0.001 A 
ATOM     10  C   UNL     1     -13.271   0.630   3.482  0.00  0.00    +0.002 A 
ATOM     11  C   UNL     1     -12.019   1.078   3.214  0.00  0.00    +0.026 A 
ATOM     12  C   UNL     1     -11.012   0.101   2.964  0.00  0.00    +0.043 A 
ATOM     13  N   UNL     1      -9.725   0.254   2.707  0.00  0.00    -0.376 N 
ATOM     14  C   UNL     1     -10.128  -3.551   2.488  0.00  0.00    +0.067 C 
ATOM     15  C   UNL     1      -9.427  -3.705   1.120  0.00  0.00    +0.189 C 
ATOM     16  H   UNL     1      -9.246   1.092   2.609  0.00  0.00    +0.160 HD
ENDROOT
BRANCH  15  17
ATOM     17  C   UNL     1     -10.406  -3.409   0.013  0.00  0.00    +0.328 C 
ATOM     18  O   UNL     1     -10.402  -2.326  -0.523  0.00  0.00    -0.249 OA
BRANCH  17  19
ATOM     19  O   UNL     1     -11.282  -4.348  -0.377  0.00  0.00    -0.467 OA
ATOM     20  C   UNL     1     -12.181  -3.998  -1.432  0.00  0.00    +0.280 C 
ENDBRANCH  17  19
ENDBRANCH  15  17
BRANCH   1  21
ATOM     21  C   UNL     1      -5.901  -2.264   0.751  0.00  0.00    +0.324 C 
BRANCH  21  22
ATOM     22  O   UNL     1      -4.693  -2.991   0.513  0.00  0.00    -0.483 OA
BRANCH  22  28
ATOM     23  C   UNL     1       0.011   1.491   0.253  0.00  0.00    +0.045 C 
ATOM     24  C   UNL     1       0.016  -0.009   0.116  0.00  0.00    -0.029 A 
ATOM     25  C   UNL     1      -1.226  -0.778   0.223  0.00  0.00    +0.021 A 
ATOM     26  C   UNL     1      -2.450  -0.141   0.454  0.00  0.00    +0.015 A 
ATOM     27  C   UNL     1      -3.593  -0.881   0.548  0.00  0.00    +0.046 A 
ATOM     28  C   UNL     1      -3.548  -2.268   0.416  0.00  0.00    +0.125 A 
ATOM     29  C   UNL     1      -2.345  -2.915   0.187  0.00  0.00    +0.092 A 
ATOM     30  C   UNL     1      -1.174  -2.178   0.088  0.00  0.00    +0.143 A 
ATOM     31  O   UNL     1       0.009  -2.789  -0.135  0.00  0.00    -0.422 OA
ATOM     32  C   UNL     1       1.151  -2.090  -0.234  0.00  0.00    +0.341 A 
ATOM     33  O   UNL     1       2.194  -2.684  -0.436  0.00  0.00    -0.245 OA
ATOM     34  C   UNL     1       1.172  -0.685  -0.114  0.00  0.00    +0.051 A 
BRANCH  34  35
ATOM     35  C   UNL     1       2.473   0.064  -0.238  0.00  0.00    +0.163 C 
BRANCH  35  36
ATOM     36  C   UNL     1       3.164   0.094   1.101  0.00  0.00    +0.311 C 
ATOM     37  O   UNL     1       2.652  -0.439   2.057  0.00  0.00    -0.250 OA
BRANCH  36  38
ATOM     38  O   UNL     1       4.349   0.712   1.232  0.00  0.00    -0.468 OA
ATOM     39  C   UNL     1       4.947   0.701   2.529  0.00  0.00    +0.280 C 
ENDBRANCH  36  38
ENDBRANCH  35  36
ENDBRANCH  34  35
ENDBRANCH  22  28
ENDBRANCH  21  22
ENDBRANCH   1  21
TORSDOF 8
