REMARK  Name = ZINC54752744
REMARK  6 active torsions:
REMARK  status: ('A' for Active; 'I' for Inactive)
REMARK    1  A    between atoms: C_1  and  C_2
REMARK    2  A    between atoms: C_6  and  C_8
REMARK    3  A    between atoms: C_13  and  C_18
REMARK    4  A    between atoms: C_18  and  C_19
REMARK    5  A    between atoms: C_19  and  C_20
REMARK    6  A    between atoms: C_19  and  C_21
REMARK                            x       y       z     vdW  Elec       q    Type
REMARK                         _______ _______ _______ _____ _____    ______ ____
ROOT
ATOM      1  C   UNL     1       0.113  -3.044   2.257  0.00  0.00    +0.161 A 
ATOM      2  N   UNL     1       0.099  -4.350   2.393  0.00  0.00    -0.189 NA
ATOM      3  C   UNL     1       0.106  -4.946   3.591  0.00  0.00    +0.282 A 
ATOM      4  O   UNL     1       0.093  -6.164   3.675  0.00  0.00    -0.265 OA
ATOM      5  C   UNL     1       0.129  -4.112   4.814  0.00  0.00    +0.075 A 
ATOM      6  C   UNL     1       0.141  -4.513   6.209  0.00  0.00    -0.026 A 
ATOM      7  C   UNL     1       0.163  -3.567   7.162  0.00  0.00    +0.051 A 
ATOM      8  S   UNL     1       0.170  -2.046   6.231  0.00  0.00    -0.079 S 
ATOM      9  C   UNL     1       0.143  -2.729   4.595  0.00  0.00    +0.092 A 
ATOM     10  N   UNL     1       0.140  -2.215   3.338  0.00  0.00    -0.332 N 
ATOM     11  H   UNL     1       0.153  -1.254   3.209  0.00  0.00    +0.168 HD
ENDROOT
BRANCH   1  17
ATOM     12  C   UNL     1       0.138   0.923  -0.557  0.00  0.00    +0.065 C 
ATOM     13  C   UNL     1       0.116  -0.580  -0.442  0.00  0.00    +0.039 A 
ATOM     14  C   UNL     1       0.089  -1.352  -1.591  0.00  0.00    +0.023 A 
ATOM     15  C   UNL     1       0.069  -2.734  -1.482  0.00  0.00    +0.004 A 
ATOM     16  C   UNL     1       0.077  -3.297  -0.215  0.00  0.00    +0.031 A 
ATOM     17  C   UNL     1       0.104  -2.459   0.898  0.00  0.00    +0.106 A 
ATOM     18  N   UNL     1       0.128  -1.139   0.748  0.00  0.00    -0.249 NA
ENDBRANCH   1  17
BRANCH   6  19
ATOM     19  C   UNL     1       0.128  -5.972   6.583  0.00  0.00    +0.039 C 
BRANCH  19  20
ATOM     20  C   UNL     1      -1.307  -6.500   6.530  0.00  0.00    -0.013 C 
ATOM     21  C   UNL     1      -1.304  -8.011   6.771  0.00  0.00    +0.007 C 
ATOM     22  C   UNL     1      -2.143  -5.813   7.611  0.00  0.00    +0.007 C 
ENDBRANCH  19  20
ENDBRANCH   6  19
TORSDOF 3
