REMARK  Name = ZINC36610462
REMARK  14 active torsions:
REMARK  status: ('A' for Active; 'I' for Inactive)
REMARK    1  A    between atoms: C_1  and  C_2
REMARK    2  A    between atoms: C_2  and  C_3
REMARK    3  A    between atoms: C_2  and  C_4
REMARK    4  A    between atoms: C_2  and  N_5
REMARK    5  A    between atoms: C_6  and  C_8
REMARK    6  A    between atoms: C_8  and  C_10
REMARK    7  A    between atoms: C_8  and  N_19
REMARK    8  A    between atoms: C_13  and  N_16
REMARK    9  A    between atoms: N_16  and  C_17
REMARK   10  A    between atoms: N_16  and  C_18
REMARK   11  A    between atoms: N_19  and  C_20
REMARK   12  A    between atoms: C_26  and  C_28
REMARK   13  A    between atoms: C_32  and  O_35
REMARK   14  A    between atoms: C_33  and  O_34
REMARK                            x       y       z     vdW  Elec       q    Type
REMARK                         _______ _______ _______ _____ _____    ______ ____
ROOT
ATOM      1  N   UNL     1       4.228   0.046  -2.564  0.00  0.00    -0.251 N 
ATOM      2  C   UNL     1       5.100  -0.906  -2.176  0.00  0.00    +0.255 C 
ATOM      3  O   UNL     1       6.215  -0.943  -2.660  0.00  0.00    -0.269 OA
ENDROOT
BRANCH   1   4
ATOM      4  C   UNL     1       4.579   0.945  -3.577  0.00  0.00    +0.038 A 
ATOM      5  C   UNL     1       5.553   1.907  -3.347  0.00  0.00    +0.023 A 
ATOM      6  C   UNL     1       5.897   2.793  -4.349  0.00  0.00    +0.002 A 
ATOM      7  C   UNL     1       5.273   2.722  -5.581  0.00  0.00    +0.000 A 
ATOM      8  C   UNL     1       4.302   1.765  -5.813  0.00  0.00    +0.002 A 
ATOM      9  C   UNL     1       3.958   0.873  -4.817  0.00  0.00    +0.023 A 
ENDBRANCH   1   4
BRANCH   2  10
ATOM     10  C   UNL     1       4.701  -1.902  -1.165  0.00  0.00    +0.082 A 
ATOM     11  C   UNL     1       3.348  -2.160  -0.927  0.00  0.00    +0.017 A 
ATOM     12  C   UNL     1       2.979  -3.091   0.019  0.00  0.00    +0.005 A 
ATOM     13  C   UNL     1       3.944  -3.777   0.739  0.00  0.00    +0.049 A 
ATOM     14  C   UNL     1       5.288  -3.534   0.514  0.00  0.00    +0.159 A 
ATOM     15  C   UNL     1       5.676  -2.600  -0.442  0.00  0.00    +0.171 A 
BRANCH  15  16
ATOM     16  O   UNL     1       6.993  -2.362  -0.668  0.00  0.00    -0.503 OA
ATOM     17  H   UNL     1       7.368  -1.662  -0.116  0.00  0.00    +0.292 HD
ENDBRANCH  15  16
BRANCH  14  18
ATOM     18  O   UNL     1       6.230  -4.210   1.225  0.00  0.00    -0.503 OA
ATOM     19  H   UNL     1       6.513  -5.038   0.814  0.00  0.00    +0.292 HD
ENDBRANCH  14  18
ENDBRANCH   2  10
BRANCH   1  20
ATOM     20  C   UNL     1       2.913   0.140  -1.926  0.00  0.00    +0.197 C 
BRANCH  20  21
ATOM     21  C   UNL     1       2.300   1.482  -2.231  0.00  0.00    -0.018 A 
ATOM     22  C   UNL     1       2.958   2.641  -1.860  0.00  0.00    +0.008 A 
ATOM     23  C   UNL     1       2.399   3.873  -2.138  0.00  0.00    +0.023 A 
ATOM     24  C   UNL     1       1.176   3.947  -2.791  0.00  0.00    +0.029 A 
ATOM     25  C   UNL     1       0.518   2.782  -3.163  0.00  0.00    +0.023 A 
ATOM     26  C   UNL     1       1.085   1.553  -2.887  0.00  0.00    +0.008 A 
BRANCH  24  27
ATOM     27  N   UNL     1       0.608   5.192  -3.074  0.00  0.00    -0.336 N 
ATOM     28  C   UNL     1       1.354   6.420  -2.788  0.00  0.00    +0.129 C 
ATOM     29  C   UNL     1      -0.735   5.269  -3.656  0.00  0.00    +0.129 C 
ENDBRANCH  24  27
ENDBRANCH  20  21
BRANCH  20  31
ATOM     30  N   UNL     1       1.982   0.037   0.364  0.00  0.00    -0.309 N 
ATOM     31  C   UNL     1       3.067  -0.015  -0.434  0.00  0.00    +0.239 C 
ATOM     32  O   UNL     1       4.166  -0.186   0.047  0.00  0.00    -0.273 OA
ATOM     33  H   UNL     1       1.102   0.174  -0.021  0.00  0.00    +0.149 HD
BRANCH  30  35
ATOM     34  C   UNL     1       3.039   0.995   2.350  0.00  0.00    +0.031 C 
ATOM     35  C   UNL     1       2.131  -0.113   1.813  0.00  0.00    +0.026 C 
ATOM     36  C   UNL     1       2.753  -1.476   2.123  0.00  0.00    +0.031 C 
ATOM     37  C   UNL     1       0.758  -0.016   2.481  0.00  0.00    +0.031 C 
ENDBRANCH  30  35
ENDBRANCH  20  31
ENDBRANCH   1  20
TORSDOF 9
