REMARK  Name = ZINC09926764
REMARK  8 active torsions:
REMARK  status: ('A' for Active; 'I' for Inactive)
REMARK    1  A    between atoms: C_1  and  C_2
REMARK    2  A    between atoms: C_2  and  N_3
REMARK    3  A    between atoms: C_16  and  C_21
REMARK    4  A    between atoms: C_28  and  N_35
REMARK    5  A    between atoms: C_29  and  C_30
REMARK    6  A    between atoms: C_30  and  O_32
REMARK    7  A    between atoms: O_32  and  C_33
REMARK    8  A    between atoms: C_33  and  C_34
REMARK                            x       y       z     vdW  Elec       q    Type
REMARK                         _______ _______ _______ _____ _____    ______ ____
ROOT
ATOM      1  N   UNL     1       3.588  -0.433  -0.018  0.00  0.00    -0.270 N 
ATOM      2  C   UNL     1       2.292   0.051  -0.027  0.00  0.00    +0.041 A 
ATOM      3  C   UNL     1       1.084  -0.649  -0.035  0.00  0.00    +0.024 A 
ATOM      4  C   UNL     1      -0.083   0.100  -0.043  0.00  0.00    +0.002 A 
ATOM      5  C   UNL     1      -0.065   1.480  -0.044  0.00  0.00    +0.000 A 
ATOM      6  C   UNL     1       1.131   2.189  -0.036  0.00  0.00    +0.007 A 
ATOM      7  C   UNL     1       2.295   1.452  -0.028  0.00  0.00    -0.002 A 
ATOM      8  C   UNL     1       3.733   1.868  -0.016  0.00  0.00    +0.141 C 
ATOM      9  C   UNL     1       4.500   0.561  -0.010  0.00  0.00    +0.240 C 
ATOM     10  O   UNL     1       5.706   0.433   0.000  0.00  0.00    -0.274 OA
ATOM     11  C   UNL     1       4.074   2.651  -1.257  0.00  0.00    +0.057 C 
ATOM     12  C   UNL     1       4.248   3.985  -1.195  0.00  0.00    +0.116 C 
ATOM     13  C   UNL     1       4.580   4.777  -2.438  0.00  0.00    +0.083 C 
ATOM     14  C   UNL     1       5.394   3.909  -3.400  0.00  0.00    +0.034 C 
ATOM     15  C   UNL     1       4.569   2.665  -3.747  0.00  0.00    +0.088 C 
ATOM     16  C   UNL     1       4.205   1.952  -2.473  0.00  0.00    +0.165 C 
ATOM     17  O   UNL     1       4.021   0.751  -2.493  0.00  0.00    -0.292 OA
ATOM     18  O   UNL     1       4.128   4.654  -0.033  0.00  0.00    -0.446 OA
ATOM     19  C   UNL     1       4.239   4.005   1.135  0.00  0.00    +0.195 C 
ATOM     20  C   UNL     1       4.056   2.660   1.217  0.00  0.00    +0.117 C 
ENDROOT
BRANCH  14  21
ATOM     21  C   UNL     1       5.691   4.686  -4.656  0.00  0.00    -0.043 A 
ATOM     22  C   UNL     1       4.653   5.157  -5.439  0.00  0.00    +0.004 A 
ATOM     23  C   UNL     1       4.926   5.875  -6.588  0.00  0.00    +0.000 A 
ATOM     24  C   UNL     1       6.235   6.113  -6.961  0.00  0.00    +0.000 A 
ATOM     25  C   UNL     1       7.273   5.637  -6.181  0.00  0.00    +0.000 A 
ATOM     26  C   UNL     1       7.001   4.924  -5.028  0.00  0.00    +0.004 A 
ENDBRANCH  14  21
BRANCH  19  27
ATOM     27  N   UNL     1       4.542   4.710   2.268  0.00  0.00    -0.329 N 
ATOM     28  H   UNL     1       5.120   4.321   2.942  0.00  0.00    +0.145 HD
ATOM     29  H   UNL     1       4.178   5.601   2.397  0.00  0.00    +0.145 HD
ENDBRANCH  19  27
BRANCH   1  31
ATOM     30  C   UNL     1       4.059  -2.352  -1.460  0.00  0.00    +0.025 C 
ATOM     31  C   UNL     1       3.929  -1.858  -0.018  0.00  0.00    +0.110 C 
ENDBRANCH   1  31
BRANCH  20  32
ATOM     32  C   UNL     1       4.171   2.011   2.456  0.00  0.00    +0.342 C 
ATOM     33  O   UNL     1       4.523   2.637   3.441  0.00  0.00    -0.245 OA
BRANCH  32  34
ATOM     34  O   UNL     1       3.891   0.694   2.558  0.00  0.00    -0.462 OA
BRANCH  34  35
ATOM     35  C   UNL     1       4.028   0.099   3.850  0.00  0.00    +0.229 C 
ATOM     36  C   UNL     1       3.671  -1.386   3.768  0.00  0.00    +0.048 C 
ENDBRANCH  34  35
ENDBRANCH  32  34
ENDBRANCH  20  32
TORSDOF 6
