REMARK  Name = ZINC15947323
REMARK  6 active torsions:
REMARK  status: ('A' for Active; 'I' for Inactive)
REMARK    1  A    between atoms: C_4  and  C_7
REMARK    2  A    between atoms: C_7  and  N_8
REMARK    3  A    between atoms: C_16  and  O_31
REMARK    4  A    between atoms: C_18  and  C_21
REMARK    5  A    between atoms: C_23  and  O_30
REMARK    6  A    between atoms: C_26  and  N_27
REMARK                            x       y       z     vdW  Elec       q    Type
REMARK                         _______ _______ _______ _____ _____    ______ ____
ROOT
ATOM      1  N   UNL     1       3.581  -1.016   1.528  0.00  0.00    +0.386 N 
ATOM      2  C   UNL     1       4.923  -1.597   1.389  0.00  0.00    -0.073 C 
ATOM      3  C   UNL     1       5.658  -1.556   2.733  0.00  0.00    +0.018 C 
ATOM      4  C   UNL     1       4.753  -2.190   3.781  0.00  0.00    -0.027 A 
ATOM      5  C   UNL     1       3.431  -2.345   3.530  0.00  0.00    -0.021 A 
ATOM      6  S   UNL     1       2.783  -3.109   4.990  0.00  0.00    -0.080 S 
ATOM      7  C   UNL     1       4.176  -3.220   5.883  0.00  0.00    +0.080 A 
ATOM      8  C   UNL     1       5.182  -2.665   5.081  0.00  0.00    +0.067 A 
ATOM      9  C   UNL     1       6.556  -2.619   5.643  0.00  0.00    +0.220 C 
ATOM     10  N   UNL     1       6.794  -3.311   6.724  0.00  0.00    -0.223 NA
ATOM     11  C   UNL     1       5.822  -4.176   7.381  0.00  0.00    +0.226 C 
ATOM     12  N   UNL     1       4.440  -3.724   7.136  0.00  0.00    -0.313 N 
ATOM     13  C   UNL     1       2.716  -1.943   2.280  0.00  0.00    -0.035 C 
ATOM     14  H   UNL     1       3.755  -3.779   7.821  0.00  0.00    +0.149 HD
ATOM     15  H   UNL     1       3.645  -0.139   2.023  0.00  0.00    -0.081 HD
ENDROOT
BRANCH  11  16
ATOM     16  C   UNL     1       5.979  -5.580   6.856  0.00  0.00    +0.028 A 
ATOM     17  C   UNL     1       6.537  -5.793   5.611  0.00  0.00    +0.055 A 
ATOM     18  C   UNL     1       6.682  -7.086   5.128  0.00  0.00    +0.117 A 
ATOM     19  C   UNL     1       6.265  -8.162   5.899  0.00  0.00    +0.047 A 
ATOM     20  C   UNL     1       5.707  -7.944   7.144  0.00  0.00    +0.037 A 
ATOM     21  C   UNL     1       5.570  -6.654   7.624  0.00  0.00    +0.133 A 
BRANCH  21  22
ATOM     22  N   UNL     1       4.978  -6.424   8.961  0.00  0.00    +0.057 N 
ATOM     23  O   UNL     1       4.721  -7.362   9.679  0.00  0.00    -0.126 OA
ATOM     24  O   UNL     1       4.752  -5.297   9.336  0.00  0.00    -0.126 OA
ENDBRANCH  21  22
BRANCH  18  25
ATOM     25  O   UNL     1       7.230  -7.298   3.903  0.00  0.00    -0.507 OA
ATOM     26  H   UNL     1       8.191  -7.407   3.916  0.00  0.00    +0.292 HD
ENDBRANCH  18  25
ENDBRANCH  11  16
BRANCH   9  27
ATOM     27  O   UNL     1       7.529  -1.884   5.055  0.00  0.00    -0.492 OA
ATOM     28  H   UNL     1       8.383  -1.928   5.506  0.00  0.00    +0.294 HD
ENDBRANCH   9  27
BRANCH   1  29
ATOM     29  C   UNL     1       3.009  -0.785   0.195  0.00  0.00    -0.043 C 
BRANCH  29  33
ATOM     30  C   UNL     1      -0.738   1.230   0.582  0.00  0.00    +0.000 A 
ATOM     31  C   UNL     1       0.430   1.960   0.462  0.00  0.00    +0.000 A 
ATOM     32  C   UNL     1       1.643   1.308   0.337  0.00  0.00    +0.002 A 
ATOM     33  C   UNL     1       1.687  -0.074   0.332  0.00  0.00    -0.064 A 
ATOM     34  C   UNL     1       0.519  -0.803   0.454  0.00  0.00    +0.002 A 
ATOM     35  C   UNL     1      -0.694  -0.151   0.577  0.00  0.00    +0.000 A 
ENDBRANCH  29  33
ENDBRANCH   1  29
TORSDOF 6
