REMARK  Name = ZINC36637428
REMARK  12 active torsions:
REMARK  status: ('A' for Active; 'I' for Inactive)
REMARK    1  A    between atoms: C_1  and  C_2
REMARK    2  A    between atoms: C_5  and  C_38
REMARK    3  A    between atoms: N_8  and  S_10
REMARK    4  A    between atoms: S_10  and  C_13
REMARK    5  A    between atoms: C_16  and  C_19
REMARK    6  A    between atoms: N_21  and  C_22
REMARK    7  A    between atoms: C_22  and  C_23
REMARK    8  A    between atoms: C_23  and  N_24
REMARK    9  A    between atoms: N_24  and  C_25
REMARK   10  A    between atoms: N_24  and  C_26
REMARK   11  A    between atoms: C_30  and  O_36
REMARK   12  A    between atoms: O_36  and  C_37
REMARK                            x       y       z     vdW  Elec       q    Type
REMARK                         _______ _______ _______ _____ _____    ______ ____
ROOT
ATOM      1  C   UNL     1       2.126   6.494   1.287  0.00  0.00    +0.252 C 
ATOM      2  O   UNL     1       2.997   7.143   0.741  0.00  0.00    -0.270 OA
ATOM      3  N   UNL     1       1.005   7.103   1.723  0.00  0.00    -0.248 N 
ATOM      4  C   UNL     1       0.782   8.438   1.428  0.00  0.00    +0.168 A 
ATOM      5  N   UNL     1       1.534   9.265   0.740  0.00  0.00    -0.221 NA
ATOM      6  C   UNL     1       1.188  10.555   0.529  0.00  0.00    +0.122 A 
ATOM      7  C   UNL     1       1.904  11.546  -0.190  0.00  0.00    +0.146 A 
ATOM      8  C   UNL     1       1.405  12.822  -0.308  0.00  0.00    +0.048 A 
ATOM      9  C   UNL     1       0.194  13.182   0.265  0.00  0.00    +0.005 A 
ATOM     10  C   UNL     1      -0.528  12.238   0.972  0.00  0.00    +0.017 A 
ATOM     11  C   UNL     1      -0.039  10.961   1.097  0.00  0.00    +0.044 A 
ATOM     12  S   UNL     1      -0.605   9.469   1.880  0.00  0.00    -0.052 S 
ENDROOT
BRANCH   1  16
ATOM     13  C   UNL     1       2.616   2.310   1.823  0.00  0.00    +0.106 A 
ATOM     14  C   UNL     1       3.167   2.931   0.716  0.00  0.00    +0.029 A 
ATOM     15  C   UNL     1       3.011   4.290   0.536  0.00  0.00    +0.015 A 
ATOM     16  C   UNL     1       2.296   5.038   1.473  0.00  0.00    +0.037 A 
ATOM     17  C   UNL     1       1.743   4.404   2.588  0.00  0.00    +0.015 A 
ATOM     18  C   UNL     1       1.902   3.044   2.753  0.00  0.00    +0.029 A 
BRANCH  13  19
ATOM     19  S   UNL     1       2.820   0.574   2.046  0.00  0.00    +0.061 S 
ATOM     20  O   UNL     1       2.672   0.323   3.437  0.00  0.00    -0.153 OA
ATOM     21  O   UNL     1       3.989   0.206   1.326  0.00  0.00    -0.153 OA
BRANCH  19  27
ATOM     22  C   UNL     1      -0.748   1.673   1.215  0.00  0.00    +0.009 C 
ATOM     23  C   UNL     1      -0.872   0.148   1.241  0.00  0.00    +0.002 C 
ATOM     24  C   UNL     1      -0.851  -0.390  -0.192  0.00  0.00    +0.009 C 
ATOM     25  C   UNL     1       0.450   0.033  -0.878  0.00  0.00    +0.002 C 
ATOM     26  C   UNL     1       1.640  -0.565  -0.120  0.00  0.00    +0.112 C 
ATOM     27  N   UNL     1       1.547  -0.170   1.292  0.00  0.00    -0.176 NA
ATOM     28  C   UNL     1       0.302  -0.447   2.024  0.00  0.00    +0.112 C 
ATOM     29  C   UNL     1       0.455  -0.477  -2.321  0.00  0.00    +0.009 C 
ENDBRANCH  19  27
ENDBRANCH  13  19
ENDBRANCH   1  16
BRANCH   7  30
ATOM     30  O   UNL     1       3.094  11.232  -0.766  0.00  0.00    -0.493 OA
ATOM     31  C   UNL     1       3.766  12.275  -1.476  0.00  0.00    +0.277 C 
ENDBRANCH   7  30
BRANCH   3  32
ATOM     32  C   UNL     1       0.023   6.353   2.509  0.00  0.00    +0.097 C 
BRANCH  32  33
ATOM     33  C   UNL     1       0.164   6.721   3.988  0.00  0.00    -0.060 C 
BRANCH  33  34
ATOM     34  N   UNL     1      -0.908   6.076   4.758  0.00  0.00    +0.377 N 
ATOM     35  C   UNL     1      -0.738   4.618   4.706  0.00  0.00    -0.097 C 
ATOM     36  C   UNL     1      -0.847   6.527   6.154  0.00  0.00    -0.097 C 
ATOM     37  H   UNL     1      -1.802   6.325   4.363  0.00  0.00    -0.083 HD
ENDBRANCH  33  34
ENDBRANCH  32  33
ENDBRANCH   3  32
TORSDOF 7
