REMARK  Name = ZINC55104177
REMARK  5 active torsions:
REMARK  status: ('A' for Active; 'I' for Inactive)
REMARK    1  A    between atoms: C_7  and  C_19
REMARK    2  A    between atoms: C_7  and  O_30
REMARK    3  A    between atoms: N_8  and  C_12
REMARK    4  A    between atoms: N_21  and  C_22
REMARK    5  A    between atoms: C_22  and  C_23
REMARK                            x       y       z     vdW  Elec       q    Type
REMARK                         _______ _______ _______ _____ _____    ______ ____
ROOT
ATOM      1  C   UNL     1       0.103   1.397  -0.727  0.00  0.00    +0.001 A 
ATOM      2  C   UNL     1       1.222   2.096  -0.311  0.00  0.00    +0.002 A 
ATOM      3  C   UNL     1       2.369   1.421   0.057  0.00  0.00    +0.024 A 
ATOM      4  C   UNL     1       2.400   0.034   0.009  0.00  0.00    +0.043 A 
ATOM      5  C   UNL     1       1.270  -0.661  -0.410  0.00  0.00    +0.033 A 
ATOM      6  C   UNL     1       0.128   0.014  -0.776  0.00  0.00    +0.010 A 
ATOM      7  C   UNL     1       1.338  -2.170  -0.450  0.00  0.00    +0.247 C 
ATOM      8  N   UNL     1       2.609  -2.791  -0.038  0.00  0.00    -0.214 N 
ATOM      9  C   UNL     1       3.629  -2.003   0.347  0.00  0.00    +0.314 C 
ATOM     10  O   UNL     1       4.672  -2.529   0.685  0.00  0.00    -0.252 OA
ATOM     11  N   UNL     1       3.550  -0.666   0.376  0.00  0.00    -0.269 N 
ATOM     12  H   UNL     1       4.326  -0.163   0.665  0.00  0.00    +0.156 HD
ENDROOT
BRANCH   8  13
ATOM     13  C   UNL     1       2.752  -4.183  -0.046  0.00  0.00    +0.043 A 
ATOM     14  C   UNL     1       3.324  -4.817  -1.142  0.00  0.00    +0.024 A 
ATOM     15  C   UNL     1       3.465  -6.190  -1.148  0.00  0.00    +0.003 A 
ATOM     16  C   UNL     1       3.038  -6.936  -0.064  0.00  0.00    +0.020 A 
ATOM     17  C   UNL     1       2.468  -6.308   1.029  0.00  0.00    +0.043 A 
ATOM     18  C   UNL     1       2.329  -4.932   1.043  0.00  0.00    +0.043 A 
ATOM     19 CL   UNL     1       1.933  -7.247   2.388  0.00  0.00    -0.083 Cl
ENDBRANCH   8  13
BRANCH   7  20
ATOM     20  C   UNL     1       1.041  -2.611  -1.860  0.00  0.00    +0.269 C 
ATOM     21  O   UNL     1       0.044  -3.260  -2.095  0.00  0.00    -0.270 OA
ATOM     22  N   UNL     1       1.884  -2.285  -2.860  0.00  0.00    -0.307 N 
ATOM     23  H   UNL     1       2.682  -1.766  -2.672  0.00  0.00    +0.149 HD
BRANCH  22  24
ATOM     24  C   UNL     1       1.595  -2.715  -4.231  0.00  0.00    +0.139 C 
BRANCH  24  25
ATOM     25  C   UNL     1       2.684  -2.224  -5.150  0.00  0.00    -0.030 A 
ATOM     26  C   UNL     1       2.572  -0.986  -5.755  0.00  0.00    +0.008 A 
ATOM     27  C   UNL     1       3.570  -0.535  -6.598  0.00  0.00    +0.038 A 
ATOM     28  C   UNL     1       4.682  -1.325  -6.837  0.00  0.00    +0.123 A 
ATOM     29  C   UNL     1       4.793  -2.564  -6.231  0.00  0.00    +0.038 A 
ATOM     30  C   UNL     1       3.796  -3.011  -5.384  0.00  0.00    +0.008 A 
ATOM     31  F   UNL     1       5.658  -0.885  -7.662  0.00  0.00    -0.205 F 
ENDBRANCH  24  25
ENDBRANCH  22  24
ENDBRANCH   7  20
BRANCH   7  32
ATOM     32  O   UNL     1       0.304  -2.680   0.394  0.00  0.00    -0.360 OA
ATOM     33  H   UNL     1      -0.587  -2.414   0.129  0.00  0.00    +0.213 HD
ENDBRANCH   7  32
TORSDOF 5
