REMARK  Name = ZINC09672035
REMARK  11 active torsions:
REMARK  status: ('A' for Active; 'I' for Inactive)
REMARK    1  A    between atoms: C_1  and  C_2
REMARK    2  A    between atoms: C_2  and  C_3
REMARK    3  A    between atoms: C_2  and  C_4
REMARK    4  A    between atoms: C_4  and  N_5
REMARK    5  A    between atoms: N_5  and  C_6
REMARK    6  A    between atoms: C_7  and  N_22
REMARK    7  A    between atoms: N_8  and  C_15
REMARK    8  A    between atoms: C_15  and  C_16
REMARK    9  A    between atoms: C_23  and  C_25
REMARK   10  A    between atoms: C_25  and  N_65
REMARK   11  A    between atoms: C_29  and  C_31
REMARK                            x       y       z     vdW  Elec       q    Type
REMARK                         _______ _______ _______ _____ _____    ______ ____
ROOT
ATOM      1  N   UNL     1       3.968   2.747  -4.462  0.00  0.00    -0.266 N 
ATOM      2  C   UNL     1       3.734   2.668  -3.135  0.00  0.00    +0.203 C 
ATOM      3  O   UNL     1       3.805   3.664  -2.446  0.00  0.00    -0.277 OA
ENDROOT
BRANCH   1   4
ATOM      4  C   UNL     1       4.400   3.964  -5.031  0.00  0.00    +0.140 A 
ATOM      5  C   UNL     1       3.631   4.607  -5.979  0.00  0.00    +0.128 A 
ATOM      6  N   UNL     1       4.079   5.793  -6.514  0.00  0.00    -0.276 N 
ATOM      7  C   UNL     1       5.252   6.318  -6.119  0.00  0.00    +0.331 A 
ATOM      8  O   UNL     1       5.631   7.367  -6.605  0.00  0.00    -0.246 OA
ATOM      9  N   UNL     1       6.015   5.705  -5.197  0.00  0.00    -0.273 N 
ATOM     10  H   UNL     1       6.885   6.115  -4.923  0.00  0.00    +0.173 HD
ATOM     11  C   UNL     1       5.620   4.545  -4.637  0.00  0.00    +0.277 A 
ATOM     12  O   UNL     1       6.317   4.000  -3.797  0.00  0.00    -0.266 OA
BRANCH   5  13
ATOM     13  N   UNL     1       2.432   4.071  -6.382  0.00  0.00    -0.343 N 
ATOM     14  H   UNL     1       2.076   3.287  -5.934  0.00  0.00    +0.144 HD
ATOM     15  H   UNL     1       1.942   4.476  -7.115  0.00  0.00    +0.144 HD
ENDBRANCH   5  13
BRANCH   6  16
ATOM     16  C   UNL     1       3.273   6.487  -7.522  0.00  0.00    +0.163 C 
BRANCH  16  17
ATOM     17  C   UNL     1       2.328   7.442  -6.839  0.00  0.00    -0.028 A 
ATOM     18  C   UNL     1       1.067   7.017  -6.465  0.00  0.00    +0.005 A 
ATOM     19  C   UNL     1       0.202   7.892  -5.833  0.00  0.00    +0.000 A 
ATOM     20  C   UNL     1       0.595   9.194  -5.586  0.00  0.00    +0.000 A 
ATOM     21  C   UNL     1       1.854   9.620  -5.965  0.00  0.00    +0.000 A 
ATOM     22  C   UNL     1       2.721   8.744  -6.591  0.00  0.00    +0.005 A 
ENDBRANCH  16  17
ENDBRANCH   6  16
ENDBRANCH   1   4
BRANCH   1  23
ATOM     23  C   UNL     1       3.774   1.569  -5.312  0.00  0.00    +0.117 C 
BRANCH  23  25
ATOM     24  C   UNL     1       4.776  -0.602  -6.035  0.00  0.00    +0.009 C 
ATOM     25  C   UNL     1       5.034   0.703  -5.279  0.00  0.00    +0.001 C 
ATOM     26  C   UNL     1       6.189   1.456  -5.941  0.00  0.00    +0.009 C 
ENDBRANCH  23  25
ENDBRANCH   1  23
BRANCH   2  27
ATOM     27  C   UNL     1       3.385   1.342  -2.510  0.00  0.00    +0.020 C 
BRANCH  27  32
ATOM     28  C   UNL     1       4.656   1.615  -0.451  0.00  0.00    -0.077 C 
ATOM     29  C   UNL     1       4.460   1.228   1.030  0.00  0.00    -0.020 C 
ATOM     30  C   UNL     1       3.193   0.349   1.051  0.00  0.00    -0.012 C 
ATOM     31  C   UNL     1       2.729   0.279  -0.419  0.00  0.00    -0.030 C 
ATOM     32  N   UNL     1       3.317   1.481  -1.021  0.00  0.00    +0.390 N 
ATOM     33  H   UNL     1       2.752   2.305  -0.785  0.00  0.00    -0.080 HD
BRANCH  31  34
ATOM     34  C   UNL     1       1.224   0.305  -0.498  0.00  0.00    -0.024 A 
ATOM     35  C   UNL     1       0.362  -0.722  -0.695  0.00  0.00    +0.009 A 
ATOM     36  C   UNL     1      -0.995  -0.460  -0.737  0.00  0.00    +0.008 A 
ATOM     37  C   UNL     1      -1.423   0.815  -0.568  0.00  0.00    +0.045 A 
ATOM     38  S   UNL     1       0.115   1.697  -0.355  0.00  0.00    -0.103 S 
ENDBRANCH  31  34
ENDBRANCH  27  32
ENDBRANCH   2  27
TORSDOF 9
