REMARK  Name = ZINC35100485
REMARK  14 active torsions:
REMARK  status: ('A' for Active; 'I' for Inactive)
REMARK    1  A    between atoms: C_1  and  C_2
REMARK    2  A    between atoms: C_5  and  C_11
REMARK    3  A    between atoms: C_7  and  N_8
REMARK    4  A    between atoms: N_13  and  C_14
REMARK    5  A    between atoms: N_13  and  C_19
REMARK    6  A    between atoms: C_14  and  C_15
REMARK    7  A    between atoms: C_15  and  N_16
REMARK    8  A    between atoms: N_16  and  C_17
REMARK    9  A    between atoms: N_16  and  C_18
REMARK   10  A    between atoms: C_19  and  C_20
REMARK   11  A    between atoms: C_27  and  O_34
REMARK   12  A    between atoms: C_28  and  O_32
REMARK   13  A    between atoms: O_32  and  C_33
REMARK   14  A    between atoms: O_34  and  C_35
REMARK                            x       y       z     vdW  Elec       q    Type
REMARK                         _______ _______ _______ _____ _____    ______ ____
ROOT
ATOM      1  C   UNL     1      -0.335  -4.001   0.163  0.00  0.00    +0.247 C 
ATOM      2  O   UNL     1      -0.585  -2.821   0.311  0.00  0.00    -0.270 OA
ATOM      3  N   UNL     1      -0.435  -4.563  -1.058  0.00  0.00    -0.290 N 
ENDROOT
BRANCH   1   8
ATOM      4  C   UNL     1       1.273  -7.191   4.675  0.00  0.00    +0.046 C 
ATOM      5  C   UNL     1       0.852  -6.356   3.494  0.00  0.00    -0.020 A 
ATOM      6  C   UNL     1      -0.066  -6.857   2.588  0.00  0.00    +0.006 A 
ATOM      7  C   UNL     1      -0.456  -6.098   1.504  0.00  0.00    +0.013 A 
ATOM      8  C   UNL     1       0.078  -4.821   1.323  0.00  0.00    +0.039 A 
ATOM      9  C   UNL     1       1.003  -4.321   2.240  0.00  0.00    +0.046 A 
ATOM     10  C   UNL     1       1.380  -5.089   3.323  0.00  0.00    +0.130 A 
BRANCH  10  11
ATOM     11  N   UNL     1       2.357  -4.558   4.300  0.00  0.00    +0.057 N 
ATOM     12  O   UNL     1       2.221  -4.792   5.478  0.00  0.00    -0.126 OA
ATOM     13  O   UNL     1       3.290  -3.889   3.920  0.00  0.00    -0.126 OA
ENDBRANCH  10  11
ENDBRANCH   1   8
BRANCH   3  14
ATOM     14  C   UNL     1      -0.893  -3.764  -2.197  0.00  0.00    +0.090 C 
BRANCH  14  15
ATOM     15  C   UNL     1       0.317  -3.189  -2.936  0.00  0.00    -0.060 C 
BRANCH  15  16
ATOM     16  N   UNL     1      -0.143  -2.388  -4.078  0.00  0.00    +0.377 N 
ATOM     17  C   UNL     1       1.010  -1.738  -4.716  0.00  0.00    -0.097 C 
ATOM     18  C   UNL     1      -0.814  -3.261  -5.051  0.00  0.00    -0.097 C 
ATOM     19  H   UNL     1      -0.790  -1.683  -3.756  0.00  0.00    -0.083 HD
ENDBRANCH  15  16
ENDBRANCH  14  15
ENDBRANCH   3  14
BRANCH   3  20
ATOM     20  C   UNL     1      -0.085  -5.973  -1.246  0.00  0.00    +0.203 C 
BRANCH  20  21
ATOM     21  C   UNL     1      -1.340  -6.806  -1.250  0.00  0.00    +0.233 C 
ATOM     22  O   UNL     1      -2.421  -6.275  -1.111  0.00  0.00    -0.274 OA
ATOM     23  N   UNL     1      -1.262  -8.142  -1.410  0.00  0.00    -0.296 N 
ATOM     24  C   UNL     1      -2.470  -8.984  -1.426  0.00  0.00    +0.113 C 
ATOM     25  C   UNL     1      -2.585  -9.615  -2.813  0.00  0.00    +0.054 C 
ATOM     26  C   UNL     1      -1.267 -10.204  -3.244  0.00  0.00    -0.038 A 
ATOM     27  C   UNL     1      -1.292 -11.165  -4.249  0.00  0.00    +0.053 A 
ATOM     28  C   UNL     1      -0.120 -11.740  -4.702  0.00  0.00    +0.162 A 
ATOM     29  C   UNL     1       1.097 -11.354  -4.146  0.00  0.00    +0.162 A 
ATOM     30  C   UNL     1       1.117 -10.401  -3.145  0.00  0.00    +0.054 A 
ATOM     31  C   UNL     1      -0.064  -9.829  -2.690  0.00  0.00    -0.023 A 
ATOM     32  C   UNL     1       0.030  -8.816  -1.582  0.00  0.00    +0.143 C 
BRANCH  29  33
ATOM     33  O   UNL     1       2.257 -11.910  -4.586  0.00  0.00    -0.491 OA
ATOM     34  C   UNL     1       3.466 -11.463  -3.968  0.00  0.00    +0.277 C 
ENDBRANCH  29  33
BRANCH  28  35
ATOM     35  O   UNL     1      -0.155 -12.681  -5.684  0.00  0.00    -0.491 OA
ATOM     36  C   UNL     1      -1.439 -13.027  -6.205  0.00  0.00    +0.277 C 
ENDBRANCH  28  35
ENDBRANCH  20  21
ENDBRANCH   3  20
TORSDOF 9
