REMARK  Name = ZINC63374431
REMARK  8 active torsions:
REMARK  status: ('A' for Active; 'I' for Inactive)
REMARK    1  A    between atoms: C_1  and  C_2
REMARK    2  A    between atoms: C_2  and  O_3
REMARK    3  A    between atoms: O_3  and  C_4
REMARK    4  A    between atoms: C_9  and  N_10
REMARK    5  A    between atoms: C_13  and  C_38
REMARK    6  A    between atoms: C_24  and  C_30
REMARK    7  A    between atoms: C_35  and  O_36
REMARK    8  A    between atoms: O_36  and  C_37
REMARK                            x       y       z     vdW  Elec       q    Type
REMARK                         _______ _______ _______ _____ _____    ______ ____
ROOT
ATOM      1  N   UNL     1      -3.904  -1.564   0.031  0.00  0.00    -0.189 N 
ATOM      2  C   UNL     1      -4.526  -1.111  -1.077  0.00  0.00    +0.253 C 
ATOM      3  O   UNL     1      -4.212  -1.319  -2.229  0.00  0.00    -0.272 OA
ATOM      4  C   UNL     1      -5.698  -0.290  -0.584  0.00  0.00    +0.137 C 
ATOM      5  C   UNL     1      -5.551   1.166  -1.041  0.00  0.00    +0.139 C 
ATOM      6  C   UNL     1      -6.404   2.003  -0.096  0.00  0.00    -0.027 C 
ATOM      7  C   UNL     1      -7.274   2.659  -0.859  0.00  0.00    -0.000 A 
ATOM      8  C   UNL     1      -8.305   3.656  -0.530  0.00  0.00    +0.010 A 
ATOM      9  C   UNL     1      -9.039   4.125  -1.573  0.00  0.00    +0.001 A 
ATOM     10  C   UNL     1      -8.852   3.708  -2.895  0.00  0.00    +0.002 A 
ATOM     11  C   UNL     1      -7.925   2.799  -3.288  0.00  0.00    +0.026 A 
ATOM     12  C   UNL     1      -7.088   2.236  -2.280  0.00  0.00    +0.043 A 
ATOM     13  N   UNL     1      -6.113   1.364  -2.380  0.00  0.00    -0.375 N 
ATOM     14  C   UNL     1      -6.255   1.968   1.405  0.00  0.00    +0.069 C 
ATOM     15  C   UNL     1      -6.317   0.488   1.833  0.00  0.00    +0.123 C 
ATOM     16  N   UNL     1      -5.521  -0.298   0.886  0.00  0.00    -0.268 N 
ATOM     17  C   UNL     1      -4.498  -1.122   1.147  0.00  0.00    +0.317 C 
ATOM     18  O   UNL     1      -4.146  -1.431   2.269  0.00  0.00    -0.252 OA
ATOM     19  C   UNL     1      -7.038  -0.898  -1.003  0.00  0.00    +0.044 C 
ATOM     20  H   UNL     1      -5.814   0.924  -3.191  0.00  0.00    +0.160 HD
ENDROOT
BRANCH   1  26
ATOM     21  C   UNL     1      -1.498  -1.849   0.006  0.00  0.00    +0.142 A 
ATOM     22  C   UNL     1      -0.389  -2.679  -0.003  0.00  0.00    +0.047 A 
ATOM     23  C   UNL     1      -0.553  -4.052  -0.009  0.00  0.00    +0.004 A 
ATOM     24  C   UNL     1      -1.823  -4.600  -0.005  0.00  0.00    +0.002 A 
ATOM     25  C   UNL     1      -2.934  -3.778   0.004  0.00  0.00    +0.028 A 
ATOM     26  C   UNL     1      -2.777  -2.400   0.016  0.00  0.00    +0.087 A 
BRANCH  21  27
ATOM     27  O   UNL     1      -1.339  -0.499   0.012  0.00  0.00    -0.490 OA
BRANCH  27  29
ATOM     28  C   UNL     1      -0.019   1.526   0.010  0.00  0.00    +0.048 C 
ATOM     29  C   UNL     1       0.002  -0.004   0.002  0.00  0.00    +0.226 C 
ENDBRANCH  27  29
ENDBRANCH  21  27
ENDBRANCH   1  26
BRANCH  14  30
ATOM     30  C   UNL     1      -7.378   2.738   2.051  0.00  0.00    +0.003 A 
ATOM     31  C   UNL     1      -8.688   2.351   1.849  0.00  0.00    +0.008 A 
ATOM     32  C   UNL     1      -9.719   3.058   2.440  0.00  0.00    +0.001 A 
ATOM     33  C   UNL     1      -9.441   4.153   3.237  0.00  0.00    +0.004 A 
ATOM     34  C   UNL     1      -8.132   4.544   3.443  0.00  0.00    +0.046 A 
ATOM     35  C   UNL     1      -7.096   3.833   2.855  0.00  0.00    +0.124 A 
BRANCH  35  36
ATOM     36  O   UNL     1      -5.807   4.212   3.061  0.00  0.00    -0.495 OA
ATOM     37  C   UNL     1      -5.591   5.349   3.899  0.00  0.00    +0.277 C 
ENDBRANCH  35  36
ENDBRANCH  14  30
TORSDOF 5
