REMARK  Name = ZINC24986970
REMARK  7 active torsions:
REMARK  status: ('A' for Active; 'I' for Inactive)
REMARK    1  A    between atoms: C_1  and  C_2
REMARK    2  A    between atoms: C_5  and  C_9
REMARK    3  A    between atoms: C_7  and  C_8
REMARK    4  A    between atoms: N_11  and  C_12
REMARK    5  A    between atoms: C_12  and  C_14
REMARK    6  A    between atoms: C_12  and  C_21
REMARK    7  A    between atoms: C_14  and  C_15
REMARK                            x       y       z     vdW  Elec       q    Type
REMARK                         _______ _______ _______ _____ _____    ______ ____
ROOT
ATOM      1  C   UNL     1       0.045  -6.449  -1.182  0.00  0.00    +0.164 C 
ENDROOT
BRANCH   1   2
ATOM      2  C   UNL     1      -0.549  -7.019  -2.444  0.00  0.00    +0.236 C 
ATOM      3  O   UNL     1      -0.404  -6.439  -3.499  0.00  0.00    -0.274 OA
ATOM      4  N   UNL     1      -1.241  -8.175  -2.400  0.00  0.00    -0.300 N 
ATOM      5  C   UNL     1      -1.518  -8.833  -1.116  0.00  0.00    +0.110 C 
ATOM      6  C   UNL     1      -1.030 -10.284  -1.191  0.00  0.00    +0.047 C 
ATOM      7  C   UNL     1      -1.663 -10.970  -2.401  0.00  0.00    +0.064 C 
ATOM      8  C   UNL     1      -1.243 -10.251  -3.683  0.00  0.00    +0.047 C 
ATOM      9  C   UNL     1      -1.738  -8.797  -3.635  0.00  0.00    +0.110 C 
ATOM     10  C   UNL     1      -1.225 -12.409  -2.457  0.00  0.00    +0.057 A 
ATOM     11  C   UNL     1      -2.010 -13.447  -2.086  0.00  0.00    +0.039 A 
ATOM     12  N   UNL     1      -1.317 -14.572  -2.262  0.00  0.00    -0.349 N 
ATOM     13  C   UNL     1      -0.130 -14.275  -2.727  0.00  0.00    +0.171 A 
ATOM     14  N   UNL     1      -0.037 -12.931  -2.861  0.00  0.00    -0.348 N 
ATOM     15  H   UNL     1       0.732 -12.435  -3.183  0.00  0.00    +0.166 HD
ATOM     16  C   UNL     1      -3.417 -13.270  -1.570  0.00  0.00    +0.070 C 
ATOM     17  C   UNL     1      -3.595 -11.796  -1.180  0.00  0.00    +0.088 C 
ATOM     18  N   UNL     1      -3.130 -10.934  -2.275  0.00  0.00    -0.305 NA
ATOM     19  H   UNL     1      -3.459  -9.988  -2.155  0.00  0.00    +0.123 HD
ATOM     20  H   UNL     1      -1.641 -15.467  -2.076  0.00  0.00    +0.166 HD
ENDBRANCH   1   2
BRANCH   1  23
ATOM     21  C   UNL     1       0.259  -4.206  -0.254  0.00  0.00    +0.245 C 
ATOM     22  O   UNL     1       0.128  -4.684   0.856  0.00  0.00    -0.270 OA
ATOM     23  N   UNL     1       0.232  -5.004  -1.340  0.00  0.00    -0.300 N 
ATOM     24  H   UNL     1       0.336  -4.622  -2.225  0.00  0.00    +0.150 HD
BRANCH  21  29
ATOM     25  C   UNL     1       0.991   1.468  -0.875  0.00  0.00    +0.044 C 
ATOM     26  C   UNL     1       0.799  -0.017  -0.712  0.00  0.00    -0.047 A 
ATOM     27  C   UNL     1       0.772  -0.835  -1.829  0.00  0.00    +0.004 A 
ATOM     28  C   UNL     1       0.597  -2.195  -1.687  0.00  0.00    +0.013 A 
ATOM     29  C   UNL     1       0.447  -2.748  -0.414  0.00  0.00    +0.037 A 
ATOM     30  C   UNL     1       0.475  -1.918   0.708  0.00  0.00    +0.016 A 
ATOM     31  C   UNL     1       0.656  -0.559   0.553  0.00  0.00    -0.047 A 
ATOM     32  C   UNL     1       0.693   0.338   1.763  0.00  0.00    +0.044 C 
ENDBRANCH  21  29
ENDBRANCH   1  23
BRANCH   1  33
ATOM     33  C   UNL     1       1.397  -7.111  -0.910  0.00  0.00    +0.067 C 
BRANCH  33  34
ATOM     34  C   UNL     1       1.923  -6.650   0.425  0.00  0.00    -0.045 A 
ATOM     35  C   UNL     1       2.715  -5.520   0.503  0.00  0.00    +0.004 A 
ATOM     36  C   UNL     1       3.198  -5.096   1.727  0.00  0.00    +0.000 A 
ATOM     37  C   UNL     1       2.887  -5.803   2.874  0.00  0.00    +0.000 A 
ATOM     38  C   UNL     1       2.094  -6.932   2.796  0.00  0.00    +0.000 A 
ATOM     39  C   UNL     1       1.608  -7.353   1.573  0.00  0.00    +0.004 A 
ENDBRANCH  33  34
ENDBRANCH   1  33
TORSDOF 5
