REMARK  Name = ZINC64058420
REMARK  8 active torsions:
REMARK  status: ('A' for Active; 'I' for Inactive)
REMARK    1  A    between atoms: C_1  and  N_2
REMARK    2  A    between atoms: C_6  and  C_9
REMARK    3  A    between atoms: C_6  and  C_26
REMARK    4  A    between atoms: C_9  and  C_10
REMARK    5  A    between atoms: N_12  and  C_13
REMARK    6  A    between atoms: N_12  and  C_14
REMARK    7  A    between atoms: C_14  and  C_15
REMARK    8  A    between atoms: C_29  and  C_32
REMARK                            x       y       z     vdW  Elec       q    Type
REMARK                         _______ _______ _______ _____ _____    ______ ____
ROOT
ATOM      1  C   UNL     1       0.191   0.998  -0.750  0.00  0.00    +0.141 C 
ATOM      2  N   UNL     1       0.206  -0.427  -0.412  0.00  0.00    -0.245 N 
ATOM      3  C   UNL     1       0.389  -1.387  -1.328  0.00  0.00    +0.223 C 
ATOM      4  O   UNL     1       0.559  -1.202  -2.514  0.00  0.00    -0.275 OA
ATOM      5  C   UNL     1       0.348  -2.738  -0.648  0.00  0.00    +0.117 C 
ATOM      6  C   UNL     1       0.108  -2.389   0.835  0.00  0.00    +0.089 C 
ATOM      7  C   UNL     1       0.044  -0.878   0.838  0.00  0.00    +0.233 C 
ATOM      8  O   UNL     1      -0.130  -0.184   1.817  0.00  0.00    -0.274 OA
ENDROOT
BRANCH   6   9
ATOM      9  C   UNL     1      -1.192  -2.982   1.315  0.00  0.00    -0.031 A 
ATOM     10  C   UNL     1      -1.181  -4.004   2.247  0.00  0.00    +0.005 A 
ATOM     11  C   UNL     1      -2.368  -4.550   2.691  0.00  0.00    +0.009 A 
ATOM     12  C   UNL     1      -3.580  -4.069   2.198  0.00  0.00    -0.018 A 
ATOM     13  C   UNL     1      -3.585  -3.039   1.260  0.00  0.00    +0.009 A 
ATOM     14  C   UNL     1      -2.392  -2.497   0.827  0.00  0.00    +0.005 A 
BRANCH  12  15
ATOM     15  C   UNL     1      -4.860  -4.653   2.670  0.00  0.00    -0.018 A 
ATOM     16  C   UNL     1      -4.854  -5.679   3.613  0.00  0.00    +0.008 A 
ATOM     17  C   UNL     1      -6.048  -6.218   4.049  0.00  0.00    +0.001 A 
ATOM     18  C   UNL     1      -7.248  -5.741   3.552  0.00  0.00    +0.000 A 
ATOM     19  C   UNL     1      -7.258  -4.722   2.616  0.00  0.00    +0.001 A 
ATOM     20  C   UNL     1      -6.071  -4.172   2.178  0.00  0.00    +0.008 A 
ENDBRANCH  12  15
ENDBRANCH   6   9
BRANCH   6  21
ATOM     21  C   UNL     1       1.274  -2.875   1.698  0.00  0.00    +0.117 C 
BRANCH  21  22
ATOM     22  C   UNL     1       1.090  -2.389   3.112  0.00  0.00    +0.217 C 
ATOM     23  O   UNL     1       0.061  -1.831   3.433  0.00  0.00    -0.276 OA
ATOM     24  N   UNL     1       2.068  -2.572   4.021  0.00  0.00    -0.301 N 
ATOM     25  C   UNL     1       1.925  -2.022   5.372  0.00  0.00    +0.132 C 
BRANCH  24  26
ATOM     26  C   UNL     1       3.273  -3.322   3.659  0.00  0.00    +0.154 C 
BRANCH  26  27
ATOM     27  C   UNL     1       4.380  -2.344   3.260  0.00  0.00    +0.192 C 
ATOM     28  N   UNL     1       3.882  -1.404   2.248  0.00  0.00    -0.362 N 
ATOM     29  C   UNL     1       3.977  -0.206   2.748  0.00  0.00    +0.060 A 
ATOM     30  C   UNL     1       3.641   1.125   2.221  0.00  0.00    +0.030 A 
ATOM     31  C   UNL     1       3.853   2.215   2.983  0.00  0.00    +0.040 A 
ATOM     32  C   UNL     1       4.391   2.138   4.284  0.00  0.00    +0.125 A 
ATOM     33  C   UNL     1       4.733   0.965   4.861  0.00  0.00    +0.065 A 
ATOM     34  C   UNL     1       4.545  -0.288   4.121  0.00  0.00    +0.063 A 
ATOM     35  N   UNL     1       4.781  -1.536   4.418  0.00  0.00    -0.362 N 
ATOM     36  F   UNL     1       4.572   3.282   4.980  0.00  0.00    -0.205 F 
ATOM     37  H   UNL     1       3.544  -1.634   1.369  0.00  0.00    +0.162 HD
ATOM     38  H   UNL     1       5.152  -1.868   5.250  0.00  0.00    +0.162 HD
ENDBRANCH  26  27
ENDBRANCH  24  26
ENDBRANCH  21  22
ENDBRANCH   6  21
TORSDOF 6
