REMARK  Name = ZINC39657789
REMARK  8 active torsions:
REMARK  status: ('A' for Active; 'I' for Inactive)
REMARK    1  A    between atoms: C_4  and  S_30
REMARK    2  A    between atoms: C_5  and  C_7
REMARK    3  A    between atoms: C_7  and  N_8
REMARK    4  A    between atoms: C_9  and  C_11
REMARK    5  A    between atoms: C_22  and  C_24
REMARK    6  A    between atoms: S_30  and  C_31
REMARK    7  A    between atoms: C_36  and  C_37
REMARK    8  A    between atoms: C_37  and  O_38
REMARK                            x       y       z     vdW  Elec       q    Type
REMARK                         _______ _______ _______ _____ _____    ______ ____
ROOT
ATOM      1  N   UNL     1       0.378  -3.870   1.156  0.00  0.00    -0.311 N 
ATOM      2  C   UNL     1       1.676  -4.007   1.492  0.00  0.00    +0.218 C 
ATOM      3  O   UNL     1       2.542  -3.761   0.679  0.00  0.00    -0.275 OA
ATOM      4  H   UNL     1      -0.314  -4.066   1.806  0.00  0.00    +0.149 HD
ENDROOT
BRANCH   2   5
ATOM      5  C   UNL     1       2.052  -4.465   2.877  0.00  0.00    +0.100 C 
ATOM      6  C   UNL     1       3.419  -3.874   3.288  0.00  0.00    +0.121 C 
ATOM      7  N   UNL     1       4.081  -4.957   4.053  0.00  0.00    -0.300 N 
ATOM      8  C   UNL     1       3.727  -6.196   3.321  0.00  0.00    +0.115 C 
ATOM      9  C   UNL     1       2.258  -5.989   2.899  0.00  0.00    -0.004 C 
ATOM     10  C   UNL     1       2.021  -6.575   1.511  0.00  0.00    -0.010 C 
ATOM     11  C   UNL     1       2.174  -8.097   1.570  0.00  0.00    -0.082 C 
ATOM     12  N   UNL     1       1.210  -8.651   2.528  0.00  0.00    +0.379 N 
ATOM     13  C   UNL     1       1.503  -8.155   3.878  0.00  0.00    -0.082 C 
ATOM     14  C   UNL     1       1.321  -6.635   3.916  0.00  0.00    -0.010 C 
ATOM     15  C   UNL     1       4.834  -4.841   5.165  0.00  0.00    +0.219 C 
ATOM     16  O   UNL     1       5.311  -5.830   5.680  0.00  0.00    -0.275 OA
ATOM     17  H   UNL     1       0.277  -8.371   2.264  0.00  0.00    -0.086 HD
ATOM     18  H   UNL     1       1.271  -9.658   2.521  0.00  0.00    -0.086 HD
BRANCH  15  19
ATOM     19  C   UNL     1       5.083  -3.482   5.768  0.00  0.00    +0.079 C 
ATOM     20  C   UNL     1       5.804  -2.594   4.750  0.00  0.00    +0.041 C 
ATOM     21  C   UNL     1       6.122  -1.244   5.398  0.00  0.00    +0.160 C 
ATOM     22  O   UNL     1       6.916  -1.454   6.568  0.00  0.00    -0.380 OA
ATOM     23  C   UNL     1       6.274  -2.239   7.575  0.00  0.00    +0.160 C 
ATOM     24  C   UNL     1       5.961  -3.629   7.015  0.00  0.00    +0.041 C 
ENDBRANCH  15  19
ENDBRANCH   2   5
BRANCH   1  25
ATOM     25  C   UNL     1       0.013  -3.424  -0.191  0.00  0.00    +0.140 C 
BRANCH  25  30
ATOM     26  C   UNL     1      -3.559  -4.313  -1.030  0.00  0.00    +0.000 A 
ATOM     27  C   UNL     1      -4.246  -3.224  -0.522  0.00  0.00    +0.001 A 
ATOM     28  C   UNL     1      -3.558  -2.198   0.094  0.00  0.00    +0.015 A 
ATOM     29  C   UNL     1      -2.174  -2.259   0.203  0.00  0.00    +0.017 A 
ATOM     30  C   UNL     1      -1.488  -3.353  -0.307  0.00  0.00    -0.017 A 
ATOM     31  C   UNL     1      -2.182  -4.377  -0.922  0.00  0.00    +0.006 A 
BRANCH  29  32
ATOM     32  S   UNL     1      -1.292  -0.950   0.988  0.00  0.00    -0.089 S 
BRANCH  32  33
ATOM     33  C   UNL     1      -2.527   0.266   1.306  0.00  0.00    +0.018 A 
ATOM     34  C   UNL     1      -3.032   0.426   2.591  0.00  0.00    +0.015 A 
ATOM     35  C   UNL     1      -3.999   1.380   2.836  0.00  0.00    +0.001 A 
ATOM     36  C   UNL     1      -4.466   2.176   1.805  0.00  0.00    +0.000 A 
ATOM     37  C   UNL     1      -3.966   2.019   0.526  0.00  0.00    +0.007 A 
ATOM     38  C   UNL     1      -2.994   1.070   0.274  0.00  0.00    -0.008 A 
BRANCH  38  39
ATOM     39  C   UNL     1      -2.446   0.904  -1.120  0.00  0.00    +0.192 C 
BRANCH  39  40
ATOM     40  O   UNL     1      -3.079   1.838  -1.996  0.00  0.00    -0.390 OA
ATOM     41  H   UNL     1      -2.774   1.788  -2.912  0.00  0.00    +0.210 HD
ENDBRANCH  39  40
ENDBRANCH  38  39
ENDBRANCH  32  33
ENDBRANCH  29  32
ENDBRANCH  25  30
ENDBRANCH   1  25
TORSDOF 8
