REMARK  Name = ZINC64612676
REMARK  8 active torsions:
REMARK  status: ('A' for Active; 'I' for Inactive)
REMARK    1  A    between atoms: C_1  and  O_2
REMARK    2  A    between atoms: O_2  and  C_3
REMARK    3  A    between atoms: C_6  and  C_9
REMARK    4  A    between atoms: C_9  and  N_10
REMARK    5  A    between atoms: N_10  and  S_11
REMARK    6  A    between atoms: S_11  and  C_14
REMARK    7  A    between atoms: C_17  and  C_19
REMARK    8  A    between atoms: C_23  and  C_26
REMARK                            x       y       z     vdW  Elec       q    Type
REMARK                         _______ _______ _______ _____ _____    ______ ____
ROOT
ATOM      1  C   UNL     1       3.343  -3.154   7.499  0.00  0.00    +0.106 C 
ATOM      2  C   UNL     1       4.617  -3.530   7.457  0.00  0.00    +0.135 C 
ATOM      3  N   UNL     1       5.400  -2.783   8.270  0.00  0.00    -0.258 NA
ATOM      4  C   UNL     1       4.752  -1.869   8.909  0.00  0.00    +0.069 C 
ATOM      5  C   UNL     1       3.304  -1.993   8.475  0.00  0.00    +0.112 C 
ENDROOT
BRANCH   4   6
ATOM      6  C   UNL     1       5.321  -0.873   9.887  0.00  0.00    +0.248 C 
ATOM      7  N   UNL     1       6.559  -1.413  10.495  0.00  0.00    -0.222 NA
ATOM      8  N   UNL     1       6.484  -0.962  11.895  0.00  0.00    -0.223 NA
ATOM      9  C   UNL     1       5.029  -1.056  12.181  0.00  0.00    +0.233 C 
ATOM     10  O   UNL     1       4.388  -0.647  10.954  0.00  0.00    -0.332 OA
ATOM     11  H   UNL     1       7.378  -1.042  10.038  0.00  0.00    +0.144 HD
ATOM     12  H   UNL     1       7.012  -1.572  12.500  0.00  0.00    +0.144 HD
BRANCH   9  13
ATOM     13  C   UNL     1       4.653  -0.125  13.305  0.00  0.00    -0.003 A 
ATOM     14  C   UNL     1       5.358   1.049  13.495  0.00  0.00    +0.007 A 
ATOM     15  C   UNL     1       5.013   1.903  14.526  0.00  0.00    +0.000 A 
ATOM     16  C   UNL     1       3.964   1.584  15.366  0.00  0.00    +0.000 A 
ATOM     17  C   UNL     1       3.258   0.410  15.176  0.00  0.00    +0.000 A 
ATOM     18  C   UNL     1       3.600  -0.442  14.143  0.00  0.00    +0.007 A 
ENDBRANCH   9  13
ENDBRANCH   4   6
BRANCH   1  19
ATOM     19  S   UNL     1       1.992  -3.849   6.607  0.00  0.00    +0.057 S 
ATOM     20  O   UNL     1       0.879  -3.852   7.492  0.00  0.00    -0.153 OA
ATOM     21  O   UNL     1       2.478  -5.033   5.990  0.00  0.00    -0.153 OA
BRANCH  19  22
ATOM     22  N   UNL     1       1.620  -2.797   5.383  0.00  0.00    -0.186 NA
ATOM     23  H   UNL     1       0.762  -2.344   5.377  0.00  0.00    +0.148 HD
BRANCH  22  24
ATOM     24  C   UNL     1       2.587  -2.550   4.310  0.00  0.00    +0.141 C 
BRANCH  24  28
ATOM     25  C   UNL     1       0.626  -0.618   1.042  0.00  0.00    +0.120 A 
ATOM     26  C   UNL     1       1.202   0.138   2.051  0.00  0.00    +0.046 A 
ATOM     27  C   UNL     1       1.835  -0.488   3.107  0.00  0.00    +0.008 A 
ATOM     28  C   UNL     1       1.895  -1.869   3.158  0.00  0.00    -0.032 A 
ATOM     29  C   UNL     1       1.322  -2.625   2.152  0.00  0.00    +0.008 A 
ATOM     30  C   UNL     1       0.682  -2.003   1.098  0.00  0.00    +0.046 A 
BRANCH  25  32
ATOM     31  C   UNL     1      -0.017   1.425   0.010  0.00  0.00    +0.277 C 
ATOM     32  O   UNL     1       0.002  -0.004   0.002  0.00  0.00    -0.495 OA
ENDBRANCH  25  32
ENDBRANCH  24  28
ENDBRANCH  22  24
ENDBRANCH  19  22
ENDBRANCH   1  19
TORSDOF 7
