REMARK  Name = ZINC66893205
REMARK  5 active torsions:
REMARK  status: ('A' for Active; 'I' for Inactive)
REMARK    1  A    between atoms: C_1  and  C_2
REMARK    2  A    between atoms: C_8  and  N_10
REMARK    3  A    between atoms: C_14  and  C_16
REMARK    4  A    between atoms: C_16  and  N_17
REMARK    5  A    between atoms: C_22  and  C_24
REMARK                            x       y       z     vdW  Elec       q    Type
REMARK                         _______ _______ _______ _____ _____    ______ ____
ROOT
ATOM      1  C   UNL     1       6.157   1.244   3.518  0.00  0.00    +0.020 C 
ENDROOT
BRANCH   1   6
ATOM      2  N   UNL     1       2.019   0.358   1.239  0.00  0.00    -0.296 N 
ATOM      3  C   UNL     1       2.702   0.462   2.396  0.00  0.00    +0.306 C 
ATOM      4  O   UNL     1       2.137   0.267   3.454  0.00  0.00    -0.252 OA
ATOM      5  N   UNL     1       4.011   0.782   2.379  0.00  0.00    -0.242 N 
ATOM      6  C   UNL     1       4.694   0.886   3.537  0.00  0.00    +0.204 C 
ATOM      7  O   UNL     1       4.131   0.692   4.593  0.00  0.00    -0.277 OA
ATOM      8  H   UNL     1       2.469   0.514   0.394  0.00  0.00    +0.151 HD
ATOM      9  H   UNL     1       4.461   0.938   1.535  0.00  0.00    +0.159 HD
BRANCH   2  16
ATOM     10  C   UNL     1       0.076   2.064  -0.067  0.00  0.00    +0.009 C 
ATOM     11  C   UNL     1      -0.076   0.543  -0.011  0.00  0.00    +0.006 C 
ATOM     12  C   UNL     1      -1.562   0.179   0.008  0.00  0.00    +0.005 C 
ATOM     13  C   UNL     1      -1.714  -1.342   0.065  0.00  0.00    +0.000 C 
ATOM     14  C   UNL     1      -1.042  -1.875   1.332  0.00  0.00    +0.002 C 
ATOM     15  C   UNL     1       0.444  -1.512   1.313  0.00  0.00    +0.022 C 
ATOM     16  C   UNL     1       0.596   0.010   1.257  0.00  0.00    +0.077 C 
ENDBRANCH   2  16
ENDBRANCH   1   6
BRANCH   1  17
ATOM     17  N   UNL     1       6.667   1.294   4.895  0.00  0.00    +0.393 N 
ATOM     18  C   UNL     1       6.639  -0.054   5.474  0.00  0.00    -0.077 C 
ATOM     19  C   UNL     1       7.092   0.004   6.935  0.00  0.00    -0.019 C 
ATOM     20  C   UNL     1       8.518   0.560   6.999  0.00  0.00    -0.003 C 
ATOM     21  C   UNL     1       8.550   1.935   6.326  0.00  0.00    -0.006 C 
ATOM     22  C   UNL     1       8.043   1.804   4.888  0.00  0.00    +0.020 C 
ATOM     23  H   UNL     1       6.085   1.907   5.446  0.00  0.00    -0.080 HD
BRANCH  22  24
ATOM     24  C   UNL     1       8.073   3.155   4.221  0.00  0.00    +0.202 C 
ATOM     25  O   UNL     1       7.077   3.846   4.205  0.00  0.00    -0.277 OA
ATOM     26  N   UNL     1       9.208   3.596   3.643  0.00  0.00    -0.298 N 
ATOM     27  C   UNL     1      10.395   2.731   3.548  0.00  0.00    +0.136 C 
ATOM     28  C   UNL     1      10.888   2.743   2.096  0.00  0.00    +0.179 C 
ATOM     29  O   UNL     1      11.052   4.096   1.666  0.00  0.00    -0.377 OA
ATOM     30  C   UNL     1       9.842   4.858   1.657  0.00  0.00    +0.179 C 
ATOM     31  C   UNL     1       9.295   4.953   3.081  0.00  0.00    +0.136 C 
ENDBRANCH  22  24
ENDBRANCH   1  17
TORSDOF 4
