REMARK  Name = ZINC03551677
REMARK  12 active torsions:
REMARK  status: ('A' for Active; 'I' for Inactive)
REMARK    1  A    between atoms: C_1  and  C_2
REMARK    2  A    between atoms: C_2  and  O_3
REMARK    3  A    between atoms: O_3  and  C_4
REMARK    4  A    between atoms: C_4  and  C_6
REMARK    5  A    between atoms: C_10  and  N_11
REMARK    6  A    between atoms: C_12  and  C_14
REMARK    7  A    between atoms: C_14  and  C_16
REMARK    8  A    between atoms: C_14  and  O_17
REMARK    9  A    between atoms: O_17  and  C_18
REMARK   10  A    between atoms: C_18  and  C_20
REMARK   11  A    between atoms: C_23  and  N_26
REMARK   12  A    between atoms: C_32  and  C_36
REMARK                            x       y       z     vdW  Elec       q    Type
REMARK                         _______ _______ _______ _____ _____    ______ ____
ROOT
ATOM      1  N   UNL     1       4.695   1.369   0.798  0.00  0.00    -0.276 N 
ATOM      2  C   UNL     1       3.459   1.895   0.690  0.00  0.00    +0.258 C 
ATOM      3  O   UNL     1       3.223   2.989   1.159  0.00  0.00    -0.271 OA
ATOM      4  H   UNL     1       4.910   0.377   0.373  0.00  0.00    +0.155 HD
ENDROOT
BRANCH   1   9
ATOM      5  C   UNL     1       7.016   1.703   1.662  0.00  0.00    +0.091 A 
ATOM      6  C   UNL     1       7.870   2.639   2.373  0.00  0.00    -0.021 A 
ATOM      7  C   UNL     1       7.270   3.785   2.761  0.00  0.00    -0.004 A 
ATOM      8  S   UNL     1       5.601   3.638   2.189  0.00  0.00    -0.077 S 
ATOM      9  C   UNL     1       5.696   2.076   1.446  0.00  0.00    +0.086 A 
ATOM     10  C   UNL     1       7.894   4.922   3.510  0.00  0.00    +0.046 C 
ATOM     11  C   UNL     1       9.224   4.438   4.105  0.00  0.00    -0.009 C 
ATOM     12  C   UNL     1      10.016   3.709   3.015  0.00  0.00    +0.008 C 
ATOM     13  C   UNL     1       9.339   2.378   2.683  0.00  0.00    +0.037 C 
ATOM     14  C   UNL     1      10.027   5.638   4.611  0.00  0.00    +0.008 C 
BRANCH   5  15
ATOM     15  C   UNL     1       7.528   0.416   1.187  0.00  0.00    +0.342 C 
ATOM     16  O   UNL     1       8.018   0.329   0.076  0.00  0.00    -0.245 OA
BRANCH  15  17
ATOM     17  O   UNL     1       7.458  -0.672   1.980  0.00  0.00    -0.461 OA
BRANCH  17  19
ATOM     18  C   UNL     1       7.820  -3.028   2.480  0.00  0.00    +0.048 C 
ATOM     19  C   UNL     1       7.986  -1.914   1.444  0.00  0.00    +0.229 C 
ENDBRANCH  17  19
ENDBRANCH  15  17
ENDBRANCH   5  15
ENDBRANCH   1   9
BRANCH   2  20
ATOM     20  C   UNL     1       2.371   1.126  -0.015  0.00  0.00    +0.259 C 
ATOM     21  C   UNL     1       2.789   0.862  -1.462  0.00  0.00    +0.062 C 
BRANCH  20  22
ATOM     22  O   UNL     1       1.143   1.900   0.001  0.00  0.00    -0.449 OA
BRANCH  22  23
ATOM     23  C   UNL     1      -0.014   1.211   0.009  0.00  0.00    +0.340 C 
ATOM     24  O   UNL     1       0.002  -0.004   0.002  0.00  0.00    -0.245 OA
BRANCH  23  25
ATOM     25  C   UNL     1      -1.302   1.931   0.019  0.00  0.00    +0.059 A 
ATOM     26  C   UNL     1      -1.323   3.328   0.032  0.00  0.00    +0.017 A 
ATOM     27  C   UNL     1      -2.527   3.997   0.036  0.00  0.00    +0.029 A 
ATOM     28  C   UNL     1      -3.721   3.284   0.037  0.00  0.00    +0.069 A 
ATOM     29  C   UNL     1      -3.704   1.894   0.030  0.00  0.00    +0.029 A 
ATOM     30  C   UNL     1      -2.504   1.218   0.021  0.00  0.00    +0.017 A 
BRANCH  28  31
ATOM     31  N   UNL     1      -4.942   3.967   0.046  0.00  0.00    -0.200 N 
ATOM     32  C   UNL     1      -5.134   5.305   0.054  0.00  0.00    +0.250 A 
ATOM     33  N   UNL     1      -6.425   5.511   0.061  0.00  0.00    -0.116 NA
ATOM     34  N   UNL     1      -7.062   4.396   0.058  0.00  0.00    -0.023 NA
ATOM     35  N   UNL     1      -6.233   3.409   0.043  0.00  0.00    -0.039 NA
ENDBRANCH  28  31
ENDBRANCH  23  25
ENDBRANCH  22  23
ENDBRANCH  20  22
ENDBRANCH   2  20
TORSDOF 9
