REMARK  Name = ZINC59304856
REMARK  10 active torsions:
REMARK  status: ('A' for Active; 'I' for Inactive)
REMARK    1  A    between atoms: C_1  and  C_2
REMARK    2  A    between atoms: C_2  and  O_3
REMARK    3  A    between atoms: O_3  and  C_4
REMARK    4  A    between atoms: C_6  and  C_12
REMARK    5  A    between atoms: C_9  and  O_10
REMARK    6  A    between atoms: N_13  and  N_14
REMARK    7  A    between atoms: C_15  and  C_17
REMARK    8  A    between atoms: C_20  and  N_23
REMARK    9  A    between atoms: C_24  and  C_34
REMARK   10  A    between atoms: C_27  and  C_28
REMARK                            x       y       z     vdW  Elec       q    Type
REMARK                         _______ _______ _______ _____ _____    ______ ____
ROOT
ATOM      1  N   UNL     1       2.001  -6.708   0.167  0.00  0.00    -0.203 N 
ATOM      2  C   UNL     1       1.738  -8.030   0.155  0.00  0.00    +0.263 C 
ATOM      3  O   UNL     1       0.588  -8.422   0.189  0.00  0.00    -0.268 OA
ATOM      4  H   UNL     1       2.918  -6.395   0.140  0.00  0.00    +0.178 HD
ENDROOT
BRANCH   2   5
ATOM      5  C   UNL     1       2.848  -9.002   0.103  0.00  0.00    +0.038 A 
ATOM      6  C   UNL     1       4.171  -8.553   0.071  0.00  0.00    +0.015 A 
ATOM      7  C   UNL     1       5.204  -9.463   0.022  0.00  0.00    +0.027 A 
ATOM      8  C   UNL     1       4.931 -10.826   0.004  0.00  0.00    +0.047 A 
ATOM      9  C   UNL     1       3.615 -11.277   0.036  0.00  0.00    +0.027 A 
ATOM     10  C   UNL     1       2.578 -10.373   0.091  0.00  0.00    +0.015 A 
BRANCH   8  11
ATOM     11  N   UNL     1       5.981 -11.747  -0.046  0.00  0.00    -0.313 N 
ATOM     12  C   UNL     1       6.827 -11.935  -1.102  0.00  0.00    +0.021 A 
ATOM     13  C   UNL     1       7.708 -12.905  -0.776  0.00  0.00    +0.023 A 
ATOM     14  C   UNL     1       7.405 -13.340   0.525  0.00  0.00    +0.028 A 
ATOM     15  C   UNL     1       6.341 -12.610   0.961  0.00  0.00    +0.054 A 
ATOM     16  C   UNL     1       6.785 -11.186  -2.409  0.00  0.00    +0.064 C 
BRANCH  15  17
ATOM     17  C   UNL     1       5.687 -12.728   2.281  0.00  0.00    -0.001 A 
ATOM     18  C   UNL     1       5.851 -13.885   3.044  0.00  0.00    +0.010 A 
ATOM     19  C   UNL     1       5.238 -13.989   4.276  0.00  0.00    +0.001 A 
ATOM     20  C   UNL     1       4.462 -12.949   4.755  0.00  0.00    +0.000 A 
ATOM     21  C   UNL     1       4.295 -11.799   4.004  0.00  0.00    +0.001 A 
ATOM     22  C   UNL     1       4.907 -11.680   2.773  0.00  0.00    +0.010 A 
ENDBRANCH  15  17
ENDBRANCH   8  11
ENDBRANCH   2   5
BRANCH   1  24
ATOM     23  C   UNL     1       1.200  -4.512   0.227  0.00  0.00    +0.139 C 
ATOM     24  N   UNL     1       0.948  -5.785   0.216  0.00  0.00    -0.187 NA
BRANCH  23  27
ATOM     25  C   UNL     1      -0.681  -1.264   0.340  0.00  0.00    +0.162 A 
ATOM     26  C   UNL     1       0.362  -2.170   0.291  0.00  0.00    +0.060 A 
ATOM     27  C   UNL     1       0.092  -3.541   0.279  0.00  0.00    +0.012 A 
ATOM     28  C   UNL     1      -1.232  -3.990   0.317  0.00  0.00    +0.030 A 
ATOM     29  C   UNL     1      -2.267  -3.079   0.365  0.00  0.00    +0.065 A 
ATOM     30  C   UNL     1      -1.998  -1.718   0.382  0.00  0.00    +0.160 A 
ATOM     31 BR   UNL     1      -1.603  -5.844   0.301  0.00  0.00    -0.050 Br
BRANCH  30  32
ATOM     32  O   UNL     1      -3.021  -0.825   0.436  0.00  0.00    -0.503 OA
ATOM     33  H   UNL     1      -3.351  -0.553  -0.431  0.00  0.00    +0.292 HD
ENDBRANCH  30  32
BRANCH  25  34
ATOM     34  O   UNL     1      -0.422   0.071   0.351  0.00  0.00    -0.489 OA
BRANCH  34  36
ATOM     35  C   UNL     1       1.044   1.992   0.327  0.00  0.00    +0.048 C 
ATOM     36  C   UNL     1       0.951   0.465   0.305  0.00  0.00    +0.226 C 
ENDBRANCH  34  36
ENDBRANCH  25  34
ENDBRANCH  23  27
ENDBRANCH   1  24
TORSDOF 8
