REMARK  Name = ZINC38964442
REMARK  16 active torsions:
REMARK  status: ('A' for Active; 'I' for Inactive)
REMARK    1  A    between atoms: C_1  and  C_2
REMARK    2  A    between atoms: C_2  and  O_3
REMARK    3  A    between atoms: O_3  and  C_4
REMARK    4  A    between atoms: C_6  and  C_16
REMARK    5  A    between atoms: C_8  and  O_13
REMARK    6  A    between atoms: C_9  and  O_10
REMARK    7  A    between atoms: O_10  and  C_11
REMARK    8  A    between atoms: C_11  and  C_12
REMARK    9  A    between atoms: O_13  and  C_14
REMARK   10  A    between atoms: C_14  and  C_15
REMARK   11  A    between atoms: N_18  and  C_19
REMARK   12  A    between atoms: N_18  and  C_33
REMARK   13  A    between atoms: C_19  and  C_20
REMARK   14  A    between atoms: C_26  and  C_32
REMARK   15  A    between atoms: C_36  and  O_39
REMARK   16  A    between atoms: O_39  and  C_40
REMARK                            x       y       z     vdW  Elec       q    Type
REMARK                         _______ _______ _______ _____ _____    ______ ____
ROOT
ATOM      1  C   UNL     1       1.601  -4.564  -0.073  0.00  0.00    +0.251 C 
ATOM      2  O   UNL     1       2.605  -5.076  -0.532  0.00  0.00    -0.270 OA
ATOM      3  N   UNL     1       1.450  -3.226  -0.111  0.00  0.00    -0.266 N 
ENDROOT
BRANCH   1   6
ATOM      4  C   UNL     1      -0.927  -7.305   0.387  0.00  0.00    +0.166 A 
ATOM      5  C   UNL     1       0.059  -6.515  -0.175  0.00  0.00    +0.062 A 
ATOM      6  C   UNL     1       0.549  -5.409   0.524  0.00  0.00    +0.044 A 
ATOM      7  C   UNL     1       0.042  -5.105   1.790  0.00  0.00    +0.062 A 
ATOM      8  C   UNL     1      -0.943  -5.898   2.347  0.00  0.00    +0.166 A 
ATOM      9  C   UNL     1      -1.434  -6.997   1.646  0.00  0.00    +0.204 A 
BRANCH   4  10
ATOM     10  O   UNL     1      -1.405  -8.381  -0.293  0.00  0.00    -0.488 OA
BRANCH  10  12
ATOM     11  C   UNL     1      -1.498  -9.880  -2.187  0.00  0.00    +0.048 C 
ATOM     12  C   UNL     1      -0.839  -8.639  -1.580  0.00  0.00    +0.226 C 
ENDBRANCH  10  12
ENDBRANCH   4  10
BRANCH   9  13
ATOM     13  O   UNL     1      -2.406  -7.772   2.195  0.00  0.00    -0.485 OA
BRANCH  13  14
ATOM     14  C   UNL     1      -1.981  -8.877   2.994  0.00  0.00    +0.226 C 
ATOM     15  C   UNL     1      -3.207  -9.626   3.522  0.00  0.00    +0.048 C 
ENDBRANCH  13  14
ENDBRANCH   9  13
BRANCH   8  16
ATOM     16  O   UNL     1      -1.437  -5.603   3.580  0.00  0.00    -0.488 OA
BRANCH  16  17
ATOM     17  C   UNL     1      -2.635  -4.825   3.629  0.00  0.00    +0.226 C 
ATOM     18  C   UNL     1      -3.051  -4.620   5.087  0.00  0.00    +0.048 C 
ENDBRANCH  16  17
ENDBRANCH   8  16
ENDBRANCH   1   6
BRANCH   3  19
ATOM     19  C   UNL     1       2.413  -2.430  -0.744  0.00  0.00    +0.037 A 
ATOM     20  C   UNL     1       2.048  -1.603  -1.798  0.00  0.00    +0.027 A 
ATOM     21  C   UNL     1       2.998  -0.819  -2.421  0.00  0.00    +0.047 A 
ATOM     22  C   UNL     1       4.317  -0.856  -1.994  0.00  0.00    +0.120 A 
ATOM     23  C   UNL     1       4.683  -1.682  -0.941  0.00  0.00    +0.047 A 
ATOM     24  C   UNL     1       3.733  -2.463  -0.313  0.00  0.00    +0.027 A 
BRANCH  22  25
ATOM     25  O   UNL     1       5.252  -0.083  -2.608  0.00  0.00    -0.495 OA
ATOM     26  C   UNL     1       6.609  -0.252  -2.192  0.00  0.00    +0.277 C 
ENDBRANCH  22  25
ENDBRANCH   3  19
BRANCH   3  27
ATOM     27  C   UNL     1       0.278  -2.603   0.510  0.00  0.00    +0.131 C 
BRANCH  27  28
ATOM     28  C   UNL     1       0.647  -1.203   1.004  0.00  0.00    +0.116 C 
ATOM     29  C   UNL     1      -0.638  -0.415   1.170  0.00  0.00    -0.003 C 
ATOM     30  C   UNL     1      -0.903   0.095   2.406  0.00  0.00    -0.007 A 
ATOM     31  C   UNL     1      -2.120   0.868   2.654  0.00  0.00    +0.010 A 
ATOM     32  C   UNL     1      -2.342   1.358   3.902  0.00  0.00    +0.004 A 
ATOM     33  C   UNL     1      -1.437   1.138   4.940  0.00  0.00    -0.049 A 
ATOM     34  C   UNL     1      -0.290   0.429   4.775  0.00  0.00    +0.027 A 
ATOM     35  C   UNL     1       0.035  -0.122   3.522  0.00  0.00    +0.041 A 
ATOM     36  N   UNL     1       1.163  -0.816   3.372  0.00  0.00    -0.284 N 
ATOM     37  C   UNL     1       1.528  -1.358   2.223  0.00  0.00    +0.226 C 
ATOM     38  O   UNL     1       2.571  -1.981   2.147  0.00  0.00    -0.275 OA
ATOM     39  C   UNL     1      -1.744   1.710   6.300  0.00  0.00    +0.044 C 
ATOM     40  H   UNL     1       1.743  -0.927   4.141  0.00  0.00    +0.155 HD
ENDBRANCH  27  28
ENDBRANCH   3  27
TORSDOF 11
