REMARK  Name = ZINC38850156
REMARK  14 active torsions:
REMARK  status: ('A' for Active; 'I' for Inactive)
REMARK    1  A    between atoms: C_1  and  C_2
REMARK    2  A    between atoms: C_2  and  O_3
REMARK    3  A    between atoms: O_3  and  C_4
REMARK    4  A    between atoms: N_13  and  C_14
REMARK    5  A    between atoms: C_14  and  C_15
REMARK    6  A    between atoms: C_15  and  C_16
REMARK    7  A    between atoms: C_16  and  N_17
REMARK    8  A    between atoms: N_17  and  C_18
REMARK    9  A    between atoms: N_17  and  C_19
REMARK   10  A    between atoms: C_20  and  C_22
REMARK   11  A    between atoms: C_25  and  S_28
REMARK   12  A    between atoms: S_28  and  N_31
REMARK   13  A    between atoms: N_31  and  C_32
REMARK   14  A    between atoms: N_31  and  C_33
REMARK                            x       y       z     vdW  Elec       q    Type
REMARK                         _______ _______ _______ _____ _____    ______ ____
ROOT
ATOM      1  C   UNL     1       0.230  -0.946  -1.817  0.00  0.00    +0.147 A 
ATOM      2  C   UNL     1      -0.496  -1.642  -0.879  0.00  0.00    +0.048 A 
ATOM      3  C   UNL     1      -0.438  -3.025  -0.799  0.00  0.00    +0.005 A 
ATOM      4  C   UNL     1       0.368  -3.722  -1.680  0.00  0.00    +0.017 A 
ATOM      5  C   UNL     1       1.098  -3.037  -2.621  0.00  0.00    +0.044 A 
ATOM      6  C   UNL     1       1.062  -1.630  -2.739  0.00  0.00    +0.122 A 
ATOM      7  N   UNL     1       1.831  -1.104  -3.718  0.00  0.00    -0.221 NA
ATOM      8  C   UNL     1       2.564  -1.847  -4.514  0.00  0.00    +0.168 A 
ATOM      9  S   UNL     1       2.229  -3.496  -3.913  0.00  0.00    -0.052 S 
ATOM     10  N   UNL     1       3.394  -1.452  -5.551  0.00  0.00    -0.246 N 
ATOM     11  C   UNL     1       3.524  -0.144  -5.849  0.00  0.00    +0.252 C 
ATOM     12  O   UNL     1       2.971   0.694  -5.163  0.00  0.00    -0.270 OA
ENDROOT
BRANCH  11  13
ATOM     13  C   UNL     1       4.338   0.272  -7.010  0.00  0.00    +0.037 A 
ATOM     14  C   UNL     1       4.294  -0.463  -8.196  0.00  0.00    +0.015 A 
ATOM     15  C   UNL     1       5.056  -0.069  -9.277  0.00  0.00    +0.029 A 
ATOM     16  C   UNL     1       5.863   1.051  -9.186  0.00  0.00    +0.106 A 
ATOM     17  C   UNL     1       5.912   1.784  -8.014  0.00  0.00    +0.029 A 
ATOM     18  C   UNL     1       5.150   1.405  -6.928  0.00  0.00    +0.015 A 
BRANCH  16  19
ATOM     19  S   UNL     1       6.834   1.547 -10.571  0.00  0.00    +0.061 S 
ATOM     20  O   UNL     1       7.917   2.309 -10.055  0.00  0.00    -0.153 OA
ATOM     21  O   UNL     1       7.030   0.386 -11.366  0.00  0.00    -0.153 OA
BRANCH  19  22
ATOM     22  N   UNL     1       5.910   2.586 -11.470  0.00  0.00    -0.177 NA
ATOM     23  C   UNL     1       5.953   4.025 -11.200  0.00  0.00    +0.132 C 
BRANCH  22  24
ATOM     24  C   UNL     1       5.049   2.066 -12.535  0.00  0.00    +0.080 C 
ATOM     25  C   UNL     1       4.377   3.083 -13.460  0.00  0.00    +0.022 C 
ATOM     26  C   UNL     1       3.546   2.328 -12.420  0.00  0.00    +0.022 C 
ENDBRANCH  22  24
ENDBRANCH  19  22
ENDBRANCH  16  19
ENDBRANCH  11  13
BRANCH   1  27
ATOM     27  O   UNL     1       0.145   0.410  -1.864  0.00  0.00    -0.490 OA
BRANCH  27  29
ATOM     28  C   UNL     1      -0.676   2.556  -1.115  0.00  0.00    +0.048 C 
ATOM     29  C   UNL     1      -0.710   1.040  -0.908  0.00  0.00    +0.226 C 
ENDBRANCH  27  29
ENDBRANCH   1  27
BRANCH  10  30
ATOM     30  C   UNL     1       4.130  -2.456  -6.323  0.00  0.00    +0.114 C 
BRANCH  30  31
ATOM     31  C   UNL     1       3.165  -3.190  -7.256  0.00  0.00    +0.001 C 
BRANCH  31  32
ATOM     32  C   UNL     1       3.955  -4.131  -8.168  0.00  0.00    -0.078 C 
BRANCH  32  33
ATOM     33  N   UNL     1       3.028  -4.836  -9.064  0.00  0.00    +0.376 N 
ATOM     34  C   UNL     1       2.387  -3.869  -9.965  0.00  0.00    -0.097 C 
ATOM     35  C   UNL     1       3.771  -5.825  -9.857  0.00  0.00    -0.097 C 
ATOM     36  H   UNL     1       2.323  -5.305  -8.517  0.00  0.00    -0.083 HD
ENDBRANCH  32  33
ENDBRANCH  31  32
ENDBRANCH  30  31
ENDBRANCH  10  30
TORSDOF 10
