REMARK  Name = ZINC13655245
REMARK  6 active torsions:
REMARK  status: ('A' for Active; 'I' for Inactive)
REMARK    1  A    between atoms: C_1  and  C_2
REMARK    2  A    between atoms: C_5  and  C_34
REMARK    3  A    between atoms: N_8  and  C_10
REMARK    4  A    between atoms: C_10  and  C_11
REMARK    5  A    between atoms: C_12  and  O_33
REMARK    6  A    between atoms: C_19  and  C_20
REMARK                            x       y       z     vdW  Elec       q    Type
REMARK                         _______ _______ _______ _____ _____    ______ ____
ROOT
ATOM      1  C   UNL     1       2.843  -1.457   1.366  0.00  0.00    +0.020 A 
ATOM      2  C   UNL     1       3.730  -2.176   0.580  0.00  0.00    +0.122 A 
ATOM      3  C   UNL     1       5.085  -1.859   0.570  0.00  0.00    +0.046 A 
ATOM      4  C   UNL     1       5.555  -0.831   1.339  0.00  0.00    +0.019 A 
ATOM      5  C   UNL     1       4.674  -0.099   2.135  0.00  0.00    +0.068 A 
ATOM      6  C   UNL     1       3.304  -0.406   2.149  0.00  0.00    +0.144 A 
ATOM      7  O   UNL     1       2.656   0.437   2.982  0.00  0.00    -0.451 OA
ATOM      8  C   UNL     1       3.502   1.328   3.554  0.00  0.00    +0.176 C 
ATOM      9  C   UNL     1       3.163   2.303   4.436  0.00  0.00    +0.061 C 
ATOM     10  C   UNL     1       4.854   1.039   3.055  0.00  0.00    +0.231 C 
ATOM     11  O   UNL     1       5.890   1.618   3.331  0.00  0.00    -0.283 OA
ENDROOT
BRANCH   9  12
ATOM     12  C   UNL     1       1.754   2.521   4.783  0.00  0.00    +0.022 A 
ATOM     13  C   UNL     1       0.801   1.531   4.515  0.00  0.00    +0.027 A 
ATOM     14  C   UNL     1      -0.520   1.745   4.843  0.00  0.00    +0.019 A 
ATOM     15  C   UNL     1      -0.909   2.936   5.436  0.00  0.00    +0.024 A 
ATOM     16  C   UNL     1       0.021   3.923   5.706  0.00  0.00    +0.022 A 
ATOM     17  C   UNL     1       1.354   3.723   5.392  0.00  0.00    +0.136 A 
ATOM     18  O   UNL     1       2.280   4.677   5.666  0.00  0.00    -0.465 OA
ATOM     19  C   UNL     1       1.792   5.993   5.941  0.00  0.00    +0.395 C 
ATOM     20  O   UNL     1       0.716   5.894   6.882  0.00  0.00    -0.339 OA
ATOM     21  C   UNL     1      -0.427   5.213   6.347  0.00  0.00    +0.202 C 
ATOM     22 BR   UNL     1      -1.808   0.408   4.482  0.00  0.00    -0.050 Br
ENDBRANCH   9  12
BRANCH   2  23
ATOM     23  O   UNL     1       3.273  -3.199  -0.186  0.00  0.00    -0.506 OA
ATOM     24  H   UNL     1       3.004  -2.933  -1.077  0.00  0.00    +0.292 HD
ENDBRANCH   2  23
BRANCH   1  25
ATOM     25  C   UNL     1       1.378  -1.811   1.366  0.00  0.00    -0.036 C 
BRANCH  25  31
ATOM     26  C   UNL     1       0.171   2.677  -0.171  0.00  0.00    +0.005 C 
ATOM     27  C   UNL     1       0.108   1.185  -0.503  0.00  0.00    -0.031 C 
ATOM     28  C   UNL     1      -1.355   0.757  -0.657  0.00  0.00    +0.003 C 
ATOM     29  C   UNL     1      -1.411  -0.752  -0.911  0.00  0.00    -0.031 C 
ATOM     30  C   UNL     1      -0.710  -1.483   0.236  0.00  0.00    -0.075 C 
ATOM     31  N   UNL     1       0.690  -1.050   0.315  0.00  0.00    +0.383 N 
ATOM     32  C   UNL     1       0.753   0.382   0.629  0.00  0.00    -0.075 C 
ATOM     33  C   UNL     1      -2.870  -1.203  -0.990  0.00  0.00    +0.005 C 
ATOM     34  H   UNL     1       1.143  -1.219  -0.571  0.00  0.00    -0.081 HD
ENDBRANCH  25  31
ENDBRANCH   1  25
TORSDOF 4
