REMARK  Name = ZINC22064420
REMARK  14 active torsions:
REMARK  status: ('A' for Active; 'I' for Inactive)
REMARK    1  A    between atoms: C_1  and  C_2
REMARK    2  A    between atoms: C_2  and  C_4
REMARK    3  A    between atoms: C_2  and  C_16
REMARK    4  A    between atoms: C_9  and  O_14
REMARK    5  A    between atoms: O_14  and  C_15
REMARK    6  A    between atoms: C_16  and  O_18
REMARK    7  A    between atoms: O_18  and  C_19
REMARK    8  A    between atoms: C_21  and  O_42
REMARK    9  A    between atoms: C_23  and  O_41
REMARK   10  A    between atoms: C_25  and  O_40
REMARK   11  A    between atoms: C_27  and  C_30
REMARK   12  A    between atoms: C_30  and  O_32
REMARK   13  A    between atoms: O_32  and  C_33
REMARK   14  A    between atoms: C_33  and  C_34
REMARK                            x       y       z     vdW  Elec       q    Type
REMARK                         _______ _______ _______ _____ _____    ______ ____
ROOT
ATOM      1  C   UNL     1      -2.826   9.924  -2.573  0.00  0.00    +0.343 C 
ATOM      2  C   UNL     1      -2.995  11.445  -2.572  0.00  0.00    +0.214 C 
ATOM      3  C   UNL     1      -3.694  11.874  -3.866  0.00  0.00    +0.180 C 
ATOM      4  C   UNL     1      -2.876  11.380  -5.064  0.00  0.00    +0.185 C 
ATOM      5  C   UNL     1      -2.712   9.861  -4.968  0.00  0.00    +0.261 C 
ATOM      6  O   UNL     1      -2.083   9.528  -3.728  0.00  0.00    -0.322 OA
ENDROOT
BRANCH   5   7
ATOM      7  C   UNL     1      -1.858   9.375  -6.110  0.00  0.00    +0.339 C 
ATOM      8  O   UNL     1      -0.776   8.883  -5.890  0.00  0.00    -0.248 OA
BRANCH   7   9
ATOM      9  O   UNL     1      -2.299   9.487  -7.373  0.00  0.00    -0.458 OA
BRANCH   9  10
ATOM     10  C   UNL     1      -1.424   8.998  -8.423  0.00  0.00    +0.267 C 
BRANCH  10  11
ATOM     11  C   UNL     1      -2.081   9.207  -9.763  0.00  0.00    -0.010 A 
ATOM     12  C   UNL     1      -2.886   8.219 -10.299  0.00  0.00    +0.007 A 
ATOM     13  C   UNL     1      -3.492   8.412 -11.527  0.00  0.00    +0.000 A 
ATOM     14  C   UNL     1      -3.287   9.589 -12.221  0.00  0.00    +0.000 A 
ATOM     15  C   UNL     1      -2.478  10.575 -11.687  0.00  0.00    +0.000 A 
ATOM     16  C   UNL     1      -1.875  10.383 -10.458  0.00  0.00    +0.007 A 
ENDBRANCH  10  11
ENDBRANCH   9  10
ENDBRANCH   7   9
ENDBRANCH   5   7
BRANCH   4  17
ATOM     17  O   UNL     1      -1.589  12.001  -5.051  0.00  0.00    -0.386 OA
ATOM     18  H   UNL     1      -0.858  11.767  -5.840  0.00  0.00    +0.210 HD
ENDBRANCH   4  17
BRANCH   3  19
ATOM     19  O   UNL     1      -5.004  11.305  -3.915  0.00  0.00    -0.386 OA
ATOM     20  H   UNL     1      -5.658  11.504  -4.777  0.00  0.00    +0.210 HD
ENDBRANCH   3  19
BRANCH   2  21
ATOM     21  O   UNL     1      -3.787  11.838  -1.449  0.00  0.00    -0.383 OA
ATOM     22  H   UNL     1      -4.016  12.900  -1.282  0.00  0.00    +0.210 HD
ENDBRANCH   2  21
BRANCH   1  23
ATOM     23  O   UNL     1      -2.113   9.515  -1.376  0.00  0.00    -0.432 OA
BRANCH  23  24
ATOM     24  C   UNL     1      -1.972   8.197  -1.171  0.00  0.00    +0.317 C 
ATOM     25  O   UNL     1      -2.429   7.409  -1.966  0.00  0.00    -0.250 OA
BRANCH  24  27
ATOM     26  C   UNL     1      -1.959   8.192   1.309  0.00  0.00    +0.024 C 
ATOM     27  C   UNL     1      -1.243   7.698   0.051  0.00  0.00    +0.125 C 
BRANCH  27  28
ATOM     28  C   UNL     1      -1.224   6.191   0.043  0.00  0.00    -0.033 A 
ATOM     29  C   UNL     1      -2.428   5.489   0.051  0.00  0.00    +0.005 A 
ATOM     30  C   UNL     1      -2.446   4.128   0.046  0.00  0.00    +0.009 A 
ATOM     31  C   UNL     1      -1.234   3.417   0.031  0.00  0.00    -0.014 A 
ATOM     32  C   UNL     1      -1.213   2.012   0.019  0.00  0.00    +0.054 A 
ATOM     33  C   UNL     1      -0.016   1.355   0.009  0.00  0.00    +0.121 A 
ATOM     34  C   UNL     1       1.190   2.061   0.002  0.00  0.00    +0.046 A 
ATOM     35  C   UNL     1       1.204   3.421   0.008  0.00  0.00    +0.012 A 
ATOM     36  C   UNL     1      -0.009   4.131   0.023  0.00  0.00    -0.017 A 
ATOM     37  C   UNL     1      -0.031   5.536   0.029  0.00  0.00    +0.013 A 
BRANCH  33  38
ATOM     38  O   UNL     1       0.002  -0.004   0.002  0.00  0.00    -0.495 OA
ATOM     39  C   UNL     1       1.284  -0.635  -0.014  0.00  0.00    +0.277 C 
ENDBRANCH  33  38
ENDBRANCH  27  28
ENDBRANCH  24  27
ENDBRANCH  23  24
ENDBRANCH   1  23
TORSDOF 12
