REMARK  Name = ZINC11296942
REMARK  7 active torsions:
REMARK  status: ('A' for Active; 'I' for Inactive)
REMARK    1  A    between atoms: C_1  and  C_2
REMARK    2  A    between atoms: C_7  and  O_30
REMARK    3  A    between atoms: C_8  and  C_12
REMARK    4  A    between atoms: C_13  and  C_14
REMARK    5  A    between atoms: C_13  and  C_16
REMARK    6  A    between atoms: N_22  and  C_23
REMARK    7  A    between atoms: O_30  and  C_31
REMARK                            x       y       z     vdW  Elec       q    Type
REMARK                         _______ _______ _______ _____ _____    ______ ____
ROOT
ATOM      1  C   UNL     1       3.320   7.066   1.483  0.00  0.00    +0.177 A 
ATOM      2  N   UNL     1       4.595   7.348   1.222  0.00  0.00    -0.194 NA
ATOM      3  C   UNL     1       5.013   8.610   1.240  0.00  0.00    +0.217 A 
ATOM      4  N   UNL     1       4.162   9.589   1.531  0.00  0.00    -0.181 NA
ATOM      5  C   UNL     1       2.890   9.308   1.798  0.00  0.00    +0.224 A 
ATOM      6  N   UNL     1       2.468   8.048   1.774  0.00  0.00    -0.194 NA
ATOM      7  N   UNL     1       2.007  10.327   2.099  0.00  0.00    -0.283 N 
ATOM      8  N   UNL     1       6.333   8.903   0.963  0.00  0.00    -0.327 N 
ATOM      9  H   UNL     1       1.063  10.133   2.212  0.00  0.00    +0.155 HD
ATOM     10  H   UNL     1       6.640   9.823   0.981  0.00  0.00    +0.145 HD
ATOM     11  H   UNL     1       6.955   8.189   0.752  0.00  0.00    +0.145 HD
ENDROOT
BRANCH   7  12
ATOM     12  C   UNL     1       2.473  11.637   2.241  0.00  0.00    +0.034 A 
ATOM     13  C   UNL     1       3.737  11.873   2.766  0.00  0.00    +0.023 A 
ATOM     14  C   UNL     1       4.197  13.169   2.900  0.00  0.00    +0.002 A 
ATOM     15  C   UNL     1       3.396  14.231   2.523  0.00  0.00    +0.000 A 
ATOM     16  C   UNL     1       2.134  13.999   2.005  0.00  0.00    +0.002 A 
ATOM     17  C   UNL     1       1.671  12.706   1.863  0.00  0.00    +0.023 A 
ENDBRANCH   7  12
BRANCH   1  19
ATOM     18  C   UNL     1       3.725   4.660   1.159  0.00  0.00    +0.034 C 
ATOM     19  C   UNL     1       2.852   5.665   1.457  0.00  0.00    +0.097 C 
BRANCH  18  26
ATOM     20  C   UNL     1      -0.676  -0.073   1.562  0.00  0.00    +0.052 C 
ATOM     21  C   UNL     1       0.093  -0.043   0.240  0.00  0.00    +0.175 C 
ATOM     22  C   UNL     1       1.531  -0.580   0.431  0.00  0.00    +0.083 C 
ATOM     23  C   UNL     1       2.309   0.694   0.704  0.00  0.00    +0.001 A 
ATOM     24  C   UNL     1       3.564   0.911   1.230  0.00  0.00    +0.053 A 
ATOM     25  C   UNL     1       4.043   2.202   1.382  0.00  0.00    +0.128 A 
ATOM     26  C   UNL     1       3.235   3.287   0.999  0.00  0.00    +0.021 A 
ATOM     27  C   UNL     1       1.964   3.054   0.463  0.00  0.00    +0.057 A 
ATOM     28  C   UNL     1       1.499   1.756   0.311  0.00  0.00    +0.125 A 
ATOM     29  O   UNL     1       0.313   1.311  -0.190  0.00  0.00    -0.488 OA
BRANCH  25  30
ATOM     30  O   UNL     1       5.280   2.418   1.897  0.00  0.00    -0.495 OA
ATOM     31  C   UNL     1       6.040   1.265   2.263  0.00  0.00    +0.277 C 
ENDBRANCH  25  30
ENDBRANCH  18  26
BRANCH  19  32
ATOM     32  C   UNL     1       1.482   5.362   1.744  0.00  0.00    +0.103 C 
ATOM     33  N   UNL     1       0.395   5.121   1.971  0.00  0.00    -0.191 NA
ENDBRANCH  19  32
ENDBRANCH   1  19
TORSDOF 5
