REMARK  Name = ZINC36024469
REMARK  8 active torsions:
REMARK  status: ('A' for Active; 'I' for Inactive)
REMARK    1  A    between atoms: C_1  and  C_2
REMARK    2  A    between atoms: C_2  and  C_3
REMARK    3  A    between atoms: C_3  and  C_5
REMARK    4  A    between atoms: C_3  and  C_6
REMARK    5  A    between atoms: N_10  and  C_31
REMARK    6  A    between atoms: N_15  and  S_18
REMARK    7  A    between atoms: S_18  and  C_21
REMARK    8  A    between atoms: C_31  and  C_32
REMARK                            x       y       z     vdW  Elec       q    Type
REMARK                         _______ _______ _______ _____ _____    ______ ____
ROOT
ATOM      1  C   UNL     1       1.377  -2.346   1.974  0.00  0.00    +0.022 C 
ATOM      2  C   UNL     1       0.001  -2.840   1.582  0.00  0.00    +0.201 C 
ATOM      3  O   UNL     1      -0.685  -2.392   0.688  0.00  0.00    -0.277 OA
ATOM      4  N   UNL     1      -0.334  -3.863   2.395  0.00  0.00    -0.309 N 
ATOM      5  C   UNL     1       0.756  -4.113   3.342  0.00  0.00    +0.006 C 
ATOM      6  N   UNL     1       1.611  -2.904   3.328  0.00  0.00    +0.401 N 
ATOM      7  C   UNL     1       1.573  -5.325   2.898  0.00  0.00    +0.023 C 
ATOM      8  C   UNL     1       0.673  -6.564   2.877  0.00  0.00    +0.109 C 
ATOM      9  N   UNL     1       0.032  -6.705   4.192  0.00  0.00    -0.177 NA
ATOM     10  C   UNL     1      -0.716  -5.565   4.741  0.00  0.00    +0.109 C 
ATOM     11  C   UNL     1       0.197  -4.334   4.746  0.00  0.00    +0.023 C 
ATOM     12  H   UNL     1       2.581  -3.151   3.449  0.00  0.00    -0.082 HD
ATOM     13  H   UNL     1       1.315  -2.251   4.038  0.00  0.00    -0.082 HD
ENDROOT
BRANCH   9  14
ATOM     14  S   UNL     1       0.150  -8.123   5.040  0.00  0.00    +0.063 S 
ATOM     15  O   UNL     1      -0.963  -8.162   5.922  0.00  0.00    -0.153 OA
ATOM     16  O   UNL     1       0.403  -9.146   4.087  0.00  0.00    -0.153 OA
BRANCH  14  17
ATOM     17  C   UNL     1       1.589  -8.008   6.050  0.00  0.00    +0.131 A 
ATOM     18  C   UNL     1       1.474  -8.003   7.406  0.00  0.00    +0.031 A 
ATOM     19  C   UNL     1       2.598  -7.913   8.223  0.00  0.00    +0.003 A 
ATOM     20  C   UNL     1       3.847  -7.827   7.686  0.00  0.00    +0.010 A 
ATOM     21  C   UNL     1       4.004  -7.829   6.291  0.00  0.00    +0.002 A 
ATOM     22  C   UNL     1       2.862  -7.926   5.458  0.00  0.00    +0.097 A 
ATOM     23  N   UNL     1       3.006  -7.933   4.129  0.00  0.00    -0.253 NA
ATOM     24  C   UNL     1       4.190  -7.856   3.572  0.00  0.00    +0.111 A 
ATOM     25  C   UNL     1       5.354  -7.764   4.333  0.00  0.00    +0.020 A 
ATOM     26  C   UNL     1       5.277  -7.741   5.696  0.00  0.00    +0.011 A 
ENDBRANCH  14  17
ENDBRANCH   9  14
BRANCH   1  27
ATOM     27  C   UNL     1       1.402  -0.817   2.016  0.00  0.00    -0.020 C 
ATOM     28  C   UNL     1       0.331  -0.316   2.988  0.00  0.00    +0.006 C 
BRANCH  27  30
ATOM     29  C   UNL     1       1.268   1.260   0.634  0.00  0.00    +0.004 C 
ATOM     30  C   UNL     1       1.120  -0.263   0.618  0.00  0.00    -0.001 C 
ENDBRANCH  27  30
ENDBRANCH   1  27
BRANCH   4  31
ATOM     31  C   UNL     1      -1.594  -4.609   2.341  0.00  0.00    +0.141 C 
BRANCH  31  32
ATOM     32  C   UNL     1      -2.675  -3.820   3.035  0.00  0.00    -0.030 A 
ATOM     33  C   UNL     1      -2.622  -3.632   4.403  0.00  0.00    +0.008 A 
ATOM     34  C   UNL     1      -3.612  -2.908   5.040  0.00  0.00    +0.038 A 
ATOM     35  C   UNL     1      -4.658  -2.373   4.307  0.00  0.00    +0.123 A 
ATOM     36  C   UNL     1      -4.710  -2.562   2.937  0.00  0.00    +0.038 A 
ATOM     37  C   UNL     1      -3.716  -3.281   2.301  0.00  0.00    +0.008 A 
ATOM     38  F   UNL     1      -5.627  -1.666   4.929  0.00  0.00    -0.205 F 
ENDBRANCH  31  32
ENDBRANCH   4  31
TORSDOF 6
