REMARK  Name = ZINC06824455
REMARK  4 active torsions:
REMARK  status: ('A' for Active; 'I' for Inactive)
REMARK    1  A    between atoms: C_1  and  C_2
REMARK    2  A    between atoms: C_8  and  N_10
REMARK    3  A    between atoms: C_11  and  C_13
REMARK    4  A    between atoms: C_13  and  N_14
REMARK                            x       y       z     vdW  Elec       q    Type
REMARK                         _______ _______ _______ _____ _____    ______ ____
ROOT
ATOM      1  N   UNL     1      -1.934  -3.054  -3.784  0.00  0.00    -0.215 N 
ATOM      2  C   UNL     1      -2.989  -3.322  -4.584  0.00  0.00    +0.251 C 
ATOM      3  O   UNL     1      -4.165  -3.217  -4.311  0.00  0.00    -0.272 OA
ATOM      4  C   UNL     1      -2.390  -3.777  -5.890  0.00  0.00    +0.138 C 
ATOM      5  C   UNL     1      -2.816  -2.867  -7.049  0.00  0.00    +0.045 C 
ATOM      6  C   UNL     1      -4.018  -3.636  -7.642  0.00  0.00    +0.038 C 
ATOM      7  C   UNL     1      -3.787  -5.085  -7.268  0.00  0.00    -0.042 A 
ATOM      8  C   UNL     1      -2.849  -5.164  -6.253  0.00  0.00    -0.012 A 
ATOM      9  C   UNL     1      -2.486  -6.401  -5.748  0.00  0.00    +0.006 A 
ATOM     10  C   UNL     1      -3.054  -7.554  -6.253  0.00  0.00    +0.000 A 
ATOM     11  C   UNL     1      -3.989  -7.475  -7.268  0.00  0.00    +0.000 A 
ATOM     12  C   UNL     1      -4.354  -6.242  -7.773  0.00  0.00    +0.004 A 
ATOM     13  N   UNL     1      -0.944  -3.723  -5.671  0.00  0.00    -0.281 N 
ATOM     14  C   UNL     1      -0.771  -3.286  -4.407  0.00  0.00    +0.310 C 
ATOM     15  O   UNL     1       0.317  -3.123  -3.891  0.00  0.00    -0.252 OA
ATOM     16  H   UNL     1      -0.250  -3.953  -6.308  0.00  0.00    +0.152 HD
ENDROOT
BRANCH   1  17
ATOM     17  C   UNL     1      -2.048  -2.575  -2.404  0.00  0.00    +0.213 C 
BRANCH  17  19
ATOM     18  N   UNL     1      -2.168  -0.402  -1.229  0.00  0.00    -0.311 N 
ATOM     19  C   UNL     1      -2.068  -1.068  -2.396  0.00  0.00    +0.231 C 
ATOM     20  O   UNL     1      -1.995  -0.455  -3.440  0.00  0.00    -0.274 OA
ATOM     21  H   UNL     1      -2.227  -0.892  -0.394  0.00  0.00    +0.149 HD
BRANCH  18  28
ATOM     22  C   UNL     1      -4.340   1.027   0.049  0.00  0.00    +0.009 C 
ATOM     23  C   UNL     1      -2.904   1.556   0.038  0.00  0.00    +0.006 C 
ATOM     24  C   UNL     1      -2.164   1.050   1.278  0.00  0.00    +0.005 C 
ATOM     25  C   UNL     1      -0.729   1.579   1.267  0.00  0.00    +0.000 C 
ATOM     26  C   UNL     1      -0.013   1.086   0.008  0.00  0.00    +0.002 C 
ATOM     27  C   UNL     1      -0.753   1.593  -1.232  0.00  0.00    +0.022 C 
ATOM     28  C   UNL     1      -2.188   1.063  -1.221  0.00  0.00    +0.076 C 
ENDBRANCH  18  28
ENDBRANCH  17  19
ENDBRANCH   1  17
TORSDOF 3
