REMARK  Name = ZINC15821732
REMARK  8 active torsions:
REMARK  status: ('A' for Active; 'I' for Inactive)
REMARK    1  A    between atoms: C_1  and  O_2
REMARK    2  A    between atoms: O_2  and  C_3
REMARK    3  A    between atoms: C_7  and  C_9
REMARK    4  A    between atoms: N_11  and  C_12
REMARK    5  A    between atoms: C_12  and  C_14
REMARK    6  A    between atoms: C_12  and  C_23
REMARK    7  A    between atoms: C_18  and  N_20
REMARK    8  A    between atoms: C_32  and  O_33
REMARK                            x       y       z     vdW  Elec       q    Type
REMARK                         _______ _______ _______ _____ _____    ______ ____
ROOT
ATOM      1  C   UNL     1      -2.965   7.145   5.239  0.00  0.00    +0.138 C 
ENDROOT
BRANCH   1   2
ATOM      2  C   UNL     1      -2.467   8.536   5.538  0.00  0.00    +0.026 A 
ATOM      3  C   UNL     1      -2.129   8.898   6.852  0.00  0.00    -0.009 A 
ATOM      4  C   UNL     1      -2.233   7.980   7.911  0.00  0.00    +0.009 A 
ATOM      5  C   UNL     1      -1.892   8.364   9.171  0.00  0.00    +0.001 A 
ATOM      6  C   UNL     1      -1.433   9.654   9.429  0.00  0.00    +0.001 A 
ATOM      7  C   UNL     1      -1.315  10.569   8.427  0.00  0.00    +0.008 A 
ATOM      8  C   UNL     1      -1.658  10.209   7.113  0.00  0.00    -0.017 A 
ATOM      9  C   UNL     1      -1.547  11.127   6.054  0.00  0.00    +0.012 A 
ATOM     10  C   UNL     1      -1.887  10.747   4.793  0.00  0.00    +0.046 A 
ATOM     11  C   UNL     1      -2.347   9.452   4.532  0.00  0.00    +0.123 A 
BRANCH  11  12
ATOM     12  O   UNL     1      -2.679   9.102   3.262  0.00  0.00    -0.506 OA
ATOM     13  H   UNL     1      -3.580   9.345   3.010  0.00  0.00    +0.292 HD
ENDBRANCH  11  12
ENDBRANCH   1   2
BRANCH   1  14
ATOM     14  C   UNL     1      -4.448   7.188   4.977  0.00  0.00    -0.021 A 
ATOM     15  C   UNL     1      -4.918   7.411   3.696  0.00  0.00    +0.006 A 
ATOM     16  C   UNL     1      -6.278   7.451   3.456  0.00  0.00    +0.003 A 
ATOM     17  C   UNL     1      -7.170   7.266   4.496  0.00  0.00    +0.033 A 
ATOM     18  C   UNL     1      -6.700   7.042   5.777  0.00  0.00    +0.127 A 
ATOM     19  C   UNL     1      -5.339   6.998   6.017  0.00  0.00    +0.038 A 
BRANCH  18  20
ATOM     20  N   UNL     1      -7.655   6.843   6.891  0.00  0.00    +0.056 N 
ATOM     21  O   UNL     1      -8.854   6.878   6.679  0.00  0.00    -0.126 OA
ATOM     22  O   UNL     1      -7.241   6.646   8.019  0.00  0.00    -0.126 OA
ENDBRANCH  18  20
ENDBRANCH   1  14
BRANCH   1  25
ATOM     23  C   UNL     1      -2.152   5.292   3.882  0.00  0.00    +0.245 C 
ATOM     24  O   UNL     1      -2.613   4.525   4.705  0.00  0.00    -0.270 OA
ATOM     25  N   UNL     1      -2.275   6.622   4.057  0.00  0.00    -0.300 N 
ATOM     26  H   UNL     1      -1.907   7.234   3.401  0.00  0.00    +0.150 HD
BRANCH  23  31
ATOM     27  C   UNL     1      -0.675   2.900   1.385  0.00  0.00    +0.121 A 
ATOM     28  C   UNL     1      -0.150   3.781   0.449  0.00  0.00    +0.045 A 
ATOM     29  C   UNL     1      -0.276   5.146   0.630  0.00  0.00    +0.004 A 
ATOM     30  C   UNL     1      -0.925   5.642   1.743  0.00  0.00    +0.013 A 
ATOM     31  C   UNL     1      -1.456   4.764   2.689  0.00  0.00    +0.040 A 
ATOM     32  C   UNL     1      -1.332   3.387   2.502  0.00  0.00    +0.058 A 
BRANCH  27  34
ATOM     33  C   UNL     1       0.135   1.128   0.024  0.00  0.00    +0.277 C 
ATOM     34  O   UNL     1      -0.549   1.560   1.202  0.00  0.00    -0.495 OA
ENDBRANCH  27  34
ENDBRANCH  23  31
ENDBRANCH   1  25
TORSDOF 7
