REMARK  Name = ZINC18988144
REMARK  6 active torsions:
REMARK  status: ('A' for Active; 'I' for Inactive)
REMARK    1  A    between atoms: C_1  and  C_2
REMARK    2  A    between atoms: C_3  and  C_21
REMARK    3  A    between atoms: C_4  and  C_10
REMARK    4  A    between atoms: C_13  and  C_15
REMARK    5  A    between atoms: N_23  and  C_24
REMARK    6  A    between atoms: C_29  and  C_30
REMARK                            x       y       z     vdW  Elec       q    Type
REMARK                         _______ _______ _______ _____ _____    ______ ____
ROOT
ATOM      1  C   UNL     1       0.018   1.664   0.355  0.00  0.00    +0.061 C 
ATOM      2  C   UNL     1       0.069   0.174   0.137  0.00  0.00    +0.019 C 
ATOM      3  C   UNL     1      -1.081  -0.512  -0.031  0.00  0.00    +0.056 C 
ATOM      4  C   UNL     1      -0.985  -2.008  -0.248  0.00  0.00    +0.148 C 
ATOM      5  N   UNL     1       0.366  -2.596  -0.258  0.00  0.00    -0.288 N 
ATOM      6  C   UNL     1       1.422  -1.778  -0.076  0.00  0.00    +0.304 C 
ATOM      7  O   UNL     1       2.541  -2.253  -0.082  0.00  0.00    -0.252 OA
ATOM      8  N   UNL     1       1.279  -0.460   0.106  0.00  0.00    -0.273 N 
ATOM      9  H   UNL     1       0.492  -3.548  -0.392  0.00  0.00    +0.151 HD
ATOM     10  H   UNL     1       2.079   0.075   0.227  0.00  0.00    +0.156 HD
ENDROOT
BRANCH   4  11
ATOM     11  C   UNL     1      -1.778  -2.687   0.839  0.00  0.00    +0.015 A 
ATOM     12  C   UNL     1      -2.992  -3.289   0.761  0.00  0.00    +0.014 A 
ATOM     13  C   UNL     1      -3.537  -3.852   1.894  0.00  0.00    +0.016 A 
ATOM     14  C   UNL     1      -2.832  -3.786   3.066  0.00  0.00    +0.020 A 
ATOM     15  S   UNL     1      -1.359  -2.914   2.560  0.00  0.00    -0.091 S 
BRANCH  14  16
ATOM     16  C   UNL     1      -3.194  -4.306   4.402  0.00  0.00    -0.011 A 
ATOM     17  C   UNL     1      -4.403  -4.978   4.588  0.00  0.00    +0.009 A 
ATOM     18  C   UNL     1      -4.734  -5.461   5.837  0.00  0.00    +0.001 A 
ATOM     19  C   UNL     1      -3.872  -5.281   6.903  0.00  0.00    +0.000 A 
ATOM     20  C   UNL     1      -2.671  -4.616   6.725  0.00  0.00    +0.001 A 
ATOM     21  C   UNL     1      -2.325  -4.132   5.480  0.00  0.00    +0.009 A 
ENDBRANCH  14  16
ENDBRANCH   4  11
BRANCH   3  22
ATOM     22  C   UNL     1      -2.336   0.145  -0.005  0.00  0.00    +0.248 C 
ATOM     23  O   UNL     1      -2.892   0.438  -1.048  0.00  0.00    -0.270 OA
ATOM     24  N   UNL     1      -2.915   0.445   1.175  0.00  0.00    -0.281 N 
ATOM     25  H   UNL     1      -2.456   0.244   2.006  0.00  0.00    +0.155 HD
BRANCH  24  26
ATOM     26  C   UNL     1      -4.177   1.047   1.201  0.00  0.00    +0.045 A 
ATOM     27  C   UNL     1      -4.899   1.201   0.025  0.00  0.00    +0.024 A 
ATOM     28  C   UNL     1      -6.145   1.796   0.054  0.00  0.00    +0.002 A 
ATOM     29  C   UNL     1      -6.674   2.237   1.253  0.00  0.00    +0.001 A 
ATOM     30  C   UNL     1      -5.958   2.085   2.426  0.00  0.00    +0.014 A 
ATOM     31  C   UNL     1      -4.714   1.486   2.405  0.00  0.00    +0.076 A 
BRANCH  31  32
ATOM     32  C   UNL     1      -3.937   1.314   3.684  0.00  0.00    +0.419 C 
ATOM     33  F   UNL     1      -4.733   1.698   4.769  0.00  0.00    -0.166 F 
ATOM     34  F   UNL     1      -3.567  -0.027   3.829  0.00  0.00    -0.166 F 
ATOM     35  F   UNL     1      -2.789   2.112   3.643  0.00  0.00    -0.166 F 
ENDBRANCH  31  32
ENDBRANCH  24  26
ENDBRANCH   3  22
TORSDOF 5
