REMARK  Name = ZINC13541035
REMARK  7 active torsions:
REMARK  status: ('A' for Active; 'I' for Inactive)
REMARK    1  A    between atoms: C_1  and  C_2
REMARK    2  A    between atoms: C_2  and  C_3
REMARK    3  A    between atoms: C_6  and  N_9
REMARK    4  A    between atoms: C_14  and  C_33
REMARK    5  A    between atoms: C_26  and  C_31
REMARK    6  A    between atoms: C_33  and  C_34
REMARK    7  A    between atoms: C_34  and  C_35
REMARK                            x       y       z     vdW  Elec       q    Type
REMARK                         _______ _______ _______ _____ _____    ______ ____
ROOT
ATOM      1  N   UNL     1       2.747  -1.884   4.600  0.00  0.00    -0.210 N 
ATOM      2  C   UNL     1       4.050  -2.191   4.590  0.00  0.00    +0.232 C 
ATOM      3  O   UNL     1       4.782  -2.106   3.628  0.00  0.00    -0.274 OA
ATOM      4  C   UNL     1       4.466  -2.658   5.967  0.00  0.00    +0.107 C 
ATOM      5  C   UNL     1       4.805  -4.163   5.909  0.00  0.00    +0.068 C 
ATOM      6  N   UNL     1       4.121  -4.753   7.090  0.00  0.00    -0.295 NA
ATOM      7  C   UNL     1       2.837  -4.032   7.161  0.00  0.00    +0.136 C 
ATOM      8  C   UNL     1       3.152  -2.562   6.790  0.00  0.00    +0.123 C 
ATOM      9  C   UNL     1       2.146  -2.052   5.784  0.00  0.00    +0.233 C 
ATOM     10  O   UNL     1       0.976  -1.833   6.012  0.00  0.00    -0.274 OA
ATOM     11  C   UNL     1       1.815  -4.636   6.240  0.00  0.00    +0.004 A 
ATOM     12  C   UNL     1       1.769  -4.844   4.880  0.00  0.00    +0.009 A 
ATOM     13  C   UNL     1       0.662  -5.443   4.306  0.00  0.00    +0.021 A 
ATOM     14  C   UNL     1      -0.400  -5.833   5.104  0.00  0.00    +0.046 A 
ATOM     15  C   UNL     1      -0.359  -5.626   6.468  0.00  0.00    -0.011 A 
ATOM     16  C   UNL     1       0.753  -5.024   7.052  0.00  0.00    +0.043 A 
ATOM     17  N   UNL     1       1.026  -4.712   8.386  0.00  0.00    -0.283 N 
ATOM     18  C   UNL     1       2.230  -4.128   8.535  0.00  0.00    +0.243 C 
ATOM     19  O   UNL     1       2.729  -3.751   9.574  0.00  0.00    -0.273 OA
ATOM     20  C   UNL     1      -1.520  -6.053   7.328  0.00  0.00    +0.047 C 
ATOM     21 CL   UNL     1      -1.790  -6.585   4.386  0.00  0.00    -0.083 Cl
ATOM     22  H   UNL     1       3.974  -5.744   6.965  0.00  0.00    +0.123 HD
ATOM     23  H   UNL     1       0.419  -4.895   9.120  0.00  0.00    +0.155 HD
ENDROOT
BRANCH   1  27
ATOM     24  C   UNL     1       0.732  -0.502   1.223  0.00  0.00    -0.048 A 
ATOM     25  C   UNL     1       0.918   0.337   2.307  0.00  0.00    +0.005 A 
ATOM     26  C   UNL     1       1.585  -0.119   3.427  0.00  0.00    +0.024 A 
ATOM     27  C   UNL     1       2.069  -1.419   3.465  0.00  0.00    +0.044 A 
ATOM     28  C   UNL     1       1.881  -2.259   2.375  0.00  0.00    +0.024 A 
ATOM     29  C   UNL     1       1.209  -1.799   1.259  0.00  0.00    +0.005 A 
BRANCH  24  31
ATOM     30  C   UNL     1      -1.494  -0.276   0.153  0.00  0.00    +0.009 C 
ATOM     31  C   UNL     1       0.004  -0.002   0.002  0.00  0.00    +0.032 C 
ENDBRANCH  24  31
ENDBRANCH   1  27
BRANCH   5  32
ATOM     32  C   UNL     1       6.318  -4.373   6.007  0.00  0.00    +0.028 C 
BRANCH  32  33
ATOM     33  C   UNL     1       6.640  -5.857   5.823  0.00  0.00    +0.097 C 
BRANCH  33  34
ATOM     34  C   UNL     1       8.130  -6.063   5.919  0.00  0.00    +0.211 C 
ATOM     35  O   UNL     1       8.862  -5.116   6.116  0.00  0.00    -0.276 OA
ATOM     36  N   UNL     1       8.649  -7.300   5.787  0.00  0.00    -0.329 N 
ATOM     37  H   UNL     1       8.064  -8.057   5.630  0.00  0.00    +0.145 HD
ATOM     38  H   UNL     1       9.608  -7.432   5.849  0.00  0.00    +0.145 HD
ENDBRANCH  33  34
ENDBRANCH  32  33
ENDBRANCH   5  32
TORSDOF 5
