REMARK  Name = ZINC19559722
REMARK  8 active torsions:
REMARK  status: ('A' for Active; 'I' for Inactive)
REMARK    1  A    between atoms: C_1  and  O_2
REMARK    2  A    between atoms: O_2  and  C_3
REMARK    3  A    between atoms: C_6  and  C_10
REMARK    4  A    between atoms: C_8  and  O_9
REMARK    5  A    between atoms: C_10  and  N_11
REMARK    6  A    between atoms: C_15  and  C_18
REMARK    7  A    between atoms: C_20  and  N_32
REMARK    8  A    between atoms: C_25  and  C_27
REMARK                            x       y       z     vdW  Elec       q    Type
REMARK                         _______ _______ _______ _____ _____    ______ ____
ROOT
ATOM      1  N   UNL     1       7.978   8.918  -1.463  0.00  0.00    +0.383 N 
ATOM      2  C   UNL     1       8.024  10.178  -0.711  0.00  0.00    -0.078 C 
ATOM      3  C   UNL     1       7.653   9.915   0.750  0.00  0.00    -0.018 C 
ATOM      4  C   UNL     1       6.248   9.310   0.816  0.00  0.00    +0.006 C 
ATOM      5  C   UNL     1       6.214   8.025  -0.016  0.00  0.00    +0.021 C 
ATOM      6  C   UNL     1       6.626   8.343  -1.455  0.00  0.00    -0.069 C 
ATOM      7  H   UNL     1       8.648   8.204  -0.963  0.00  0.00    -0.081 HD
ENDROOT
BRANCH   5   8
ATOM      8  C   UNL     1       4.819   7.456  -0.006  0.00  0.00    +0.048 A 
ATOM      9  C   UNL     1       3.720   8.315   0.008  0.00  0.00    +0.067 A 
ATOM     10  C   UNL     1       2.456   7.788   0.018  0.00  0.00    +0.122 A 
ATOM     11  N   UNL     1       2.304   6.427   0.013  0.00  0.00    -0.200 N 
ATOM     12  C   UNL     1       3.413   5.620  -0.001  0.00  0.00    +0.158 A 
ATOM     13  N   UNL     1       4.645   6.153  -0.010  0.00  0.00    -0.232 NA
ATOM     14  C   UNL     1       2.964   4.309  -0.003  0.00  0.00    +0.081 A 
ATOM     15  C   UNL     1       1.564   4.342   0.010  0.00  0.00    +0.130 A 
ATOM     16  N   UNL     1       1.172   5.605   0.014  0.00  0.00    -0.160 NA
BRANCH  15  17
ATOM     17  C   UNL     1       0.673   3.161   0.012  0.00  0.00    +0.155 A 
ATOM     18  C   UNL     1      -0.685   3.188   0.024  0.00  0.00    +0.051 A 
ATOM     19  C   UNL     1      -1.118   1.846   0.017  0.00  0.00    +0.042 A 
ATOM     20  C   UNL     1      -0.013   1.076   0.008  0.00  0.00    +0.196 A 
ATOM     21  O   UNL     1       1.068   1.874   0.002  0.00  0.00    -0.461 OA
ENDBRANCH  15  17
BRANCH  10  22
ATOM     22  N   UNL     1       1.354   8.615   0.032  0.00  0.00    -0.343 N 
ATOM     23  H   UNL     1       0.342   8.183   0.039  0.00  0.00    +0.144 HD
ATOM     24  H   UNL     1       1.485   9.707   0.035  0.00  0.00    +0.144 HD
ENDBRANCH  10  22
ENDBRANCH   5   8
BRANCH   1  25
ATOM     25  C   UNL     1       8.461   9.107  -2.837  0.00  0.00    -0.043 C 
BRANCH  25  29
ATOM     26  C   UNL     1      12.615  10.119  -2.761  0.00  0.00    +0.161 A 
ATOM     27  C   UNL     1      11.655  11.117  -2.713  0.00  0.00    +0.049 A 
ATOM     28  C   UNL     1      10.313  10.787  -2.743  0.00  0.00    +0.005 A 
ATOM     29  C   UNL     1       9.925   9.461  -2.811  0.00  0.00    -0.060 A 
ATOM     30  C   UNL     1      10.878   8.461  -2.859  0.00  0.00    +0.051 A 
ATOM     31  C   UNL     1      12.225   8.786  -2.835  0.00  0.00    +0.159 A 
BRANCH  26  33
ATOM     32  C   UNL     1      14.262  11.832  -2.661  0.00  0.00    +0.277 C 
ATOM     33  O   UNL     1      13.936  10.443  -2.737  0.00  0.00    -0.491 OA
ENDBRANCH  26  33
BRANCH  31  34
ATOM     34  O   UNL     1      13.164   7.803  -2.882  0.00  0.00    -0.503 OA
ATOM     35  H   UNL     1      12.854   6.749  -2.940  0.00  0.00    +0.292 HD
ENDBRANCH  31  34
ENDBRANCH  25  29
ENDBRANCH   1  25
TORSDOF 7
