REMARK  Name = ZINC39682614
REMARK  8 active torsions:
REMARK  status: ('A' for Active; 'I' for Inactive)
REMARK    1  A    between atoms: C_1  and  C_2
REMARK    2  A    between atoms: C_5  and  C_8
REMARK    3  A    between atoms: C_8  and  C_9
REMARK    4  A    between atoms: C_13  and  C_22
REMARK    5  A    between atoms: N_24  and  C_25
REMARK    6  A    between atoms: C_25  and  C_27
REMARK    7  A    between atoms: C_25  and  C_31
REMARK    8  A    between atoms: C_27  and  C_28
REMARK                            x       y       z     vdW  Elec       q    Type
REMARK                         _______ _______ _______ _____ _____    ______ ____
ROOT
ATOM      1  C   UNL     1       1.215  -5.846   0.954  0.00  0.00    +0.220 C 
ATOM      2  O   UNL     1       1.968  -4.910   1.125  0.00  0.00    -0.275 OA
ATOM      3  N   UNL     1       1.709  -7.057   0.630  0.00  0.00    -0.300 N 
ATOM      4  C   UNL     1       0.955  -8.308   0.378  0.00  0.00    +0.121 C 
ATOM      5  C   UNL     1       1.690  -8.975  -0.806  0.00  0.00    +0.100 C 
ATOM      6  C   UNL     1       3.117  -8.403  -0.755  0.00  0.00    -0.004 C 
ATOM      7  C   UNL     1       3.129  -7.439   0.440  0.00  0.00    +0.115 C 
ATOM      8  C   UNL     1       3.429  -7.644  -2.041  0.00  0.00    -0.010 C 
ATOM      9  C   UNL     1       4.872  -7.133  -1.990  0.00  0.00    -0.082 C 
ATOM     10  N   UNL     1       5.789  -8.269  -1.833  0.00  0.00    +0.379 N 
ATOM     11  C   UNL     1       5.543  -8.938  -0.550  0.00  0.00    -0.082 C 
ATOM     12  C   UNL     1       4.129  -9.524  -0.540  0.00  0.00    -0.010 C 
ATOM     13  H   UNL     1       5.642  -8.924  -2.586  0.00  0.00    -0.086 HD
ATOM     14  H   UNL     1       6.741  -7.936  -1.861  0.00  0.00    -0.086 HD
ENDROOT
BRANCH   5  15
ATOM     15  C   UNL     1       1.024  -8.613  -2.109  0.00  0.00    +0.219 C 
ATOM     16  O   UNL     1       0.546  -7.508  -2.259  0.00  0.00    -0.275 OA
ATOM     17  N   UNL     1       0.960  -9.516  -3.107  0.00  0.00    -0.308 N 
ATOM     18  H   UNL     1       1.278 -10.421  -2.963  0.00  0.00    +0.149 HD
BRANCH  17  19
ATOM     19  C   UNL     1       0.410  -9.131  -4.409  0.00  0.00    +0.114 C 
BRANCH  19  20
ATOM     20  C   UNL     1      -1.095  -9.165  -4.349  0.00  0.00    -0.027 A 
ATOM     21  C   UNL     1      -1.737 -10.178  -3.660  0.00  0.00    +0.005 A 
ATOM     22  C   UNL     1      -3.118 -10.209  -3.605  0.00  0.00    +0.000 A 
ATOM     23  C   UNL     1      -3.857  -9.227  -4.239  0.00  0.00    +0.000 A 
ATOM     24  C   UNL     1      -3.215  -8.214  -4.926  0.00  0.00    +0.000 A 
ATOM     25  C   UNL     1      -1.834  -8.181  -4.978  0.00  0.00    +0.005 A 
ENDBRANCH  19  20
BRANCH  19  26
ATOM     26  C   UNL     1       0.900 -10.109  -5.479  0.00  0.00    +0.152 C 
BRANCH  26  27
ATOM     27  C   UNL     1       2.393  -9.977  -5.634  0.00  0.00    +0.358 C 
ATOM     28  O   UNL     1       2.994  -9.103  -5.033  0.00  0.00    -0.246 OA
ATOM     29  O   UNL     1       3.001 -10.745  -6.361  0.00  0.00    -0.246 OA
ENDBRANCH  26  27
ENDBRANCH  19  26
ENDBRANCH  17  19
ENDBRANCH   5  15
BRANCH   1  30
ATOM     30  C   UNL     1      -0.272  -5.654   1.103  0.00  0.00    +0.131 C 
BRANCH  30  35
ATOM     31  C   UNL     1      -1.377  -0.154   2.493  0.00  0.00    +0.044 C 
ATOM     32  C   UNL     1      -1.089  -1.589   2.130  0.00  0.00    -0.050 A 
ATOM     33  C   UNL     1      -1.036  -1.969   0.802  0.00  0.00    +0.003 A 
ATOM     34  C   UNL     1      -0.772  -3.284   0.470  0.00  0.00    +0.004 A 
ATOM     35  C   UNL     1      -0.559  -4.219   1.466  0.00  0.00    -0.039 A 
ATOM     36  C   UNL     1      -0.610  -3.839   2.794  0.00  0.00    +0.004 A 
ATOM     37  C   UNL     1      -0.871  -2.522   3.126  0.00  0.00    +0.003 A 
ENDBRANCH  30  35
ENDBRANCH   1  30
TORSDOF 7
