REMARK  Name = ZINC39597900
REMARK  6 active torsions:
REMARK  status: ('A' for Active; 'I' for Inactive)
REMARK    1  A    between atoms: C_7  and  C_10
REMARK    2  A    between atoms: C_10  and  C_11
REMARK    3  A    between atoms: C_11  and  N_12
REMARK    4  A    between atoms: C_13  and  C_15
REMARK    5  A    between atoms: C_26  and  C_28
REMARK    6  A    between atoms: C_31  and  C_33
REMARK                            x       y       z     vdW  Elec       q    Type
REMARK                         _______ _______ _______ _____ _____    ______ ____
ROOT
ATOM      1  C   UNL     1      -5.660   7.126  -2.507  0.00  0.00    +0.100 C 
ATOM      2  C   UNL     1      -4.766   8.038  -1.638  0.00  0.00    +0.121 C 
ATOM      3  N   UNL     1      -3.832   8.672  -2.598  0.00  0.00    -0.294 N 
ATOM      4  C   UNL     1      -4.667   8.961  -3.788  0.00  0.00    +0.115 C 
ATOM      5  C   UNL     1      -5.596   7.737  -3.917  0.00  0.00    -0.004 C 
ATOM      6  C   UNL     1      -5.007   6.731  -4.902  0.00  0.00    -0.010 C 
ATOM      7  C   UNL     1      -5.006   7.341  -6.307  0.00  0.00    -0.082 C 
ATOM      8  N   UNL     1      -6.379   7.689  -6.692  0.00  0.00    +0.379 N 
ATOM      9  C   UNL     1      -6.904   8.725  -5.795  0.00  0.00    -0.082 C 
ATOM     10  C   UNL     1      -6.986   8.173  -4.368  0.00  0.00    -0.010 C 
ATOM     11  C   UNL     1      -2.520   8.928  -2.428  0.00  0.00    +0.282 C 
ATOM     12  O   UNL     1      -1.883   9.459  -3.318  0.00  0.00    -0.267 OA
ATOM     13  H   UNL     1      -6.383   8.034  -7.641  0.00  0.00    -0.086 HD
ATOM     14  H   UNL     1      -6.962   6.867  -6.633  0.00  0.00    -0.086 HD
ENDROOT
BRANCH  11  15
ATOM     15  C   UNL     1      -1.860   8.566  -1.171  0.00  0.00    +0.190 A 
ATOM     16  C   UNL     1      -0.533   8.775  -0.864  0.00  0.00    +0.055 A 
ATOM     17  C   UNL     1      -0.335   8.281   0.429  0.00  0.00    +0.050 A 
ATOM     18  C   UNL     1      -1.536   7.794   0.861  0.00  0.00    +0.136 A 
ATOM     19  O   UNL     1      -2.448   7.976  -0.108  0.00  0.00    -0.450 OA
BRANCH  18  20
ATOM     20  C   UNL     1      -1.790   7.175   2.177  0.00  0.00    +0.017 A 
ATOM     21  C   UNL     1      -0.754   7.053   3.106  0.00  0.00    +0.014 A 
ATOM     22  C   UNL     1      -0.998   6.474   4.334  0.00  0.00    +0.039 A 
ATOM     23  C   UNL     1      -2.267   6.013   4.646  0.00  0.00    +0.123 A 
ATOM     24  C   UNL     1      -3.299   6.131   3.728  0.00  0.00    +0.039 A 
ATOM     25  C   UNL     1      -3.068   6.713   2.499  0.00  0.00    +0.014 A 
ATOM     26  F   UNL     1      -2.500   5.447   5.851  0.00  0.00    -0.205 F 
ENDBRANCH  18  20
ENDBRANCH  11  15
BRANCH   1  28
ATOM     27  N   UNL     1      -5.956   4.677  -2.696  0.00  0.00    -0.315 N 
ATOM     28  C   UNL     1      -5.120   5.719  -2.519  0.00  0.00    +0.218 C 
ATOM     29  O   UNL     1      -3.932   5.525  -2.370  0.00  0.00    -0.275 OA
ATOM     30  H   UNL     1      -6.906   4.833  -2.816  0.00  0.00    +0.149 HD
BRANCH  27  31
ATOM     31  C   UNL     1      -5.431   3.310  -2.708  0.00  0.00    +0.109 C 
BRANCH  31  32
ATOM     32  C   UNL     1      -6.580   2.324  -2.924  0.00  0.00    +0.056 C 
BRANCH  32  39
ATOM     33  C   UNL     1      -5.611  -0.770   0.462  0.00  0.00    +0.001 A 
ATOM     34  C   UNL     1      -5.118  -1.971  -0.028  0.00  0.00    +0.002 A 
ATOM     35  C   UNL     1      -4.957  -2.164  -1.383  0.00  0.00    +0.026 A 
ATOM     36  C   UNL     1      -5.290  -1.147  -2.271  0.00  0.00    +0.047 A 
ATOM     37  N   UNL     1      -5.246  -1.032  -3.642  0.00  0.00    -0.360 N 
ATOM     38  C   UNL     1      -5.696   0.203  -4.021  0.00  0.00    +0.087 A 
ATOM     39  C   UNL     1      -6.040   0.917  -2.937  0.00  0.00    -0.021 A 
ATOM     40  C   UNL     1      -5.790   0.069  -1.769  0.00  0.00    +0.003 A 
ATOM     41  C   UNL     1      -5.950   0.241  -0.393  0.00  0.00    +0.010 A 
ATOM     42  H   UNL     1      -4.940  -1.724  -4.249  0.00  0.00    +0.165 HD
ENDBRANCH  32  39
ENDBRANCH  31  32
ENDBRANCH  27  31
ENDBRANCH   1  28
TORSDOF 6
