REMARK  Name = ZINC56328113
REMARK  5 active torsions:
REMARK  status: ('A' for Active; 'I' for Inactive)
REMARK    1  A    between atoms: C_1  and  N_2
REMARK    2  A    between atoms: C_10  and  C_11
REMARK    3  A    between atoms: N_13  and  C_14
REMARK    4  A    between atoms: C_14  and  C_15
REMARK    5  A    between atoms: C_15  and  C_16
REMARK                            x       y       z     vdW  Elec       q    Type
REMARK                         _______ _______ _______ _____ _____    ______ ____
ROOT
ATOM      1  C   UNL     1       0.044  -0.142   2.436  0.00  0.00    +0.262 C 
ATOM      2  O   UNL     1       0.186  -0.861   3.407  0.00  0.00    -0.269 OA
ATOM      3  N   UNL     1      -0.103   1.188   2.597  0.00  0.00    -0.310 N 
ATOM      4  H   UNL     1      -0.290   1.752   1.831  0.00  0.00    +0.149 HD
ENDROOT
BRANCH   1  14
ATOM      5  C   UNL     1      -2.480  -0.773   0.773  0.00  0.00    +0.149 C 
ATOM      6  N   UNL     1      -1.099  -1.005   0.344  0.00  0.00    -0.338 N 
ATOM      7  C   UNL     1      -0.714  -1.534  -0.866  0.00  0.00    +0.051 A 
ATOM      8  C   UNL     1      -1.423  -1.981  -1.978  0.00  0.00    +0.026 A 
ATOM      9  C   UNL     1      -0.744  -2.470  -3.071  0.00  0.00    +0.002 A 
ATOM     10  C   UNL     1       0.644  -2.522  -3.077  0.00  0.00    +0.001 A 
ATOM     11  C   UNL     1       1.360  -2.090  -1.999  0.00  0.00    +0.011 A 
ATOM     12  C   UNL     1       0.693  -1.588  -0.875  0.00  0.00    +0.019 A 
ATOM     13  C   UNL     1       1.135  -1.074   0.370  0.00  0.00    +0.079 A 
ATOM     14  C   UNL     1       0.033  -0.724   1.087  0.00  0.00    +0.124 A 
ATOM     15 CL   UNL     1       2.785  -0.915   0.884  0.00  0.00    -0.081 Cl
ENDBRANCH   1  14
BRANCH   3  16
ATOM     16  C   UNL     1       0.021   1.782   3.930  0.00  0.00    +0.111 C 
BRANCH  16  17
ATOM     17  C   UNL     1      -0.188   3.295   3.836  0.00  0.00    +0.075 C 
BRANCH  17  18
ATOM     18  C   UNL     1      -0.060   3.906   5.208  0.00  0.00    +0.062 A 
ATOM     19  C   UNL     1       0.774   4.912   5.548  0.00  0.00    +0.116 A 
ATOM     20  N   UNL     1       0.579   5.167   6.878  0.00  0.00    -0.306 N 
ATOM     21  C   UNL     1       1.141   6.066   7.738  0.00  0.00    +0.092 A 
ATOM     22  C   UNL     1       0.760   6.110   9.032  0.00  0.00    +0.018 A 
ATOM     23  C   UNL     1      -0.223   5.229   9.511  0.00  0.00    +0.005 A 
ATOM     24  C   UNL     1      -0.792   4.328   8.665  0.00  0.00    +0.047 A 
ATOM     25  C   UNL     1      -0.383   4.295   7.316  0.00  0.00    +0.138 A 
ATOM     26  N   UNL     1      -0.758   3.547   6.288  0.00  0.00    -0.233 NA
ENDBRANCH  17  18
ENDBRANCH  16  17
ENDBRANCH   3  16
TORSDOF 4
