REMARK  Name = ZINC19881714
REMARK  6 active torsions:
REMARK  status: ('A' for Active; 'I' for Inactive)
REMARK    1  A    between atoms: C_1  and  O_2
REMARK    2  A    between atoms: O_2  and  C_3
REMARK    3  A    between atoms: C_7  and  C_20
REMARK    4  A    between atoms: C_8  and  O_9
REMARK    5  A    between atoms: O_9  and  S_10
REMARK    6  A    between atoms: S_10  and  C_13
REMARK                            x       y       z     vdW  Elec       q    Type
REMARK                         _______ _______ _______ _____ _____    ______ ____
ROOT
ATOM      1  C   UNL     1       3.047   5.022  -1.677  0.00  0.00    +0.165 A 
ATOM      2  C   UNL     1       2.188   5.808  -2.431  0.00  0.00    +0.049 A 
ATOM      3  C   UNL     1       1.229   5.221  -3.239  0.00  0.00    +0.004 A 
ATOM      4  C   UNL     1       1.118   3.849  -3.304  0.00  0.00    +0.012 A 
ATOM      5  C   UNL     1       1.981   3.041  -2.554  0.00  0.00    +0.024 A 
ATOM      6  C   UNL     1       2.949   3.637  -1.730  0.00  0.00    +0.205 A 
ENDROOT
BRANCH   5   7
ATOM      7  C   UNL     1       1.871   1.578  -2.624  0.00  0.00    +0.032 C 
ATOM      8  C   UNL     1       1.209   0.997  -3.655  0.00  0.00    +0.078 C 
ATOM      9  C   UNL     1       0.816  -0.414  -3.838  0.00  0.00    +0.256 C 
ATOM     10  O   UNL     1       1.075  -1.260  -3.002  0.00  0.00    -0.269 OA
ATOM     11  N   UNL     1       0.171  -0.717  -4.952  0.00  0.00    -0.261 N 
ATOM     12  C   UNL     1      -0.113   0.257  -5.887  0.00  0.00    +0.158 C 
ATOM     13  N   UNL     1      -0.735   0.132  -7.027  0.00  0.00    -0.279 NA
ATOM     14  S   UNL     1       0.573   1.734  -5.153  0.00  0.00    -0.049 S 
ATOM     15  H   UNL     1      -0.146  -1.754  -5.138  0.00  0.00    +0.157 HD
ATOM     16  H   UNL     1      -1.108  -0.853  -7.344  0.00  0.00    +0.189 HD
ENDBRANCH   5   7
BRANCH   1  18
ATOM     17  C   UNL     1       4.029   7.036  -0.879  0.00  0.00    +0.277 C 
ATOM     18  O   UNL     1       3.985   5.607  -0.885  0.00  0.00    -0.491 OA
ENDBRANCH   1  18
BRANCH   6  19
ATOM     19  O   UNL     1       3.788   2.864  -0.993  0.00  0.00    -0.338 OA
BRANCH  19  20
ATOM     20  S   UNL     1       3.346   2.674   0.451  0.00  0.00    +0.151 S 
ATOM     21  O   UNL     1       2.822   3.921   0.883  0.00  0.00    -0.131 OA
ATOM     22  O   UNL     1       4.418   2.024   1.121  0.00  0.00    -0.131 OA
BRANCH  20  23
ATOM     23  C   UNL     1       1.998   1.539   0.437  0.00  0.00    +0.128 A 
ATOM     24  C   UNL     1       0.703   2.006   0.319  0.00  0.00    +0.032 A 
ATOM     25  C   UNL     1      -0.355   1.116   0.309  0.00  0.00    +0.022 A 
ATOM     26  C   UNL     1      -0.117  -0.242   0.418  0.00  0.00    +0.041 A 
ATOM     27  C   UNL     1       1.180  -0.709   0.536  0.00  0.00    +0.022 A 
ATOM     28  C   UNL     1       2.237   0.181   0.546  0.00  0.00    +0.032 A 
ATOM     29 CL   UNL     1      -1.445  -1.360   0.406  0.00  0.00    -0.084 Cl
ENDBRANCH  20  23
ENDBRANCH  19  20
ENDBRANCH   6  19
TORSDOF 5
