REMARK  Name = ZINC20467405
REMARK  12 active torsions:
REMARK  status: ('A' for Active; 'I' for Inactive)
REMARK    1  A    between atoms: C_1  and  C_2
REMARK    2  A    between atoms: C_4  and  N_32
REMARK    3  A    between atoms: C_8  and  C_31
REMARK    4  A    between atoms: C_11  and  O_30
REMARK    5  A    between atoms: C_13  and  C_17
REMARK    6  A    between atoms: C_17  and  C_19
REMARK    7  A    between atoms: C_17  and  C_20
REMARK    8  A    between atoms: N_22  and  C_23
REMARK    9  A    between atoms: C_23  and  C_24
REMARK   10  A    between atoms: C_24  and  N_25
REMARK   11  A    between atoms: N_32  and  S_33
REMARK   12  A    between atoms: S_33  and  C_36
REMARK                            x       y       z     vdW  Elec       q    Type
REMARK                         _______ _______ _______ _____ _____    ______ ____
ROOT
ATOM      1  C   UNL     1       4.231   2.192   0.642  0.00  0.00    +0.009 C 
ATOM      2  C   UNL     1       2.850   1.614   0.960  0.00  0.00    +0.011 C 
ATOM      3  C   UNL     1       2.997   0.158   1.407  0.00  0.00    +0.079 C 
ATOM      4  C   UNL     1       1.617  -0.420   1.726  0.00  0.00    +0.021 C 
ATOM      5  C   UNL     1       0.737  -0.357   0.475  0.00  0.00    +0.008 C 
ATOM      6  C   UNL     1       0.590   1.099   0.028  0.00  0.00    -0.027 C 
ATOM      7  C   UNL     1       1.970   1.677  -0.290  0.00  0.00    +0.028 C 
ATOM      8  C   UNL     1       1.823   3.133  -0.737  0.00  0.00    +0.122 C 
ATOM      9  C   UNL     1       0.943   3.196  -1.987  0.00  0.00    +0.029 C 
ATOM     10  C   UNL     1      -0.438   2.618  -1.669  0.00  0.00    +0.007 C 
ATOM     11  C   UNL     1      -0.290   1.162  -1.222  0.00  0.00    +0.007 C 
ATOM     12  C   UNL     1      -0.058   1.914   1.149  0.00  0.00    +0.011 C 
ENDROOT
BRANCH   9  13
ATOM     13  C   UNL     1       0.796   4.651  -2.435  0.00  0.00    +0.077 C 
ATOM     14  C   UNL     1       0.014   5.433  -1.377  0.00  0.00    +0.017 C 
BRANCH  13  15
ATOM     15  C   UNL     1       0.055   4.702  -3.746  0.00  0.00    +0.216 C 
ATOM     16  O   UNL     1      -0.295   3.673  -4.284  0.00  0.00    -0.276 OA
ATOM     17  N   UNL     1      -0.219   5.890  -4.320  0.00  0.00    -0.317 N 
ATOM     18  H   UNL     1       0.098   6.823  -3.831  0.00  0.00    +0.149 HD
BRANCH  17  19
ATOM     19  C   UNL     1      -0.940   5.939  -5.595  0.00  0.00    +0.085 C 
BRANCH  19  20
ATOM     20  C   UNL     1      -1.120   7.396  -6.023  0.00  0.00    -0.060 C 
BRANCH  20  21
ATOM     21  N   UNL     1      -1.842   7.445  -7.301  0.00  0.00    +0.381 N 
ATOM     22  C   UNL     1      -3.103   6.663  -7.230  0.00  0.00    -0.079 C 
ATOM     23  C   UNL     1      -3.944   7.240  -8.397  0.00  0.00    -0.020 C 
ATOM     24  C   UNL     1      -3.596   8.746  -8.362  0.00  0.00    -0.020 C 
ATOM     25  C   UNL     1      -2.244   8.830  -7.630  0.00  0.00    -0.079 C 
ATOM     26  H   UNL     1      -1.149   7.037  -8.052  0.00  0.00    -0.082 HD
ENDBRANCH  20  21
ENDBRANCH  19  20
ENDBRANCH  17  19
ENDBRANCH  13  15
ENDBRANCH   9  13
BRANCH   8  27
ATOM     27  O   UNL     1       3.112   3.672  -1.035  0.00  0.00    -0.391 OA
ATOM     28  H   UNL     1       3.207   4.714  -1.374  0.00  0.00    +0.210 HD
ENDBRANCH   8  27
BRANCH   3  29
ATOM     29  N   UNL     1       3.840   0.098   2.604  0.00  0.00    -0.191 NA
ATOM     30  H   UNL     1       3.917   0.972   3.267  0.00  0.00    +0.148 HD
BRANCH  29  31
ATOM     31  S   UNL     1       4.865  -1.183   2.832  0.00  0.00    +0.027 S 
ATOM     32  O   UNL     1       5.493  -0.927   4.080  0.00  0.00    -0.158 OA
ATOM     33  O   UNL     1       4.052  -2.334   2.652  0.00  0.00    -0.158 OA
ATOM     34  C   UNL     1       6.075  -1.056   1.486  0.00  0.00    +0.214 C 
ENDBRANCH  29  31
ENDBRANCH   3  29
TORSDOF 8
