REMARK  Name = ZINC63663809
REMARK  11 active torsions:
REMARK  status: ('A' for Active; 'I' for Inactive)
REMARK    1  A    between atoms: C_1  and  C_2
REMARK    2  A    between atoms: C_2  and  N_3
REMARK    3  A    between atoms: N_6  and  C_9
REMARK    4  A    between atoms: C_9  and  C_11
REMARK    5  A    between atoms: C_9  and  C_16
REMARK    6  A    between atoms: C_16  and  C_18
REMARK    7  A    between atoms: C_16  and  N_19
REMARK    8  A    between atoms: C_20  and  C_22
REMARK    9  A    between atoms: N_24  and  C_25
REMARK   10  A    between atoms: C_25  and  C_26
REMARK   11  A    between atoms: C_26  and  C_27
REMARK                            x       y       z     vdW  Elec       q    Type
REMARK                         _______ _______ _______ _____ _____    ______ ____
ROOT
ATOM      1  N   UNL     1      -5.691  -4.927  -0.908  0.00  0.00    -0.303 N 
ATOM      2  C   UNL     1      -5.629  -6.148  -0.340  0.00  0.00    +0.299 C 
ATOM      3  O   UNL     1      -4.567  -6.578   0.061  0.00  0.00    -0.265 OA
ATOM      4  H   UNL     1      -6.539  -4.584  -1.228  0.00  0.00    +0.149 HD
ENDROOT
BRANCH   2   5
ATOM      5  C   UNL     1      -6.868  -6.971  -0.202  0.00  0.00    +0.299 C 
ATOM      6  O   UNL     1      -7.930  -6.542  -0.603  0.00  0.00    -0.265 OA
ATOM      7  N   UNL     1      -6.807  -8.192   0.366  0.00  0.00    -0.307 N 
ATOM      8  H   UNL     1      -5.958  -8.536   0.686  0.00  0.00    +0.149 HD
BRANCH   7   9
ATOM      9  C   UNL     1      -8.022  -8.999   0.501  0.00  0.00    +0.109 C 
BRANCH   9  10
ATOM     10  C   UNL     1      -7.678 -10.330   1.174  0.00  0.00    +0.052 C 
BRANCH  10  11
ATOM     11  C   UNL     1      -8.928 -11.160   1.312  0.00  0.00    -0.040 C 
ATOM     12  C   UNL     1      -9.363 -12.121   0.466  0.00  0.00    -0.001 A 
ATOM     13  C   UNL     1      -8.826 -12.659  -0.789  0.00  0.00    +0.010 A 
ATOM     14  C   UNL     1      -9.503 -13.641  -1.426  0.00  0.00    +0.001 A 
ATOM     15  C   UNL     1     -10.703 -14.158  -0.917  0.00  0.00    +0.002 A 
ATOM     16  C   UNL     1     -11.259 -13.715   0.230  0.00  0.00    +0.026 A 
ATOM     17  C   UNL     1     -10.632 -12.684   0.982  0.00  0.00    +0.043 A 
ATOM     18  N   UNL     1     -10.967 -12.094   2.103  0.00  0.00    -0.380 N 
ATOM     19  C   UNL     1      -9.945 -11.093   2.429  0.00  0.00    +0.144 C 
ATOM     20  H   UNL     1     -11.757 -12.289   2.632  0.00  0.00    +0.160 HD
ENDBRANCH  10  11
ENDBRANCH   9  10
ENDBRANCH   7   9
ENDBRANCH   2   5
BRANCH   1  21
ATOM     21  C   UNL     1      -4.476  -4.120  -1.043  0.00  0.00    +0.092 C 
ATOM     22  C   UNL     1      -3.738  -4.518  -2.323  0.00  0.00    +0.030 C 
BRANCH  21  23
ATOM     23  C   UNL     1      -4.853  -2.639  -1.111  0.00  0.00    +0.113 C 
BRANCH  23  27
ATOM     24  N   UNL     1      -1.705   0.080  -0.355  0.00  0.00    +0.381 N 
ATOM     25  C   UNL     1      -2.665   0.412  -1.416  0.00  0.00    -0.063 C 
ATOM     26  C   UNL     1      -3.950  -0.394  -1.213  0.00  0.00    +0.066 C 
ATOM     27  N   UNL     1      -3.634  -1.829  -1.246  0.00  0.00    -0.297 NA
ATOM     28  C   UNL     1      -2.656  -2.172  -0.205  0.00  0.00    +0.066 C 
ATOM     29  C   UNL     1      -1.381  -1.351  -0.416  0.00  0.00    -0.063 C 
ATOM     30  H   UNL     1      -2.110   0.295   0.544  0.00  0.00    -0.082 HD
BRANCH  24  32
ATOM     31  C   UNL     1      -0.793   2.353  -0.353  0.00  0.00    -0.017 C 
ATOM     32  C   UNL     1      -0.479   0.867  -0.540  0.00  0.00    -0.082 C 
ENDBRANCH  24  32
ENDBRANCH  23  27
BRANCH  23  33
ATOM     33  C   UNL     1      -5.579  -2.247   0.150  0.00  0.00    +0.009 A 
ATOM     34  C   UNL     1      -6.888  -1.938   0.320  0.00  0.00    +0.013 A 
ATOM     35  C   UNL     1      -7.339  -1.605   1.583  0.00  0.00    +0.008 A 
ATOM     36  C   UNL     1      -6.460  -1.596   2.615  0.00  0.00    +0.045 A 
ATOM     37  S   UNL     1      -4.941  -2.076   1.808  0.00  0.00    -0.100 S 
ENDBRANCH  23  33
ENDBRANCH  21  23
ENDBRANCH   1  21
TORSDOF 9
