REMARK  Name = ZINC17242430
REMARK  10 active torsions:
REMARK  status: ('A' for Active; 'I' for Inactive)
REMARK    1  A    between atoms: C_1  and  C_2
REMARK    2  A    between atoms: C_2  and  C_39
REMARK    3  A    between atoms: C_6  and  C_26
REMARK    4  A    between atoms: C_13  and  S_17
REMARK    5  A    between atoms: S_17  and  C_18
REMARK    6  A    between atoms: C_18  and  C_19
REMARK    7  A    between atoms: C_29  and  O_34
REMARK    8  A    between atoms: C_30  and  O_32
REMARK    9  A    between atoms: O_32  and  C_33
REMARK   10  A    between atoms: O_34  and  C_35
REMARK                            x       y       z     vdW  Elec       q    Type
REMARK                         _______ _______ _______ _____ _____    ______ ____
ROOT
ATOM      1  C   UNL     1      -5.422  -0.128  -3.491  0.00  0.00    +0.011 C 
ATOM      2  C   UNL     1      -6.591  -1.104  -3.642  0.00  0.00    -0.023 C 
ATOM      3  C   UNL     1      -7.516  -0.993  -2.428  0.00  0.00    +0.058 C 
ATOM      4  C   UNL     1      -6.755  -1.357  -1.176  0.00  0.00    +0.017 C 
ATOM      5  C   UNL     1      -5.747  -2.254  -1.212  0.00  0.00    +0.024 C 
ATOM      6  C   UNL     1      -4.987  -2.627   0.035  0.00  0.00    +0.093 C 
ATOM      7  C   UNL     1      -5.738  -2.233   1.272  0.00  0.00    +0.069 A 
ATOM      8  C   UNL     1      -5.405  -2.793   2.511  0.00  0.00    +0.258 A 
ATOM      9  O   UNL     1      -4.502  -3.610   2.601  0.00  0.00    -0.267 OA
ATOM     10  N   UNL     1      -6.099  -2.411   3.604  0.00  0.00    -0.302 N 
ATOM     11  H   UNL     1      -5.883  -2.789   4.471  0.00  0.00    +0.171 HD
ATOM     12  C   UNL     1      -7.103  -1.498   3.491  0.00  0.00    +0.171 A 
ATOM     13  N   UNL     1      -7.423  -0.970   2.327  0.00  0.00    -0.208 NA
ATOM     14  C   UNL     1      -6.770  -1.313   1.212  0.00  0.00    +0.135 A 
ATOM     15  N   UNL     1      -7.118  -0.754  -0.003  0.00  0.00    -0.302 N 
ATOM     16  C   UNL     1      -5.370  -2.871  -2.419  0.00  0.00    +0.162 C 
ATOM     17  O   UNL     1      -4.471  -3.688  -2.414  0.00  0.00    -0.292 OA
ATOM     18  C   UNL     1      -6.058  -2.540  -3.714  0.00  0.00    +0.086 C 
ATOM     19  C   UNL     1      -7.372  -0.780  -4.917  0.00  0.00    +0.011 C 
ATOM     20  H   UNL     1      -7.624   0.073  -0.024  0.00  0.00    +0.153 HD
ENDROOT
BRANCH   6  21
ATOM     21  C   UNL     1      -3.652  -1.928   0.026  0.00  0.00    -0.032 A 
ATOM     22  C   UNL     1      -3.596  -0.546   0.034  0.00  0.00    +0.008 A 
ATOM     23  C   UNL     1      -2.374   0.099   0.031  0.00  0.00    +0.050 A 
ATOM     24  C   UNL     1      -1.201  -0.638   0.010  0.00  0.00    +0.162 A 
ATOM     25  C   UNL     1      -1.257  -2.028   0.003  0.00  0.00    +0.162 A 
ATOM     26  C   UNL     1      -2.485  -2.669   0.011  0.00  0.00    +0.054 A 
BRANCH  25  27
ATOM     27  O   UNL     1      -0.108  -2.756  -0.011  0.00  0.00    -0.491 OA
ATOM     28  C   UNL     1      -0.242  -4.179  -0.018  0.00  0.00    +0.277 C 
ENDBRANCH  25  27
BRANCH  24  29
ATOM     29  O   UNL     1       0.002  -0.004   0.002  0.00  0.00    -0.491 OA
ATOM     30  C   UNL     1      -0.017   1.425   0.010  0.00  0.00    +0.277 C 
ENDBRANCH  24  29
ENDBRANCH   6  21
BRANCH  12  31
ATOM     31  S   UNL     1      -7.994  -1.013   4.932  0.00  0.00    -0.083 S 
BRANCH  31  32
ATOM     32  C   UNL     1      -9.154   0.169   4.202  0.00  0.00    +0.115 C 
BRANCH  32  33
ATOM     33  C   UNL     1     -10.044   0.731   5.280  0.00  0.00    -0.002 A 
ATOM     34  C   UNL     1     -11.239   0.107   5.585  0.00  0.00    +0.007 A 
ATOM     35  C   UNL     1     -12.053   0.619   6.578  0.00  0.00    +0.000 A 
ATOM     36  C   UNL     1     -11.679   1.762   7.260  0.00  0.00    +0.003 A 
ATOM     37  C   UNL     1     -10.487   2.390   6.953  0.00  0.00    +0.038 A 
ATOM     38  C   UNL     1      -9.668   1.875   5.963  0.00  0.00    +0.127 A 
ATOM     39  F   UNL     1      -8.503   2.489   5.662  0.00  0.00    -0.205 F 
ENDBRANCH  32  33
ENDBRANCH  31  32
ENDBRANCH  12  31
TORSDOF 6
