REMARK  Name = ZINC39671087
REMARK  7 active torsions:
REMARK  status: ('A' for Active; 'I' for Inactive)
REMARK    1  A    between atoms: C_1  and  C_2
REMARK    2  A    between atoms: C_5  and  C_12
REMARK    3  A    between atoms: N_9  and  C_11
REMARK    4  A    between atoms: C_16  and  C_25
REMARK    5  A    between atoms: N_27  and  C_28
REMARK    6  A    between atoms: C_28  and  C_29
REMARK    7  A    between atoms: C_29  and  C_30
REMARK                            x       y       z     vdW  Elec       q    Type
REMARK                         _______ _______ _______ _____ _____    ______ ____
ROOT
ATOM      1  C   UNL     1      -0.102  -1.393  -5.144  0.00  0.00    +0.250 C 
ATOM      2  O   UNL     1      -0.234  -0.321  -5.702  0.00  0.00    -0.270 OA
ATOM      3  N   UNL     1       0.048  -2.517  -5.872  0.00  0.00    -0.296 N 
ATOM      4  C   UNL     1       0.114  -3.914  -5.382  0.00  0.00    +0.121 C 
ATOM      5  C   UNL     1      -0.687  -4.731  -6.421  0.00  0.00    +0.100 C 
ATOM      6  C   UNL     1      -0.636  -3.888  -7.706  0.00  0.00    -0.004 C 
ATOM      7  C   UNL     1       0.177  -2.636  -7.345  0.00  0.00    +0.115 C 
ATOM      8  C   UNL     1       0.056  -4.665  -8.821  0.00  0.00    -0.010 C 
ATOM      9  C   UNL     1       0.042  -3.829 -10.104  0.00  0.00    -0.082 C 
ATOM     10  N   UNL     1      -1.344  -3.528 -10.480  0.00  0.00    +0.379 N 
ATOM     11  C   UNL     1      -1.975  -2.701  -9.443  0.00  0.00    -0.082 C 
ATOM     12  C   UNL     1      -2.046  -3.489  -8.132  0.00  0.00    -0.010 C 
ATOM     13  H   UNL     1      -1.353  -3.030 -11.357  0.00  0.00    -0.086 HD
ATOM     14  H   UNL     1      -1.859  -4.390 -10.580  0.00  0.00    -0.086 HD
ENDROOT
BRANCH   1  19
ATOM     15  C   UNL     1      -2.570   1.083  -0.576  0.00  0.00    +0.068 C 
ATOM     16  C   UNL     1      -1.563  -0.031  -0.438  0.00  0.00    +0.071 A 
ATOM     17  C   UNL     1      -0.885  -0.720  -1.530  0.00  0.00    +0.060 A 
ATOM     18  C   UNL     1      -0.921  -0.608  -2.924  0.00  0.00    +0.067 A 
ATOM     19  C   UNL     1      -0.107  -1.463  -3.670  0.00  0.00    +0.074 A 
ATOM     20  C   UNL     1       0.705  -2.390  -3.001  0.00  0.00    +0.127 A 
ATOM     21  N   UNL     1       0.715  -2.469  -1.692  0.00  0.00    -0.235 NA
ATOM     22  C   UNL     1      -0.040  -1.679  -0.934  0.00  0.00    +0.160 A 
ATOM     23  N   UNL     1      -0.211  -1.561   0.416  0.00  0.00    -0.249 N 
ATOM     24  N   UNL     1      -1.138  -0.548   0.679  0.00  0.00    -0.174 NA
ATOM     25  C   UNL     1       0.474  -2.367   1.430  0.00  0.00    +0.174 C 
ATOM     26 CL   UNL     1      -1.946   0.558  -3.701  0.00  0.00    -0.082 Cl
ENDBRANCH   1  19
BRANCH   5  27
ATOM     27  C   UNL     1      -2.111  -4.909  -5.963  0.00  0.00    +0.218 C 
ATOM     28  O   UNL     1      -2.635  -4.064  -5.269  0.00  0.00    -0.275 OA
ATOM     29  N   UNL     1      -2.803  -6.007  -6.325  0.00  0.00    -0.315 N 
ATOM     30  H   UNL     1      -2.384  -6.683  -6.880  0.00  0.00    +0.149 HD
BRANCH  29  31
ATOM     31  C   UNL     1      -4.188  -6.180  -5.879  0.00  0.00    +0.112 C 
BRANCH  31  32
ATOM     32  C   UNL     1      -4.738  -7.500  -6.425  0.00  0.00    +0.093 C 
BRANCH  32  33
ATOM     33  C   UNL     1      -6.163  -7.678  -5.966  0.00  0.00    +0.106 A 
ATOM     34  C   UNL     1      -7.259  -7.259  -6.624  0.00  0.00    +0.044 A 
ATOM     35  C   UNL     1      -8.375  -7.632  -5.840  0.00  0.00    +0.041 A 
ATOM     36  C   UNL     1      -7.894  -8.257  -4.750  0.00  0.00    +0.195 A 
ATOM     37  O   UNL     1      -6.554  -8.287  -4.835  0.00  0.00    -0.468 OA
ENDBRANCH  32  33
ENDBRANCH  31  32
ENDBRANCH  29  31
ENDBRANCH   5  27
TORSDOF 5
