REMARK  Name = ZINC12877223
REMARK  9 active torsions:
REMARK  status: ('A' for Active; 'I' for Inactive)
REMARK    1  A    between atoms: C_1  and  O_2
REMARK    2  A    between atoms: O_2  and  C_3
REMARK    3  A    between atoms: C_6  and  C_11
REMARK    4  A    between atoms: C_8  and  O_9
REMARK    5  A    between atoms: O_9  and  C_10
REMARK    6  A    between atoms: C_11  and  C_12
REMARK    7  A    between atoms: C_12  and  N_13
REMARK    8  A    between atoms: C_18  and  C_35
REMARK    9  A    between atoms: C_35  and  C_36
REMARK                            x       y       z     vdW  Elec       q    Type
REMARK                         _______ _______ _______ _____ _____    ______ ____
ROOT
ATOM      1  N   UNL     1      -0.018   1.461   0.010  0.00  0.00    -0.241 N 
ATOM      2  C   UNL     1      -1.153   2.169   0.019  0.00  0.00    +0.224 C 
ATOM      3  O   UNL     1      -2.271   1.700   0.024  0.00  0.00    -0.275 OA
ATOM      4  C   UNL     1      -0.825   3.645   0.026  0.00  0.00    +0.073 C 
ATOM      5  C   UNL     1      -1.237   4.272  -1.323  0.00  0.00    -0.049 C 
ATOM      6  C   UNL     1       1.099   4.305  -1.328  0.00  0.00    +0.050 C 
ATOM      7  C   UNL     1       0.729   3.666   0.015  0.00  0.00    +0.088 C 
ATOM      8  C   UNL     1       1.098   2.200   0.003  0.00  0.00    +0.225 C 
ATOM      9  O   UNL     1       2.228   1.761  -0.009  0.00  0.00    -0.275 OA
ATOM     10  C   UNL     1       2.326   5.164  -1.212  0.00  0.00    -0.026 A 
ATOM     11  C   UNL     1       2.642   6.267  -0.451  0.00  0.00    +0.024 A 
ATOM     12  C   UNL     1       3.889   6.856  -0.569  0.00  0.00    +0.041 A 
ATOM     13  C   UNL     1       4.817   6.332  -1.453  0.00  0.00    +0.022 A 
ATOM     14  C   UNL     1       4.504   5.227  -2.217  0.00  0.00    +0.025 A 
ATOM     15  C   UNL     1       3.251   4.629  -2.104  0.00  0.00    +0.036 A 
ATOM     16  N   UNL     1       2.707   3.520  -2.756  0.00  0.00    -0.286 N 
ATOM     17  C   UNL     1       1.447   3.263  -2.356  0.00  0.00    +0.211 C 
ATOM     18  O   UNL     1       0.731   2.365  -2.748  0.00  0.00    -0.277 OA
ATOM     19 CL   UNL     1       4.289   8.248   0.389  0.00  0.00    -0.084 Cl
ATOM     20  H   UNL     1       3.182   2.996  -3.421  0.00  0.00    +0.155 HD
ATOM     21  N   UNL     1      -0.077   5.078  -1.706  0.00  0.00    +0.394 N 
ATOM     22  H   UNL     1      -0.088   5.976  -1.208  0.00  0.00    -0.083 HD
ATOM     23  H   UNL     1      -0.081   5.248  -2.718  0.00  0.00    -0.083 HD
ENDROOT
BRANCH   1  24
ATOM     24  C   UNL     1       0.002  -0.004   0.002  0.00  0.00    +0.121 C 
BRANCH  24  25
ATOM     25  C   UNL     1       0.023  -0.522   1.442  0.00  0.00    +0.054 C 
BRANCH  25  29
ATOM     26  C   UNL     1       0.075  -4.798   1.418  0.00  0.00    +0.161 A 
ATOM     27  C   UNL     1      -1.132  -4.117   1.433  0.00  0.00    +0.049 A 
ATOM     28  C   UNL     1      -1.145  -2.735   1.447  0.00  0.00    +0.007 A 
ATOM     29  C   UNL     1       0.043  -2.029   1.433  0.00  0.00    -0.042 A 
ATOM     30  C   UNL     1       1.250  -2.702   1.418  0.00  0.00    +0.053 A 
ATOM     31  C   UNL     1       1.271  -4.087   1.411  0.00  0.00    +0.162 A 
BRANCH  26  33
ATOM     32  C   UNL     1      -1.176  -6.821   1.420  0.00  0.00    +0.277 C 
ATOM     33  O   UNL     1       0.090  -6.158   1.411  0.00  0.00    -0.491 OA
ENDBRANCH  26  33
BRANCH  31  34
ATOM     34  O   UNL     1       2.458  -4.751   1.395  0.00  0.00    -0.491 OA
ATOM     35  C   UNL     1       3.646  -3.957   1.388  0.00  0.00    +0.277 C 
ENDBRANCH  31  34
ENDBRANCH  25  29
ENDBRANCH  24  25
ENDBRANCH   1  24
BRANCH   5  36
ATOM     36  C   UNL     1      -2.487   5.136  -1.149  0.00  0.00    +0.080 C 
BRANCH  36  37
ATOM     37  C   UNL     1      -2.943   5.638  -2.495  0.00  0.00    +0.209 C 
ATOM     38  O   UNL     1      -2.328   5.334  -3.495  0.00  0.00    -0.276 OA
ATOM     39  N   UNL     1      -4.033   6.425  -2.587  0.00  0.00    -0.329 N 
ATOM     40  H   UNL     1      -4.525   6.668  -1.787  0.00  0.00    +0.145 HD
ATOM     41  H   UNL     1      -4.327   6.748  -3.453  0.00  0.00    +0.145 HD
ENDBRANCH  36  37
ENDBRANCH   5  36
TORSDOF 7
