REMARK  Name = ZINC57478416
REMARK  10 active torsions:
REMARK  status: ('A' for Active; 'I' for Inactive)
REMARK    1  A    between atoms: C_1  and  C_2
REMARK    2  A    between atoms: C_2  and  C_3
REMARK    3  A    between atoms: C_6  and  C_9
REMARK    4  A    between atoms: C_11  and  C_30
REMARK    5  A    between atoms: C_12  and  C_17
REMARK    6  A    between atoms: C_17  and  N_18
REMARK    7  A    between atoms: C_21  and  N_24
REMARK    8  A    between atoms: C_30  and  O_32
REMARK    9  A    between atoms: O_32  and  C_33
REMARK   10  A    between atoms: C_33  and  C_34
REMARK                            x       y       z     vdW  Elec       q    Type
REMARK                         _______ _______ _______ _____ _____    ______ ____
ROOT
ATOM      1  C   UNL     1       2.711  -1.861  -4.759  0.00  0.00    +0.144 C 
ATOM      2  C   UNL     1       2.833  -3.371  -4.738  0.00  0.00    +0.079 C 
ATOM      3  C   UNL     1       4.074  -3.902  -4.772  0.00  0.00    +0.038 C 
ATOM      4  N   UNL     1       5.181  -3.103  -4.824  0.00  0.00    -0.271 N 
ATOM      5  C   UNL     1       5.131  -1.765  -4.844  0.00  0.00    +0.304 C 
ATOM      6  O   UNL     1       6.172  -1.139  -4.891  0.00  0.00    -0.252 OA
ATOM      7  N   UNL     1       3.965  -1.091  -4.814  0.00  0.00    -0.288 N 
ATOM      8  H   UNL     1       6.052  -3.529  -4.847  0.00  0.00    +0.156 HD
ATOM      9  H   UNL     1       3.953  -0.121  -4.830  0.00  0.00    +0.151 HD
ENDROOT
BRANCH   1  13
ATOM     10  C   UNL     1       0.586  -0.665  -1.251  0.00  0.00    -0.048 A 
ATOM     11  C   UNL     1      -0.088  -0.822  -2.448  0.00  0.00    +0.004 A 
ATOM     12  C   UNL     1       0.600  -1.208  -3.583  0.00  0.00    +0.006 A 
ATOM     13  C   UNL     1       1.961  -1.438  -3.521  0.00  0.00    -0.022 A 
ATOM     14  C   UNL     1       2.636  -1.281  -2.325  0.00  0.00    +0.006 A 
ATOM     15  C   UNL     1       1.949  -0.890  -1.191  0.00  0.00    +0.004 A 
BRANCH  10  17
ATOM     16  C   UNL     1      -0.175   1.283   0.081  0.00  0.00    +0.009 C 
ATOM     17  C   UNL     1      -0.164  -0.244  -0.014  0.00  0.00    +0.032 C 
ENDBRANCH  10  17
ENDBRANCH   1  13
BRANCH   2  18
ATOM     18  C   UNL     1       1.686  -4.197  -4.684  0.00  0.00    +0.339 C 
ATOM     19  O   UNL     1       1.034  -4.398  -5.691  0.00  0.00    -0.245 OA
BRANCH  18  20
ATOM     20  O   UNL     1       1.315  -4.761  -3.516  0.00  0.00    -0.462 OA
BRANCH  20  21
ATOM     21  C   UNL     1       0.146  -5.583  -3.534  0.00  0.00    +0.229 C 
ATOM     22  C   UNL     1      -0.114  -6.131  -2.130  0.00  0.00    +0.048 C 
ENDBRANCH  20  21
ENDBRANCH  18  20
ENDBRANCH   2  18
BRANCH   3  23
ATOM     23  C   UNL     1       4.241  -5.399  -4.753  0.00  0.00    +0.135 C 
BRANCH  23  24
ATOM     24  N   UNL     1       4.850  -5.841  -6.015  0.00  0.00    -0.297 NA
ATOM     25  C   UNL     1       3.947  -5.599  -7.147  0.00  0.00    +0.083 C 
ATOM     26  C   UNL     1       4.667  -5.934  -8.456  0.00  0.00    +0.000 C 
ATOM     27  C   UNL     1       5.103  -7.401  -8.431  0.00  0.00    -0.066 C 
ATOM     28  C   UNL     1       6.003  -7.638  -7.215  0.00  0.00    +0.000 C 
ATOM     29  C   UNL     1       5.245  -7.253  -5.943  0.00  0.00    +0.083 C 
BRANCH  27  30
ATOM     30  N   UNL     1       5.846  -7.713  -9.660  0.00  0.00    +0.382 N 
ATOM     31  C   UNL     1       4.986  -7.470 -10.824  0.00  0.00    -0.078 C 
ATOM     32  C   UNL     1       5.780  -7.716 -12.109  0.00  0.00    -0.019 C 
ATOM     33  C   UNL     1       6.272  -9.166 -12.130  0.00  0.00    -0.004 C 
ATOM     34  C   UNL     1       7.106  -9.429 -10.873  0.00  0.00    -0.019 C 
ATOM     35  C   UNL     1       6.263  -9.120  -9.633  0.00  0.00    -0.078 C 
ATOM     36  H   UNL     1       6.662  -7.122  -9.717  0.00  0.00    -0.081 HD
ENDBRANCH  27  30
ENDBRANCH  23  24
ENDBRANCH   3  23
TORSDOF 8
