REMARK  Name = ZINC31611006
REMARK  6 active torsions:
REMARK  status: ('A' for Active; 'I' for Inactive)
REMARK    1  A    between atoms: C_1  and  C_2
REMARK    2  A    between atoms: C_2  and  C_4
REMARK    3  A    between atoms: C_2  and  N_14
REMARK    4  A    between atoms: C_15  and  C_17
REMARK    5  A    between atoms: C_17  and  S_18
REMARK    6  A    between atoms: S_18  and  C_19
REMARK                            x       y       z     vdW  Elec       q    Type
REMARK                         _______ _______ _______ _____ _____    ______ ____
ROOT
ATOM      1  N   UNL     1       0.688  -0.476  -1.203  0.00  0.00    -0.308 N 
ATOM      2  C   UNL     1       2.031  -0.587  -1.215  0.00  0.00    +0.224 C 
ATOM      3  O   UNL     1       2.672  -0.295  -0.228  0.00  0.00    -0.275 OA
ATOM      4  H   UNL     1       0.175  -0.710  -1.993  0.00  0.00    +0.149 HD
ENDROOT
BRANCH   1   6
ATOM      5  C   UNL     1      -0.019   1.526   0.010  0.00  0.00    +0.033 C 
ATOM      6  C   UNL     1       0.002  -0.004   0.002  0.00  0.00    +0.100 C 
BRANCH   6   7
ATOM      7  C   UNL     1      -1.412  -0.526   0.013  0.00  0.00    -0.027 A 
ATOM      8  C   UNL     1      -2.138  -0.565  -1.176  0.00  0.00    +0.006 A 
ATOM      9  C   UNL     1      -3.417  -1.029  -1.201  0.00  0.00    +0.009 A 
ATOM     10  C   UNL     1      -4.017  -1.478  -0.012  0.00  0.00    -0.018 A 
ATOM     11  C   UNL     1      -5.335  -1.965   0.001  0.00  0.00    +0.008 A 
ATOM     12  C   UNL     1      -5.883  -2.392   1.172  0.00  0.00    +0.001 A 
ATOM     13  C   UNL     1      -5.157  -2.353   2.361  0.00  0.00    +0.001 A 
ATOM     14  C   UNL     1      -3.878  -1.888   2.386  0.00  0.00    +0.008 A 
ATOM     15  C   UNL     1      -3.278  -1.439   1.197  0.00  0.00    -0.018 A 
ATOM     16  C   UNL     1      -1.958  -0.957   1.182  0.00  0.00    +0.014 A 
ENDBRANCH   6   7
ENDBRANCH   1   6
BRANCH   2  17
ATOM     17  C   UNL     1       2.736  -1.073  -2.455  0.00  0.00    +0.173 C 
BRANCH  17  18
ATOM     18  S   UNL     1       4.525  -1.111  -2.157  0.00  0.00    -0.077 S 
BRANCH  18  19
ATOM     19  C   UNL     1       5.198  -1.692  -3.678  0.00  0.00    +0.194 A 
ATOM     20  N   UNL     1       4.370  -1.969  -4.681  0.00  0.00    -0.183 NA
ATOM     21  C   UNL     1       4.826  -2.408  -5.845  0.00  0.00    +0.285 A 
ATOM     22  O   UNL     1       3.975  -2.686  -6.860  0.00  0.00    -0.265 OA
ATOM     23  C   UNL     1       6.214  -2.578  -6.003  0.00  0.00    +0.104 A 
ATOM     24  C   UNL     1       7.046  -3.011  -7.059  0.00  0.00    +0.149 A 
ATOM     25  N   UNL     1       8.282  -2.974  -6.652  0.00  0.00    -0.180 NA
ATOM     26  N   UNL     1       8.330  -2.522  -5.327  0.00  0.00    -0.260 N 
ATOM     27  H   UNL     1       9.133  -2.406  -4.795  0.00  0.00    +0.191 HD
ATOM     28  C   UNL     1       7.055  -2.273  -4.914  0.00  0.00    +0.164 A 
ATOM     29  N   UNL     1       6.509  -1.833  -3.783  0.00  0.00    -0.202 NA
ENDBRANCH  18  19
ENDBRANCH  17  18
ENDBRANCH   2  17
TORSDOF 5
