REMARK  Name = ZINC39980683
REMARK  7 active torsions:
REMARK  status: ('A' for Active; 'I' for Inactive)
REMARK    1  A    between atoms: C_1  and  C_2
REMARK    2  A    between atoms: C_4  and  C_33
REMARK    3  A    between atoms: C_9  and  C_14
REMARK    4  A    between atoms: C_16  and  N_26
REMARK    5  A    between atoms: C_20  and  C_25
REMARK    6  A    between atoms: N_26  and  C_27
REMARK    7  A    between atoms: C_27  and  C_28
REMARK                            x       y       z     vdW  Elec       q    Type
REMARK                         _______ _______ _______ _____ _____    ______ ____
ROOT
ATOM      1  C   UNL     1      -1.191  -4.906   3.015  0.00  0.00    +0.126 C 
ATOM      2  C   UNL     1      -1.063  -6.439   3.059  0.00  0.00    +0.049 C 
ATOM      3  N   UNL     1      -0.977  -6.737   4.499  0.00  0.00    -0.304 N 
ATOM      4  C   UNL     1      -0.851  -7.932   5.147  0.00  0.00    +0.078 C 
ATOM      5  C   UNL     1      -0.788  -7.988   6.493  0.00  0.00    -0.036 C 
ATOM      6  C   UNL     1      -0.853  -6.805   7.249  0.00  0.00    +0.008 C 
ATOM      7  C   UNL     1      -0.979  -5.610   6.622  0.00  0.00    +0.044 C 
ATOM      8  C   UNL     1      -1.043  -5.562   5.201  0.00  0.00    +0.119 C 
ATOM      9  N   UNL     1      -1.166  -4.502   4.425  0.00  0.00    -0.265 NA
ATOM     10  C   UNL     1      -0.649  -9.319   7.186  0.00  0.00    +0.045 C 
ENDROOT
BRANCH   1  19
ATOM     11  C   UNL     1      -0.345   1.677   0.378  0.00  0.00    +0.044 C 
ATOM     12  C   UNL     1      -0.285   0.174   0.290  0.00  0.00    -0.050 A 
ATOM     13  C   UNL     1      -0.312  -0.439  -0.963  0.00  0.00    +0.008 A 
ATOM     14  C   UNL     1      -0.261  -1.787  -1.121  0.00  0.00    -0.028 A 
ATOM     15  C   UNL     1      -0.177  -2.635  -0.001  0.00  0.00    +0.043 A 
ATOM     16  N   UNL     1      -0.128  -3.956  -0.168  0.00  0.00    -0.284 N 
ATOM     17  C   UNL     1      -0.049  -4.809   0.840  0.00  0.00    +0.226 C 
ATOM     18  O   UNL     1      -0.006  -6.006   0.626  0.00  0.00    -0.275 OA
ATOM     19  C   UNL     1      -0.011  -4.291   2.260  0.00  0.00    +0.123 C 
ATOM     20  C   UNL     1      -0.068  -2.788   2.455  0.00  0.00    -0.003 C 
ATOM     21  C   UNL     1      -0.147  -2.015   1.335  0.00  0.00    -0.006 A 
ATOM     22  C   UNL     1      -0.201  -0.556   1.433  0.00  0.00    +0.012 A 
ATOM     23  C   UNL     1      -0.295  -2.380  -2.506  0.00  0.00    +0.046 C 
ATOM     24  H   UNL     1      -0.150  -4.309  -1.071  0.00  0.00    +0.155 HD
ENDBRANCH   1  19
BRANCH   2  25
ATOM     25  N   UNL     1      -2.248  -7.074   2.467  0.00  0.00    +0.398 N 
ATOM     26  H   UNL     1      -3.055  -6.883   3.042  0.00  0.00    -0.082 HD
ATOM     27  H   UNL     1      -2.400  -6.704   1.541  0.00  0.00    -0.082 HD
BRANCH  25  28
ATOM     28  C   UNL     1      -2.037  -8.526   2.386  0.00  0.00    -0.004 C 
BRANCH  28  29
ATOM     29  C   UNL     1      -3.191  -9.161   1.654  0.00  0.00    +0.088 A 
ATOM     30  C   UNL     1      -3.263  -9.368   0.327  0.00  0.00    +0.042 A 
ATOM     31  C   UNL     1      -4.510  -9.985   0.076  0.00  0.00    +0.041 A 
ATOM     32  C   UNL     1      -5.126 -10.118   1.265  0.00  0.00    +0.195 A 
ATOM     33  O   UNL     1      -4.319  -9.623   2.218  0.00  0.00    -0.470 OA
ENDBRANCH  28  29
ENDBRANCH  25  28
ENDBRANCH   2  25
TORSDOF 4
