REMARK  Name = ZINC17157773
REMARK  4 active torsions:
REMARK  status: ('A' for Active; 'I' for Inactive)
REMARK    1  A    between atoms: C_3  and  C_11
REMARK    2  A    between atoms: C_4  and  N_8
REMARK    3  A    between atoms: N_13  and  N_14
REMARK    4  A    between atoms: C_15  and  C_17
REMARK                            x       y       z     vdW  Elec       q    Type
REMARK                         _______ _______ _______ _____ _____    ______ ____
ROOT
ATOM      1  C   UNL     1      -1.493   5.098   2.952  0.00  0.00    +0.262 C 
ATOM      2  O   UNL     1      -1.070   5.891   2.133  0.00  0.00    -0.269 OA
ATOM      3  N   UNL     1      -1.254   3.781   2.800  0.00  0.00    -0.230 N 
ATOM      4  H   UNL     1      -1.637   3.063   3.542  0.00  0.00    +0.173 HD
ENDROOT
BRANCH   1   7
ATOM      5  C   UNL     1      -3.595   5.122   6.064  0.00  0.00    +0.021 A 
ATOM      6  C   UNL     1      -2.872   4.667   4.981  0.00  0.00    +0.017 A 
ATOM      7  C   UNL     1      -2.270   5.580   4.114  0.00  0.00    +0.068 A 
ATOM      8  C   UNL     1      -2.399   6.950   4.351  0.00  0.00    +0.140 A 
ATOM      9  C   UNL     1      -3.129   7.393   5.433  0.00  0.00    +0.053 A 
ATOM     10  C   UNL     1      -3.724   6.482   6.291  0.00  0.00    +0.043 A 
ATOM     11 CL   UNL     1      -4.636   7.048   7.655  0.00  0.00    -0.083 Cl
BRANCH   8  12
ATOM     12  N   UNL     1      -1.759   7.924   3.439  0.00  0.00    +0.057 N 
ATOM     13  O   UNL     1      -0.581   7.808   3.152  0.00  0.00    -0.126 OA
ATOM     14  O   UNL     1      -2.411   8.843   2.975  0.00  0.00    -0.126 OA
ENDBRANCH   8  12
ENDBRANCH   1   7
BRANCH   3  15
ATOM     15  N   UNL     1      -0.518   3.324   1.699  0.00  0.00    -0.234 N 
ATOM     16  C   UNL     1      -0.279   2.006   1.548  0.00  0.00    +0.235 C 
ATOM     17  O   UNL     1      -0.701   1.216   2.365  0.00  0.00    -0.274 OA
ATOM     18  H   UNL     1      -0.135   4.041   0.958  0.00  0.00    +0.173 HD
BRANCH  16  19
ATOM     19  C   UNL     1       0.513   1.516   0.363  0.00  0.00    +0.049 C 
ATOM     20  C   UNL     1       1.908   2.144   0.387  0.00  0.00    +0.019 C 
ATOM     21  C   UNL     1       2.712   1.645  -0.816  0.00  0.00    -0.009 C 
ATOM     22  C   UNL     1       2.837   0.122  -0.749  0.00  0.00    +0.007 C 
ATOM     23  C   UNL     1       1.443  -0.506  -0.772  0.00  0.00    -0.009 C 
ATOM     24  C   UNL     1       0.639  -0.008   0.430  0.00  0.00    +0.019 C 
ATOM     25  C   UNL     1       0.726  -0.110  -2.065  0.00  0.00    +0.007 C 
ATOM     26  C   UNL     1       0.600   1.414  -2.131  0.00  0.00    -0.009 C 
ATOM     27  C   UNL     1       1.995   2.042  -2.108  0.00  0.00    +0.007 C 
ATOM     28  C   UNL     1      -0.204   1.912  -0.929  0.00  0.00    +0.019 C 
ENDBRANCH  16  19
ENDBRANCH   3  15
TORSDOF 4
