REMARK  Name = ZINC59104349
REMARK  10 active torsions:
REMARK  status: ('A' for Active; 'I' for Inactive)
REMARK    1  A    between atoms: C_9  and  O_30
REMARK    2  A    between atoms: C_10  and  C_11
REMARK    3  A    between atoms: C_12  and  C_13
REMARK    4  A    between atoms: C_12  and  C_15
REMARK    5  A    between atoms: N_17  and  C_18
REMARK    6  A    between atoms: C_18  and  C_19
REMARK    7  A    between atoms: C_19  and  C_20
REMARK    8  A    between atoms: O_30  and  C_31
REMARK    9  A    between atoms: C_31  and  C_32
REMARK   10  A    between atoms: C_36  and  N_38
REMARK                            x       y       z     vdW  Elec       q    Type
REMARK                         _______ _______ _______ _____ _____    ______ ____
ROOT
ATOM      1  C   UNL     1      -0.016   1.358   0.009  0.00  0.00    +0.001 A 
ATOM      2  C   UNL     1       1.167   2.091   0.002  0.00  0.00    +0.001 A 
ATOM      3  C   UNL     1       2.379   1.463  -0.013  0.00  0.00    +0.009 A 
ATOM      4  C   UNL     1       2.433   0.066  -0.021  0.00  0.00    -0.007 A 
ATOM      5  C   UNL     1       1.232  -0.682  -0.013  0.00  0.00    -0.017 A 
ATOM      6  C   UNL     1       0.002  -0.004   0.002  0.00  0.00    +0.008 A 
ATOM      7  C   UNL     1       1.289  -2.089  -0.020  0.00  0.00    +0.012 A 
ATOM      8  C   UNL     1       2.482  -2.739  -0.034  0.00  0.00    +0.047 A 
ATOM      9  C   UNL     1       3.695  -2.051  -0.042  0.00  0.00    +0.129 A 
ATOM     10  C   UNL     1       3.713  -0.649  -0.037  0.00  0.00    +0.026 A 
ENDROOT
BRANCH  10  11
ATOM     11  C   UNL     1       4.936   0.059  -0.046  0.00  0.00    +0.036 C 
ATOM     12  C   UNL     1       5.929  -0.266   0.860  0.00  0.00    +0.114 C 
BRANCH  12  13
ATOM     13  C   UNL     1       7.201   0.470   0.851  0.00  0.00    +0.254 C 
ATOM     14  O   UNL     1       7.381   1.365   0.046  0.00  0.00    -0.269 OA
ATOM     15  N   UNL     1       8.169   0.154   1.734  0.00  0.00    -0.310 N 
ATOM     16  H   UNL     1       8.026  -0.560   2.376  0.00  0.00    +0.149 HD
BRANCH  15  17
ATOM     17  C   UNL     1       9.437   0.887   1.725  0.00  0.00    +0.109 C 
BRANCH  17  18
ATOM     18  C   UNL     1      10.354   0.335   2.819  0.00  0.00    +0.056 C 
BRANCH  18  19
ATOM     19  C   UNL     1      11.658   1.089   2.809  0.00  0.00    -0.021 A 
ATOM     20  C   UNL     1      12.784   0.730   2.173  0.00  0.00    +0.087 A 
ATOM     21  N   UNL     1      13.762   1.661   2.393  0.00  0.00    -0.360 N 
ATOM     22  H   UNL     1      14.663   1.618   2.036  0.00  0.00    +0.165 HD
ATOM     23  C   UNL     1      13.277   2.668   3.197  0.00  0.00    +0.047 A 
ATOM     24  C   UNL     1      11.936   2.357   3.488  0.00  0.00    +0.003 A 
ATOM     25  C   UNL     1      11.181   3.215   4.289  0.00  0.00    +0.010 A 
ATOM     26  C   UNL     1      11.748   4.355   4.785  0.00  0.00    +0.001 A 
ATOM     27  C   UNL     1      13.069   4.668   4.498  0.00  0.00    +0.002 A 
ATOM     28  C   UNL     1      13.835   3.831   3.716  0.00  0.00    +0.026 A 
ENDBRANCH  18  19
ENDBRANCH  17  18
ENDBRANCH  15  17
ENDBRANCH  12  13
BRANCH  12  29
ATOM     29  C   UNL     1       5.718  -1.319   1.808  0.00  0.00    +0.104 C 
ATOM     30  N   UNL     1       5.550  -2.154   2.559  0.00  0.00    -0.191 NA
ENDBRANCH  12  29
ENDBRANCH  10  11
BRANCH   9  31
ATOM     31  O   UNL     1       4.861  -2.741  -0.055  0.00  0.00    -0.487 OA
BRANCH  31  32
ATOM     32  C   UNL     1       4.772  -4.167  -0.060  0.00  0.00    +0.264 C 
BRANCH  32  33
ATOM     33  C   UNL     1       6.158  -4.757  -0.074  0.00  0.00    -0.008 A 
ATOM     34  C   UNL     1       6.786  -5.018  -1.278  0.00  0.00    +0.007 A 
ATOM     35  C   UNL     1       8.058  -5.559  -1.291  0.00  0.00    +0.003 A 
ATOM     36  C   UNL     1       8.702  -5.839  -0.101  0.00  0.00    +0.033 A 
ATOM     37  C   UNL     1       8.075  -5.578   1.103  0.00  0.00    +0.127 A 
ATOM     38  C   UNL     1       6.805  -5.032   1.116  0.00  0.00    +0.039 A 
BRANCH  37  39
ATOM     39  N   UNL     1       8.765  -5.878   2.378  0.00  0.00    +0.056 N 
ATOM     40  O   UNL     1       9.877  -6.352   2.366  0.00  0.00    -0.126 OA
ATOM     41  O   UNL     1       8.216  -5.649   3.430  0.00  0.00    -0.126 OA
ENDBRANCH  37  39
ENDBRANCH  32  33
ENDBRANCH  31  32
ENDBRANCH   9  31
TORSDOF 10
