REMARK  Name = ZINC12534497
REMARK  9 active torsions:
REMARK  status: ('A' for Active; 'I' for Inactive)
REMARK    1  A    between atoms: C_1  and  C_2
REMARK    2  A    between atoms: C_5  and  C_7
REMARK    3  A    between atoms: C_10  and  C_13
REMARK    4  A    between atoms: C_18  and  C_20
REMARK    5  A    between atoms: C_20  and  N_21
REMARK    6  A    between atoms: N_21  and  C_22
REMARK    7  A    between atoms: C_25  and  C_28
REMARK    8  A    between atoms: N_30  and  C_31
REMARK    9  A    between atoms: N_30  and  C_32
REMARK                            x       y       z     vdW  Elec       q    Type
REMARK                         _______ _______ _______ _____ _____    ______ ____
ROOT
ATOM      1  C   UNL     1       0.783  -2.012   0.080  0.00  0.00    +0.104 C 
ATOM      2  N   UNL     1       1.048  -0.750   0.149  0.00  0.00    -0.178 NA
ATOM      3  N   UNL     1      -0.052   0.044   0.467  0.00  0.00    -0.183 N 
ATOM      4  C   UNL     1      -1.230  -0.821   0.642  0.00  0.00    +0.144 C 
ATOM      5  C   UNL     1      -0.683  -2.237   0.375  0.00  0.00    +0.090 C 
ATOM      6  C   UNL     1      -0.038   1.386   0.599  0.00  0.00    +0.252 C 
ATOM      7  O   UNL     1      -1.060   1.978   0.875  0.00  0.00    -0.272 OA
ENDROOT
BRANCH   1  12
ATOM      8  C   UNL     1       2.746  -6.536  -0.798  0.00  0.00    +0.086 C 
ATOM      9  C   UNL     1       2.622  -5.044  -0.622  0.00  0.00    +0.103 A 
ATOM     10  C   UNL     1       3.625  -4.152  -0.750  0.00  0.00    +0.045 A 
ATOM     11  C   UNL     1       3.078  -2.878  -0.509  0.00  0.00    +0.051 A 
ATOM     12  C   UNL     1       1.754  -3.064  -0.235  0.00  0.00    +0.151 A 
ATOM     13  O   UNL     1       1.494  -4.385  -0.312  0.00  0.00    -0.459 OA
ENDBRANCH   1  12
BRANCH   4  14
ATOM     14  C   UNL     1      -2.298  -0.470  -0.361  0.00  0.00    +0.013 A 
ATOM     15  C   UNL     1      -3.643  -0.428  -0.196  0.00  0.00    +0.013 A 
ATOM     16  C   UNL     1      -4.440  -0.075  -1.269  0.00  0.00    +0.008 A 
ATOM     17  C   UNL     1      -3.852   0.219  -2.455  0.00  0.00    +0.045 A 
ATOM     18  S   UNL     1      -2.122   0.005  -2.073  0.00  0.00    -0.100 S 
ENDBRANCH   4  14
BRANCH   6  19
ATOM     19  C   UNL     1       1.245   2.149   0.397  0.00  0.00    +0.199 C 
BRANCH  19  20
ATOM     20  N   UNL     1       0.998   3.580   0.594  0.00  0.00    -0.335 N 
ATOM     21  H   UNL     1       0.107   3.892   0.818  0.00  0.00    +0.147 HD
BRANCH  20  22
ATOM     22  C   UNL     1       2.040   4.490   0.459  0.00  0.00    +0.028 A 
ATOM     23  C   UNL     1       3.319   4.041   0.142  0.00  0.00    +0.023 A 
ATOM     24  C   UNL     1       4.351   4.940   0.002  0.00  0.00    +0.015 A 
ATOM     25  C   UNL     1       4.117   6.305   0.189  0.00  0.00    +0.037 A 
ATOM     26  C   UNL     1       2.833   6.753   0.513  0.00  0.00    +0.015 A 
ATOM     27  C   UNL     1       1.804   5.850   0.646  0.00  0.00    +0.023 A 
BRANCH  25  28
ATOM     28  C   UNL     1       5.223   7.271   0.045  0.00  0.00    +0.246 C 
ATOM     29  O   UNL     1       4.981   8.454  -0.103  0.00  0.00    -0.270 OA
ATOM     30  N   UNL     1       6.500   6.843   0.077  0.00  0.00    -0.304 N 
ATOM     31  C   UNL     1       7.597   7.813   0.121  0.00  0.00    +0.132 C 
ATOM     32  C   UNL     1       6.792   5.407   0.068  0.00  0.00    +0.132 C 
ENDBRANCH  25  28
ENDBRANCH  20  22
ENDBRANCH  19  20
ENDBRANCH   6  19
TORSDOF 6
