REMARK  Name = ZINC63199583
REMARK  3 active torsions:
REMARK  status: ('A' for Active; 'I' for Inactive)
REMARK    1  A    between atoms: C_2  and  S_8
REMARK    2  A    between atoms: S_8  and  N_11
REMARK    3  A    between atoms: C_14  and  C_17
REMARK                            x       y       z     vdW  Elec       q    Type
REMARK                         _______ _______ _______ _____ _____    ______ ____
ROOT
ATOM      1  N   UNL     1       1.896   4.274   1.440  0.00  0.00    -0.177 NA
ATOM      2  C   UNL     1       1.067   4.494   2.633  0.00  0.00    +0.109 C 
ATOM      3  C   UNL     1       1.354   5.896   3.180  0.00  0.00    +0.019 C 
ATOM      4  C   UNL     1       2.857   6.048   3.422  0.00  0.00    -0.023 C 
ATOM      5  C   UNL     1       3.608   5.883   2.099  0.00  0.00    +0.019 C 
ATOM      6  C   UNL     1       3.348   4.476   1.541  0.00  0.00    +0.109 C 
ENDROOT
BRANCH   4   7
ATOM      7  C   UNL     1       3.143   7.435   4.001  0.00  0.00    -0.069 C 
ATOM      8  C   UNL     1       2.454   7.597   5.379  0.00  0.00    -0.017 C 
ATOM      9  C   UNL     1       3.327   8.696   6.039  0.00  0.00    -0.021 C 
ATOM     10  C   UNL     1       4.744   8.373   5.519  0.00  0.00    -0.082 C 
ATOM     11  N   UNL     1       4.587   7.590   4.278  0.00  0.00    +0.381 N 
ATOM     12  H   UNL     1       5.010   6.681   4.394  0.00  0.00    -0.086 HD
ATOM     13  H   UNL     1       5.030   8.073   3.511  0.00  0.00    -0.086 HD
ENDBRANCH   4   7
BRANCH   1  14
ATOM     14  S   UNL     1       1.208   3.800   0.010  0.00  0.00    +0.063 S 
ATOM     15  O   UNL     1       2.099   4.200  -1.022  0.00  0.00    -0.153 OA
ATOM     16  O   UNL     1      -0.148   4.224   0.052  0.00  0.00    -0.153 OA
BRANCH  14  18
ATOM     17  C   UNL     1      -0.016   1.352   0.009  0.00  0.00    +0.057 A 
ATOM     18  C   UNL     1       1.185   2.038   0.002  0.00  0.00    +0.132 A 
ATOM     19  C   UNL     1       2.344   1.335  -0.013  0.00  0.00    +0.106 A 
ATOM     20  S   UNL     1       1.753  -0.350  -0.017  0.00  0.00    -0.063 S 
ATOM     21  C   UNL     1       0.002  -0.004   0.002  0.00  0.00    +0.081 A 
ATOM     22 CL   UNL     1      -1.332  -1.115   0.010  0.00  0.00    -0.076 Cl
ATOM     23 CL   UNL     1       3.978   1.920  -0.026  0.00  0.00    -0.074 Cl
ENDBRANCH  14  18
ENDBRANCH   1  14
TORSDOF 3
