REMARK  Name = ZINC20206607
REMARK  10 active torsions:
REMARK  status: ('A' for Active; 'I' for Inactive)
REMARK    1  A    between atoms: C_1  and  C_2
REMARK    2  A    between atoms: C_2  and  O_3
REMARK    3  A    between atoms: O_3  and  C_4
REMARK    4  A    between atoms: C_6  and  C_18
REMARK    5  A    between atoms: C_9  and  O_10
REMARK    6  A    between atoms: O_10  and  C_11
REMARK    7  A    between atoms: C_11  and  C_12
REMARK    8  A    between atoms: C_29  and  S_30
REMARK    9  A    between atoms: S_30  and  C_33
REMARK   10  A    between atoms: C_33  and  C_34
REMARK                            x       y       z     vdW  Elec       q    Type
REMARK                         _______ _______ _______ _____ _____    ______ ____
ROOT
ATOM      1  C   UNL     1       0.366  -4.845   0.143  0.00  0.00    +0.024 C 
ATOM      2  C   UNL     1       0.443  -6.077   0.752  0.00  0.00    +0.078 C 
ATOM      3  C   UNL     1       1.673  -6.919   0.673  0.00  0.00    +0.117 C 
ATOM      4  N   UNL     1       2.879  -6.424   0.615  0.00  0.00    -0.386 N 
ATOM      5  N   UNL     1       1.399  -8.301   0.670  0.00  0.00    -0.203 N 
ATOM      6  C   UNL     1       0.206  -8.736   1.209  0.00  0.00    +0.183 C 
ATOM      7  N   UNL     1      -0.776  -7.981   1.648  0.00  0.00    -0.152 NA
ATOM      8  C   UNL     1      -0.690  -6.641   1.527  0.00  0.00    +0.273 C 
ATOM      9  O   UNL     1      -1.523  -5.910   2.037  0.00  0.00    -0.268 OA
ATOM     10  S   UNL     1       0.336 -10.396   1.133  0.00  0.00    +0.049 S 
ATOM     11  N   UNL     1       1.809 -10.518   0.343  0.00  0.00    -0.174 NA
ATOM     12  C   UNL     1       2.195  -9.288   0.195  0.00  0.00    +0.257 C 
ATOM     13  H   UNL     1       3.007  -5.467   0.524  0.00  0.00    +0.157 HD
ATOM     14  H   UNL     1       3.648  -7.014   0.662  0.00  0.00    +0.157 HD
ENDROOT
BRANCH   1  17
ATOM     15  C   UNL     1      -2.171  -2.088   0.217  0.00  0.00    +0.162 A 
ATOM     16  C   UNL     1      -0.961  -2.749   0.275  0.00  0.00    +0.057 A 
ATOM     17  C   UNL     1      -0.915  -4.137   0.083  0.00  0.00    -0.021 A 
ATOM     18  C   UNL     1      -2.099  -4.845  -0.167  0.00  0.00    +0.012 A 
ATOM     19  C   UNL     1      -3.301  -4.177  -0.223  0.00  0.00    +0.050 A 
ATOM     20  C   UNL     1      -3.346  -2.802  -0.027  0.00  0.00    +0.162 A 
BRANCH  15  21
ATOM     21  O   UNL     1      -2.220  -0.742   0.402  0.00  0.00    -0.489 OA
BRANCH  21  23
ATOM     22  C   UNL     1      -1.234   1.422   0.830  0.00  0.00    +0.048 C 
ATOM     23  C   UNL     1      -0.981  -0.075   0.647  0.00  0.00    +0.226 C 
ENDBRANCH  21  23
ENDBRANCH  15  21
BRANCH  20  24
ATOM     24  O   UNL     1      -4.535  -2.149  -0.078  0.00  0.00    -0.484 OA
BRANCH  24  25
ATOM     25  C   UNL     1      -5.698  -2.940  -0.331  0.00  0.00    +0.264 C 
BRANCH  25  26
ATOM     26  C   UNL     1      -6.915  -2.051  -0.352  0.00  0.00    -0.010 A 
ATOM     27  C   UNL     1      -7.612  -1.807   0.817  0.00  0.00    +0.007 A 
ATOM     28  C   UNL     1      -8.729  -0.992   0.798  0.00  0.00    +0.000 A 
ATOM     29  C   UNL     1      -9.147  -0.421  -0.389  0.00  0.00    +0.000 A 
ATOM     30  C   UNL     1      -8.450  -0.664  -1.558  0.00  0.00    +0.000 A 
ATOM     31  C   UNL     1      -7.331  -1.476  -1.538  0.00  0.00    +0.007 A 
ENDBRANCH  25  26
ENDBRANCH  24  25
ENDBRANCH  20  24
ENDBRANCH   1  17
BRANCH  12  32
ATOM     32  S   UNL     1       3.718  -8.911  -0.606  0.00  0.00    +0.029 S 
ATOM     33  O   UNL     1       4.003 -10.054  -1.401  0.00  0.00    -0.167 OA
ATOM     34  O   UNL     1       3.506  -7.643  -1.210  0.00  0.00    -0.167 OA
BRANCH  32  35
ATOM     35  C   UNL     1       4.928  -8.768   0.738  0.00  0.00    +0.172 C 
ATOM     36  C   UNL     1       6.268  -8.296   0.170  0.00  0.00    +0.028 C 
ENDBRANCH  32  35
ENDBRANCH  12  32
TORSDOF 8
