REMARK  Name = ZINC12244227
REMARK  15 active torsions:
REMARK  status: ('A' for Active; 'I' for Inactive)
REMARK    1  A    between atoms: C_1  and  C_2
REMARK    2  A    between atoms: C_2  and  C_3
REMARK    3  A    between atoms: C_2  and  C_4
REMARK    4  A    between atoms: C_4  and  C_5
REMARK    5  A    between atoms: C_5  and  C_7
REMARK    6  A    between atoms: C_5  and  N_26
REMARK    7  A    between atoms: C_16  and  C_17
REMARK    8  A    between atoms: C_16  and  N_75
REMARK    9  A    between atoms: C_20  and  C_23
REMARK   10  A    between atoms: C_23  and  C_24
REMARK   11  A    between atoms: C_23  and  C_25
REMARK   12  A    between atoms: C_27  and  C_29
REMARK   13  A    between atoms: C_32  and  C_34
REMARK   14  A    between atoms: C_34  and  O_35
REMARK   15  A    between atoms: O_35  and  C_36
REMARK                            x       y       z     vdW  Elec       q    Type
REMARK                         _______ _______ _______ _____ _____    ______ ____
ROOT
ATOM      1  C   UNL     1       0.853   7.981   0.637  0.00  0.00    +0.154 A 
ATOM      2  N   UNL     1      -0.395   8.280   0.387  0.00  0.00    -0.132 NA
ATOM      3  N   UNL     1      -0.750   9.294   1.098  0.00  0.00    -0.134 NA
ATOM      4  C   UNL     1       0.254   9.686   1.827  0.00  0.00    +0.132 A 
ATOM      5  N   UNL     1       1.301   8.873   1.545  0.00  0.00    -0.315 N 
ATOM      6  C   UNL     1       2.646   8.975   2.112  0.00  0.00    +0.106 C 
ATOM      7  C   UNL     1       2.559   9.612   3.502  0.00  0.00    -0.056 C 
ATOM      8  C   UNL     1       1.555  11.638   2.602  0.00  0.00    -0.071 C 
ATOM      9  C   UNL     1       0.282  10.816   2.824  0.00  0.00    +0.058 C 
ATOM     10  N   UNL     1       2.657  11.088   3.422  0.00  0.00    +0.384 N 
ATOM     11  H   UNL     1       2.588  11.476   4.370  0.00  0.00    -0.081 HD
ENDROOT
BRANCH   1  12
ATOM     12  C   UNL     1       1.643   6.854   0.023  0.00  0.00    +0.142 C 
BRANCH  12  13
ATOM     13  N   UNL     1       0.835   5.633   0.024  0.00  0.00    -0.299 N 
ATOM     14  C   UNL     1       1.436   4.427   0.012  0.00  0.00    +0.280 C 
ATOM     15  O   UNL     1       2.651   4.352   0.000  0.00  0.00    -0.267 OA
ATOM     16  H   UNL     1      -0.133   5.692   0.034  0.00  0.00    +0.150 HD
BRANCH  14  17
ATOM     17  C   UNL     1       0.627   3.204   0.013  0.00  0.00    +0.190 A 
ATOM     18  C   UNL     1       1.105   1.925   0.002  0.00  0.00    +0.055 A 
ATOM     19  C   UNL     1      -0.013   1.076   0.008  0.00  0.00    +0.048 A 
ATOM     20  C   UNL     1      -1.110   1.864   0.017  0.00  0.00    +0.131 A 
ATOM     21  O   UNL     1      -0.721   3.145   0.026  0.00  0.00    -0.453 OA
BRANCH  20  22
ATOM     22  C   UNL     1      -2.538   1.380   0.020  0.00  0.00    +0.233 C 
BRANCH  22  23
ATOM     23  O   UNL     1      -2.983   1.220   1.368  0.00  0.00    -0.375 OA
ATOM     24  C   UNL     1      -4.332   0.762   1.484  0.00  0.00    +0.194 C 
ENDBRANCH  22  23
ENDBRANCH  20  22
ENDBRANCH  14  17
ENDBRANCH  12  13
BRANCH  12  25
ATOM     25  C   UNL     1       2.016   7.218  -1.415  0.00  0.00    +0.033 C 
BRANCH  25  27
ATOM     26  C   UNL     1       3.194   6.431  -3.473  0.00  0.00    +0.007 C 
ATOM     27  C   UNL     1       2.923   6.132  -1.998  0.00  0.00    -0.015 C 
ATOM     28  C   UNL     1       4.246   6.108  -1.230  0.00  0.00    +0.007 C 
ENDBRANCH  25  27
ENDBRANCH  12  25
ENDBRANCH   1  12
BRANCH  10  29
ATOM     29  C   UNL     1       3.955  11.475   2.841  0.00  0.00    -0.043 C 
BRANCH  29  30
ATOM     30  C   UNL     1       4.130  12.963   3.002  0.00  0.00    -0.064 A 
ATOM     31  C   UNL     1       3.710  13.820   2.002  0.00  0.00    +0.002 A 
ATOM     32  C   UNL     1       3.866  15.185   2.152  0.00  0.00    +0.004 A 
ATOM     33  C   UNL     1       4.450  15.693   3.298  0.00  0.00    -0.045 A 
ATOM     34  C   UNL     1       4.874  14.835   4.295  0.00  0.00    +0.004 A 
ATOM     35  C   UNL     1       4.714  13.470   4.147  0.00  0.00    +0.002 A 
BRANCH  33  36
ATOM     36  C   UNL     1       4.623  17.181   3.459  0.00  0.00    +0.013 C 
ATOM     37  C   UNL     1       5.502  17.718   2.328  0.00  0.00    +0.012 C 
ATOM     38  C   UNL     1       3.254  17.862   3.409  0.00  0.00    +0.012 C 
ENDBRANCH  33  36
ENDBRANCH  29  30
ENDBRANCH  10  29
TORSDOF 10
