REMARK  Name = ZINC39534053
REMARK  8 active torsions:
REMARK  status: ('A' for Active; 'I' for Inactive)
REMARK    1  A    between atoms: C_4  and  S_7
REMARK    2  A    between atoms: S_7  and  N_10
REMARK    3  A    between atoms: N_10  and  C_11
REMARK    4  A    between atoms: C_11  and  C_12
REMARK    5  A    between atoms: C_12  and  C_14
REMARK    6  A    between atoms: C_12  and  N_27
REMARK    7  A    between atoms: C_17  and  C_20
REMARK    8  A    between atoms: C_25  and  O_26
REMARK                            x       y       z     vdW  Elec       q    Type
REMARK                         _______ _______ _______ _____ _____    ______ ____
ROOT
ATOM      1  C   UNL     1       4.365  -2.303   3.652  0.00  0.00    +0.102 C 
ENDROOT
BRANCH   1   2
ATOM      2  N   UNL     1       5.308  -3.042   2.801  0.00  0.00    -0.295 NA
ATOM      3  C   UNL     1       4.593  -3.897   1.843  0.00  0.00    +0.066 C 
ATOM      4  C   UNL     1       5.606  -4.602   0.939  0.00  0.00    -0.063 C 
ATOM      5  N   UNL     1       6.516  -5.411   1.760  0.00  0.00    +0.400 N 
ATOM      6  C   UNL     1       7.241  -4.540   2.694  0.00  0.00    +0.116 C 
ATOM      7  C   UNL     1       6.241  -3.835   3.614  0.00  0.00    +0.100 C 
ATOM      8  O   UNL     1       8.138  -5.326   3.480  0.00  0.00    -0.251 OA
ATOM      9  H   UNL     1       5.984  -6.093   2.279  0.00  0.00    -0.082 HD
ATOM     10  H   UNL     1       7.176  -5.885   1.161  0.00  0.00    -0.082 HD
ENDBRANCH   1   2
BRANCH   1  11
ATOM     11  C   UNL     1       3.481  -3.278   4.386  0.00  0.00    -0.029 A 
ATOM     12  C   UNL     1       3.638  -3.461   5.748  0.00  0.00    +0.006 A 
ATOM     13  C   UNL     1       2.830  -4.353   6.425  0.00  0.00    +0.009 A 
ATOM     14  C   UNL     1       1.856  -5.070   5.733  0.00  0.00    -0.014 A 
ATOM     15  C   UNL     1       1.702  -4.881   4.361  0.00  0.00    +0.009 A 
ATOM     16  C   UNL     1       2.511  -3.983   3.695  0.00  0.00    +0.006 A 
BRANCH  14  17
ATOM     17  C   UNL     1       0.986  -6.030   6.455  0.00  0.00    +0.024 A 
ATOM     18  C   UNL     1       1.547  -6.983   7.301  0.00  0.00    +0.012 A 
ATOM     19  C   UNL     1       0.733  -7.875   7.971  0.00  0.00    +0.001 A 
ATOM     20  C   UNL     1      -0.640  -7.825   7.804  0.00  0.00    +0.004 A 
ATOM     21  C   UNL     1      -1.207  -6.884   6.966  0.00  0.00    +0.046 A 
ATOM     22  C   UNL     1      -0.402  -5.979   6.293  0.00  0.00    +0.125 A 
BRANCH  22  23
ATOM     23  O   UNL     1      -0.959  -5.049   5.474  0.00  0.00    -0.506 OA
ATOM     24  H   UNL     1      -1.062  -5.343   4.559  0.00  0.00    +0.292 HD
ENDBRANCH  22  23
ENDBRANCH  14  17
ENDBRANCH   1  11
BRANCH   1  25
ATOM     25  C   UNL     1       3.503  -1.387   2.783  0.00  0.00    +0.129 C 
BRANCH  25  26
ATOM     26  N   UNL     1       4.368  -0.519   1.980  0.00  0.00    -0.188 NA
ATOM     27  H   UNL     1       5.308  -0.429   2.205  0.00  0.00    +0.148 HD
BRANCH  26  28
ATOM     28  S   UNL     1       3.743   0.308   0.688  0.00  0.00    +0.058 S 
ATOM     29  O   UNL     1       3.006  -0.634  -0.079  0.00  0.00    -0.153 OA
ATOM     30  O   UNL     1       4.809   1.070   0.140  0.00  0.00    -0.153 OA
BRANCH  28  34
ATOM     31  C   UNL     1       0.740   3.275   2.322  0.00  0.00    +0.000 A 
ATOM     32  C   UNL     1       2.066   3.641   2.179  0.00  0.00    +0.002 A 
ATOM     33  C   UNL     1       2.983   2.735   1.680  0.00  0.00    +0.028 A 
ATOM     34  C   UNL     1       2.575   1.462   1.325  0.00  0.00    +0.105 A 
ATOM     35  C   UNL     1       1.249   1.096   1.470  0.00  0.00    +0.028 A 
ATOM     36  C   UNL     1       0.332   2.003   1.967  0.00  0.00    +0.002 A 
ENDBRANCH  28  34
ENDBRANCH  26  28
ENDBRANCH  25  26
ENDBRANCH   1  25
TORSDOF 8
