REMARK  Name = ZINC00694466
REMARK  6 active torsions:
REMARK  status: ('A' for Active; 'I' for Inactive)
REMARK    1  A    between atoms: C_1  and  O_2
REMARK    2  A    between atoms: O_2  and  C_3
REMARK    3  A    between atoms: C_5  and  C_11
REMARK    4  A    between atoms: C_8  and  O_9
REMARK    5  A    between atoms: C_23  and  S_26
REMARK    6  A    between atoms: S_26  and  C_27
REMARK                            x       y       z     vdW  Elec       q    Type
REMARK                         _______ _______ _______ _____ _____    ______ ____
ROOT
ATOM      1  C   UNL     1       1.238   2.022   0.001  0.00  0.00    +0.294 C 
ATOM      2  N   UNL     1       2.170   1.448  -0.965  0.00  0.00    -0.305 N 
ATOM      3  C   UNL     1       1.705   1.132  -2.245  0.00  0.00    +0.039 A 
ATOM      4  C   UNL     1       2.106   1.851  -3.355  0.00  0.00    +0.024 A 
ATOM      5  C   UNL     1       1.599   1.534  -4.602  0.00  0.00    +0.002 A 
ATOM      6  C   UNL     1       0.691   0.498  -4.746  0.00  0.00    +0.001 A 
ATOM      7  C   UNL     1       0.286  -0.234  -3.647  0.00  0.00    +0.012 A 
ATOM      8  C   UNL     1       0.792   0.070  -2.389  0.00  0.00    +0.028 A 
ATOM      9  C   UNL     1       0.397  -0.696  -1.190  0.00  0.00    +0.156 A 
ATOM     10  C   UNL     1       0.008  -0.008  -0.018  0.00  0.00    +0.248 A 
ATOM     11  N   UNL     1      -0.328  -0.711   1.050  0.00  0.00    -0.184 NA
ATOM     12  C   UNL     1      -0.296  -2.039   0.991  0.00  0.00    +0.212 A 
ATOM     13  N   UNL     1       0.065  -2.666  -0.121  0.00  0.00    -0.122 NA
ATOM     14  N   UNL     1       0.403  -2.020  -1.183  0.00  0.00    -0.141 NA
ATOM     15  O   UNL     1      -0.014   1.346  -0.008  0.00  0.00    -0.449 OA
ATOM     16  H   UNL     1       3.096   1.290  -0.722  0.00  0.00    +0.150 HD
ENDROOT
BRANCH   1  19
ATOM     17  C   UNL     1      -0.444   5.370  -0.479  0.00  0.00    +0.163 A 
ATOM     18  C   UNL     1      -0.238   4.034  -0.176  0.00  0.00    +0.058 A 
ATOM     19  C   UNL     1       1.015   3.474  -0.335  0.00  0.00    +0.016 A 
ATOM     20  C   UNL     1       2.064   4.241  -0.808  0.00  0.00    +0.032 A 
ATOM     21  C   UNL     1       1.864   5.574  -1.119  0.00  0.00    +0.086 A 
ATOM     22  C   UNL     1       0.610   6.143  -0.956  0.00  0.00    +0.177 A 
ATOM     23 CL   UNL     1       3.183   6.534  -1.712  0.00  0.00    -0.080 Cl
BRANCH  17  25
ATOM     24  C   UNL     1      -2.711   5.071   0.176  0.00  0.00    +0.277 C 
ATOM     25  O   UNL     1      -1.676   5.924  -0.318  0.00  0.00    -0.491 OA
ENDBRANCH  17  25
BRANCH  22  26
ATOM     26  O   UNL     1       0.411   7.454  -1.261  0.00  0.00    -0.502 OA
ATOM     27  H   UNL     1       0.144   7.608  -2.177  0.00  0.00    +0.292 HD
ENDBRANCH  22  26
ENDBRANCH   1  19
BRANCH  12  28
ATOM     28  S   UNL     1      -0.742  -2.981   2.412  0.00  0.00    -0.088 S 
ATOM     29  C   UNL     1      -0.518  -4.655   1.762  0.00  0.00    +0.093 C 
ENDBRANCH  12  28
TORSDOF 4
