REMARK  Name = ZINC13008698
REMARK  10 active torsions:
REMARK  status: ('A' for Active; 'I' for Inactive)
REMARK    1  A    between atoms: C_1  and  C_2
REMARK    2  A    between atoms: N_12  and  C_13
REMARK    3  A    between atoms: C_13  and  C_15
REMARK    4  A    between atoms: N_17  and  C_18
REMARK    5  A    between atoms: C_18  and  C_19
REMARK    6  A    between atoms: C_19  and  C_21
REMARK    7  A    between atoms: C_19  and  N_32
REMARK    8  A    between atoms: N_30  and  C_31
REMARK    9  A    between atoms: N_32  and  C_33
REMARK   10  A    between atoms: N_32  and  C_34
REMARK                            x       y       z     vdW  Elec       q    Type
REMARK                         _______ _______ _______ _____ _____    ______ ____
ROOT
ATOM      1  C   UNL     1       1.756  -4.361  -6.422  0.00  0.00    +0.301 C 
ATOM      2  O   UNL     1       0.926  -4.518  -5.550  0.00  0.00    -0.265 OA
ATOM      3  N   UNL     1       1.582  -3.403  -7.354  0.00  0.00    -0.309 N 
ATOM      4  H   UNL     1       2.246  -3.278  -8.050  0.00  0.00    +0.149 HD
ENDROOT
BRANCH   1   5
ATOM      5  C   UNL     1       2.968  -5.229  -6.462  0.00  0.00    +0.323 C 
ATOM      6  O   UNL     1       3.801  -5.072  -7.337  0.00  0.00    -0.263 OA
BRANCH   5  18
ATOM      7  C   UNL     1       3.497  -9.476  -9.090  0.00  0.00    +0.063 C 
ATOM      8  C   UNL     1       3.566  -9.102  -7.631  0.00  0.00    +0.015 A 
ATOM      9  C   UNL     1       3.321  -7.819  -7.276  0.00  0.00    +0.046 A 
ATOM     10  C   UNL     1       3.378  -7.438  -5.919  0.00  0.00    +0.068 A 
ATOM     11  C   UNL     1       3.709  -8.476  -4.930  0.00  0.00    +0.021 A 
ATOM     12  C   UNL     1       3.786  -8.187  -3.567  0.00  0.00    +0.012 A 
ATOM     13  C   UNL     1       4.096  -9.180  -2.681  0.00  0.00    +0.001 A 
ATOM     14  C   UNL     1       4.335 -10.474  -3.127  0.00  0.00    +0.002 A 
ATOM     15  C   UNL     1       4.264 -10.782  -4.467  0.00  0.00    +0.026 A 
ATOM     16  C   UNL     1       3.949  -9.785  -5.388  0.00  0.00    +0.048 A 
ATOM     17  N   UNL     1       3.865 -10.059  -6.732  0.00  0.00    -0.358 N 
ATOM     18  N   UNL     1       3.140  -6.174  -5.544  0.00  0.00    -0.172 NA
ATOM     19  H   UNL     1       4.028 -10.964  -7.041  0.00  0.00    +0.166 HD
ENDBRANCH   5  18
ENDBRANCH   1   5
BRANCH   3  20
ATOM     20  C   UNL     1       0.392  -2.550  -7.314  0.00  0.00    +0.094 C 
BRANCH  20  21
ATOM     21  C   UNL     1       0.375  -1.641  -8.545  0.00  0.00    -0.021 C 
BRANCH  21  22
ATOM     22  C   UNL     1       0.256  -2.482  -9.789  0.00  0.00    -0.059 A 
ATOM     23  C   UNL     1      -0.980  -2.967 -10.179  0.00  0.00    +0.004 A 
ATOM     24  C   UNL     1      -1.088  -3.739 -11.318  0.00  0.00    +0.023 A 
ATOM     25  C   UNL     1       0.043  -4.027 -12.073  0.00  0.00    +0.033 A 
ATOM     26  C   UNL     1       1.280  -3.539 -11.684  0.00  0.00    -0.026 A 
ATOM     27  C   UNL     1       1.380  -2.763 -10.541  0.00  0.00    +0.007 A 
ATOM     28  C   UNL     1       2.525  -3.822 -12.483  0.00  0.00    +0.038 C 
ATOM     29  C   UNL     1       2.323  -5.050 -13.371  0.00  0.00    +0.024 C 
ATOM     30  C   UNL     1       1.029  -4.873 -14.175  0.00  0.00    +0.105 C 
ATOM     31  N   UNL     1      -0.088  -4.816 -13.222  0.00  0.00    -0.333 N 
ATOM     32  C   UNL     1      -1.318  -5.572 -13.470  0.00  0.00    +0.129 C 
ENDBRANCH  21  22
BRANCH  21  33
ATOM     33  N   UNL     1      -0.771  -0.725  -8.461  0.00  0.00    +0.382 N 
ATOM     34  C   UNL     1      -0.609   0.158  -7.298  0.00  0.00    -0.096 C 
ATOM     35  C   UNL     1      -0.841   0.084  -9.685  0.00  0.00    -0.096 C 
ATOM     36  H   UNL     1      -1.621  -1.259  -8.362  0.00  0.00    -0.082 HD
ENDBRANCH  21  33
ENDBRANCH  20  21
ENDBRANCH   3  20
TORSDOF 6
