REMARK  Name = ZINC60015780
REMARK  10 active torsions:
REMARK  status: ('A' for Active; 'I' for Inactive)
REMARK    1  A    between atoms: C_1  and  C_2
REMARK    2  A    between atoms: C_5  and  C_34
REMARK    3  A    between atoms: N_8  and  C_10
REMARK    4  A    between atoms: C_10  and  C_11
REMARK    5  A    between atoms: C_11  and  C_13
REMARK    6  A    between atoms: C_11  and  N_14
REMARK    7  A    between atoms: C_15  and  C_17
REMARK    8  A    between atoms: C_17  and  C_19
REMARK    9  A    between atoms: C_17  and  N_30
REMARK   10  A    between atoms: C_19  and  C_20
REMARK                            x       y       z     vdW  Elec       q    Type
REMARK                         _______ _______ _______ _____ _____    ______ ____
ROOT
ATOM      1  C   UNL     1       5.072  -2.332  -0.961  0.00  0.00    +0.165 C 
ENDROOT
BRANCH   1   2
ATOM      2  N   UNL     1       6.429  -1.817  -1.158  0.00  0.00    -0.288 N 
ATOM      3  C   UNL     1       6.648  -0.487  -1.181  0.00  0.00    +0.298 C 
ATOM      4  O   UNL     1       5.720   0.285  -1.039  0.00  0.00    -0.253 OA
ATOM      5  N   UNL     1       7.897  -0.013  -1.363  0.00  0.00    -0.313 N 
ATOM      6  H   UNL     1       7.170  -2.432  -1.272  0.00  0.00    +0.151 HD
ATOM      7  H   UNL     1       8.638  -0.629  -1.476  0.00  0.00    +0.146 HD
ATOM      8  H   UNL     1       8.055   0.944  -1.379  0.00  0.00    +0.146 HD
ENDBRANCH   1   2
BRANCH   1  10
ATOM      9  N   UNL     1       3.510  -2.495   0.951  0.00  0.00    -0.313 N 
ATOM     10  C   UNL     1       4.540  -1.852   0.365  0.00  0.00    +0.234 C 
ATOM     11  O   UNL     1       5.038  -0.887   0.905  0.00  0.00    -0.274 OA
ATOM     12  H   UNL     1       3.112  -3.266   0.519  0.00  0.00    +0.149 HD
BRANCH   9  13
ATOM     13  C   UNL     1       2.993  -2.028   2.239  0.00  0.00    +0.053 C 
ATOM     14  C   UNL     1       3.825  -2.634   3.372  0.00  0.00    +0.026 C 
BRANCH  13  15
ATOM     15  C   UNL     1       1.534  -2.461   2.390  0.00  0.00    -0.057 C 
BRANCH  15  21
ATOM     16  C   UNL     1      -0.019   1.526   0.010  0.00  0.00    +0.005 C 
ATOM     17  C   UNL     1       0.002  -0.004   0.002  0.00  0.00    -0.031 C 
ATOM     18  C   UNL     1      -1.434  -0.535   0.015  0.00  0.00    +0.003 C 
ATOM     19  C   UNL     1      -1.402  -2.064   0.086  0.00  0.00    -0.031 C 
ATOM     20  C   UNL     1      -0.613  -2.496   1.324  0.00  0.00    -0.076 C 
ATOM     21  N   UNL     1       0.758  -1.980   1.239  0.00  0.00    +0.381 N 
ATOM     22  C   UNL     1       0.740  -0.512   1.242  0.00  0.00    -0.076 C 
ATOM     23  C   UNL     1      -2.832  -2.602   0.177  0.00  0.00    +0.005 C 
ATOM     24  H   UNL     1       1.188  -2.307   0.386  0.00  0.00    -0.082 HD
ENDBRANCH  15  21
ENDBRANCH  13  15
ENDBRANCH   9  13
ENDBRANCH   1  10
BRANCH   1  25
ATOM     25  C   UNL     1       4.167  -1.828  -2.087  0.00  0.00    +0.069 C 
BRANCH  25  26
ATOM     26  C   UNL     1       4.627  -2.408  -3.399  0.00  0.00    -0.020 A 
ATOM     27  C   UNL     1       5.456  -1.828  -4.281  0.00  0.00    +0.087 A 
ATOM     28  N   UNL     1       5.645  -2.654  -5.356  0.00  0.00    -0.360 N 
ATOM     29  H   UNL     1       6.204  -2.451  -6.123  0.00  0.00    +0.165 HD
ATOM     30  C   UNL     1       4.923  -3.814  -5.188  0.00  0.00    +0.047 A 
ATOM     31  C   UNL     1       4.259  -3.714  -3.951  0.00  0.00    +0.003 A 
ATOM     32  C   UNL     1       3.447  -4.760  -3.510  0.00  0.00    +0.010 A 
ATOM     33  C   UNL     1       3.305  -5.880  -4.280  0.00  0.00    +0.001 A 
ATOM     34  C   UNL     1       3.961  -5.986  -5.498  0.00  0.00    +0.002 A 
ATOM     35  C   UNL     1       4.760  -4.961  -5.958  0.00  0.00    +0.026 A 
ENDBRANCH  25  26
ENDBRANCH   1  25
TORSDOF 7
