REMARK  Name = ZINC01909700
REMARK  11 active torsions:
REMARK  status: ('A' for Active; 'I' for Inactive)
REMARK    1  A    between atoms: C_1  and  C_2
REMARK    2  A    between atoms: C_9  and  N_14
REMARK    3  A    between atoms: C_10  and  C_11
REMARK    4  A    between atoms: C_15  and  C_17
REMARK    5  A    between atoms: C_17  and  C_19
REMARK    6  A    between atoms: C_17  and  O_20
REMARK    7  A    between atoms: O_20  and  C_21
REMARK    8  A    between atoms: C_24  and  C_27
REMARK    9  A    between atoms: C_27  and  C_28
REMARK   10  A    between atoms: C_27  and  C_29
REMARK   11  A    between atoms: C_27  and  C_30
REMARK                            x       y       z     vdW  Elec       q    Type
REMARK                         _______ _______ _______ _____ _____    ______ ____
ROOT
ATOM      1  N   UNL     1      -1.828  -0.747   2.417  0.00  0.00    -0.276 N 
ATOM      2  C   UNL     1      -2.395  -1.293   3.511  0.00  0.00    +0.258 C 
ATOM      3  O   UNL     1      -3.318  -2.070   3.392  0.00  0.00    -0.271 OA
ATOM      4  H   UNL     1      -1.089  -0.126   2.512  0.00  0.00    +0.155 HD
ENDROOT
BRANCH   1  12
ATOM      5  C   UNL     1      -4.847  -2.777  -4.508  0.00  0.00    +0.008 C 
ATOM      6  C   UNL     1      -4.223  -1.941  -3.388  0.00  0.00    -0.009 C 
ATOM      7  C   UNL     1      -2.727  -1.755  -3.655  0.00  0.00    +0.008 C 
ATOM      8  C   UNL     1      -2.150  -0.723  -2.685  0.00  0.00    +0.037 C 
ATOM      9  C   UNL     1      -2.529  -1.119  -1.263  0.00  0.00    -0.023 A 
ATOM     10  C   UNL     1      -3.533  -1.992  -1.028  0.00  0.00    -0.004 A 
ATOM     11  S   UNL     1      -3.594  -2.147   0.734  0.00  0.00    -0.077 S 
ATOM     12  C   UNL     1      -2.300  -1.074   1.155  0.00  0.00    +0.084 A 
ATOM     13  C   UNL     1      -1.852  -0.621  -0.078  0.00  0.00    +0.068 A 
ATOM     14  C   UNL     1      -4.400  -2.666  -2.046  0.00  0.00    +0.046 C 
BRANCH  13  15
ATOM     15  C   UNL     1      -0.740   0.329  -0.180  0.00  0.00    +0.244 C 
ATOM     16  O   UNL     1       0.403  -0.079  -0.270  0.00  0.00    -0.270 OA
ATOM     17  N   UNL     1      -0.984   1.655  -0.174  0.00  0.00    -0.325 N 
ATOM     18  H   UNL     1      -0.248   2.283  -0.242  0.00  0.00    +0.145 HD
ATOM     19  H   UNL     1      -1.895   1.980  -0.106  0.00  0.00    +0.145 HD
ENDBRANCH  13  15
ENDBRANCH   1  12
BRANCH   2  20
ATOM     20  C   UNL     1      -1.881  -0.938   4.883  0.00  0.00    +0.256 C 
ATOM     21  C   UNL     1      -0.407  -1.334   4.994  0.00  0.00    +0.062 C 
BRANCH  20  22
ATOM     22  O   UNL     1      -2.638  -1.639   5.871  0.00  0.00    -0.480 OA
BRANCH  22  23
ATOM     23  C   UNL     1      -2.692  -1.088   7.113  0.00  0.00    +0.122 A 
ATOM     24  C   UNL     1      -3.504  -1.649   8.087  0.00  0.00    +0.046 A 
ATOM     25  C   UNL     1      -3.552  -1.092   9.350  0.00  0.00    +0.008 A 
ATOM     26  C   UNL     1      -2.801   0.032   9.639  0.00  0.00    -0.042 A 
ATOM     27  C   UNL     1      -1.995   0.597   8.668  0.00  0.00    +0.008 A 
ATOM     28  C   UNL     1      -1.938   0.039   7.406  0.00  0.00    +0.046 A 
BRANCH  26  29
ATOM     29  C   UNL     1      -2.860   0.643  11.016  0.00  0.00    -0.013 C 
ATOM     30  C   UNL     1      -3.359   2.085  10.913  0.00  0.00    +0.015 C 
ATOM     31  C   UNL     1      -3.818  -0.167  11.892  0.00  0.00    +0.015 C 
ATOM     32  C   UNL     1      -1.463   0.630  11.640  0.00  0.00    +0.015 C 
ENDBRANCH  26  29
ENDBRANCH  22  23
ENDBRANCH  20  22
ENDBRANCH   2  20
TORSDOF 6
