REMARK  Name = ZINC21221516
REMARK  11 active torsions:
REMARK  status: ('A' for Active; 'I' for Inactive)
REMARK    1  A    between atoms: C_1  and  C_2
REMARK    2  A    between atoms: C_2  and  O_3
REMARK    3  A    between atoms: O_3  and  C_4
REMARK    4  A    between atoms: C_7  and  C_12
REMARK    5  A    between atoms: C_9  and  O_10
REMARK    6  A    between atoms: O_10  and  C_11
REMARK    7  A    between atoms: C_17  and  C_27
REMARK    8  A    between atoms: C_32  and  O_33
REMARK    9  A    between atoms: O_33  and  C_34
REMARK   10  A    between atoms: C_34  and  C_35
REMARK   11  A    between atoms: C_34  and  C_36
REMARK                            x       y       z     vdW  Elec       q    Type
REMARK                         _______ _______ _______ _____ _____    ______ ____
ROOT
ATOM      1  C   UNL     1       1.292  -4.653  -0.680  0.00  0.00    +0.032 C 
ATOM      2  C   UNL     1       2.032  -3.317  -0.713  0.00  0.00    +0.059 C 
ATOM      3  C   UNL     1       1.040  -2.174  -0.583  0.00  0.00    +0.017 C 
ATOM      4  C   UNL     1      -0.196  -2.283  -1.101  0.00  0.00    +0.037 C 
ATOM      5  C   UNL     1      -1.268  -1.220  -1.069  0.00  0.00    +0.139 C 
ATOM      6  N   UNL     1      -0.982  -0.105  -0.190  0.00  0.00    -0.331 N 
ATOM      7  C   UNL     1       0.090   0.752  -0.437  0.00  0.00    +0.049 A 
ATOM      8  C   UNL     1      -0.106   2.080  -0.778  0.00  0.00    +0.025 A 
ATOM      9  C   UNL     1       0.986   2.868  -1.097  0.00  0.00    +0.002 A 
ATOM     10  C   UNL     1       2.262   2.336  -1.076  0.00  0.00    +0.002 A 
ATOM     11  C   UNL     1       2.463   1.014  -0.718  0.00  0.00    +0.025 A 
ATOM     12  C   UNL     1       1.373   0.228  -0.383  0.00  0.00    +0.052 A 
ATOM     13  N   UNL     1       1.512  -1.079   0.065  0.00  0.00    -0.316 N 
ATOM     14  C   UNL     1      -0.595  -3.479  -1.742  0.00  0.00    +0.163 C 
ATOM     15  O   UNL     1      -1.711  -3.543  -2.219  0.00  0.00    -0.292 OA
ATOM     16  C   UNL     1       0.308  -4.670  -1.856  0.00  0.00    +0.088 C 
ATOM     17  H   UNL     1      -1.617   0.078   0.690  0.00  0.00    +0.147 HD
ATOM     18  H   UNL     1       2.049  -1.194   1.018  0.00  0.00    +0.152 HD
ENDROOT
BRANCH   1  22
ATOM     19  C   UNL     1       4.087  -7.865  -1.087  0.00  0.00    +0.162 A 
ATOM     20  C   UNL     1       3.972  -6.912  -2.086  0.00  0.00    +0.050 A 
ATOM     21  C   UNL     1       3.064  -5.878  -1.954  0.00  0.00    +0.008 A 
ATOM     22  C   UNL     1       2.276  -5.786  -0.822  0.00  0.00    -0.040 A 
ATOM     23  C   UNL     1       2.385  -6.733   0.179  0.00  0.00    +0.053 A 
ATOM     24  C   UNL     1       3.290  -7.775   0.051  0.00  0.00    +0.162 A 
BRANCH  24  25
ATOM     25  O   UNL     1       3.398  -8.709   1.034  0.00  0.00    -0.491 OA
ATOM     26  C   UNL     1       2.548  -8.553   2.172  0.00  0.00    +0.277 C 
ENDBRANCH  24  25
BRANCH  19  27
ATOM     27  O   UNL     1       4.975  -8.886  -1.217  0.00  0.00    -0.489 OA
BRANCH  27  29
ATOM     28  C   UNL     1       6.694 -10.125  -2.379  0.00  0.00    +0.048 C 
ATOM     29  C   UNL     1       5.760  -8.914  -2.411  0.00  0.00    +0.226 C 
ENDBRANCH  27  29
ENDBRANCH  19  27
ENDBRANCH   1  22
BRANCH   5  30
ATOM     30  C   UNL     1      -1.456  -0.690  -2.467  0.00  0.00    +0.019 A 
ATOM     31  C   UNL     1      -0.491  -0.919  -3.429  0.00  0.00    +0.009 A 
ATOM     32  C   UNL     1      -0.666  -0.437  -4.713  0.00  0.00    +0.001 A 
ATOM     33  C   UNL     1      -1.801   0.284  -5.035  0.00  0.00    +0.004 A 
ATOM     34  C   UNL     1      -2.766   0.520  -4.075  0.00  0.00    +0.046 A 
ATOM     35  C   UNL     1      -2.596   0.033  -2.787  0.00  0.00    +0.126 A 
BRANCH  35  36
ATOM     36  O   UNL     1      -3.543   0.264  -1.841  0.00  0.00    -0.489 OA
BRANCH  36  37
ATOM     37  C   UNL     1      -4.636   1.108  -2.210  0.00  0.00    +0.167 C 
ATOM     38  C   UNL     1      -5.707   0.276  -2.918  0.00  0.00    +0.051 C 
ATOM     39  C   UNL     1      -5.233   1.747  -0.955  0.00  0.00    +0.051 C 
ENDBRANCH  36  37
ENDBRANCH  35  36
ENDBRANCH   5  30
TORSDOF 7
