REMARK  Name = ZINC39920604
REMARK  7 active torsions:
REMARK  status: ('A' for Active; 'I' for Inactive)
REMARK    1  A    between atoms: C_1  and  C_2
REMARK    2  A    between atoms: C_2  and  C_4
REMARK    3  A    between atoms: C_2  and  O_27
REMARK    4  A    between atoms: N_6  and  N_7
REMARK    5  A    between atoms: C_8  and  C_20
REMARK    6  A    between atoms: C_23  and  O_26
REMARK    7  A    between atoms: O_27  and  C_28
REMARK                            x       y       z     vdW  Elec       q    Type
REMARK                         _______ _______ _______ _____ _____    ______ ____
ROOT
ATOM      1  N   UNL     1      -3.596  -1.001   1.785  0.00  0.00    -0.191 N 
ATOM      2  C   UNL     1      -4.783  -0.225   1.427  0.00  0.00    +0.212 C 
ATOM      3  N   UNL     1      -5.954  -0.719   2.162  0.00  0.00    -0.320 N 
ATOM      4  C   UNL     1      -6.152  -2.093   2.249  0.00  0.00    +0.041 A 
ATOM      5  C   UNL     1      -7.417  -2.646   2.350  0.00  0.00    +0.025 A 
ATOM      6  C   UNL     1      -7.559  -4.018   2.430  0.00  0.00    +0.017 A 
ATOM      7  C   UNL     1      -6.445  -4.844   2.410  0.00  0.00    +0.019 A 
ATOM      8  C   UNL     1      -5.177  -4.308   2.311  0.00  0.00    +0.030 A 
ATOM      9  C   UNL     1      -5.020  -2.927   2.231  0.00  0.00    +0.060 A 
ATOM     10  C   UNL     1      -3.688  -2.303   2.127  0.00  0.00    +0.267 C 
ATOM     11  O   UNL     1      -2.685  -2.953   2.352  0.00  0.00    -0.268 OA
ATOM     12 BR   UNL     1      -6.666  -6.719   2.521  0.00  0.00    -0.050 Br
ATOM     13  H   UNL     1      -6.576  -0.101   2.577  0.00  0.00    +0.148 HD
ENDROOT
BRANCH   2  14
ATOM     14  C   UNL     1      -5.036  -0.352  -0.053  0.00  0.00    -0.008 A 
ATOM     15  C   UNL     1      -5.160   0.783  -0.832  0.00  0.00    +0.011 A 
ATOM     16  C   UNL     1      -5.392   0.669  -2.189  0.00  0.00    +0.046 A 
ATOM     17  C   UNL     1      -5.500  -0.586  -2.770  0.00  0.00    +0.117 A 
ATOM     18  C   UNL     1      -5.375  -1.724  -1.986  0.00  0.00    +0.046 A 
ATOM     19  C   UNL     1      -5.137  -1.605  -0.630  0.00  0.00    +0.011 A 
BRANCH  17  20
ATOM     20  O   UNL     1      -5.729  -0.701  -4.104  0.00  0.00    -0.507 OA
ATOM     21  H   UNL     1      -4.925  -0.741  -4.639  0.00  0.00    +0.292 HD
ENDBRANCH  17  20
ENDBRANCH   2  14
BRANCH   1  24
ATOM     22  C   UNL     1      -1.478  -0.637   0.760  0.00  0.00    +0.270 C 
ATOM     23  O   UNL     1      -1.825  -1.328  -0.175  0.00  0.00    -0.270 OA
ATOM     24  N   UNL     1      -2.338  -0.383   1.765  0.00  0.00    -0.227 N 
ATOM     25  H   UNL     1      -2.087   0.228   2.476  0.00  0.00    +0.173 HD
BRANCH  22  27
ATOM     26  C   UNL     1      -0.158   1.462   0.714  0.00  0.00    +0.062 C 
ATOM     27  C   UNL     1      -0.085  -0.064   0.797  0.00  0.00    +0.257 C 
BRANCH  27  28
ATOM     28  O   UNL     1       0.667  -0.566  -0.310  0.00  0.00    -0.480 OA
BRANCH  28  29
ATOM     29  C   UNL     1       2.020  -0.576  -0.183  0.00  0.00    +0.122 A 
ATOM     30  C   UNL     1       2.610  -0.159   1.001  0.00  0.00    +0.045 A 
ATOM     31  C   UNL     1       3.986  -0.170   1.127  0.00  0.00    +0.004 A 
ATOM     32  C   UNL     1       4.774  -0.595   0.074  0.00  0.00    +0.000 A 
ATOM     33  C   UNL     1       4.189  -1.011  -1.108  0.00  0.00    +0.004 A 
ATOM     34  C   UNL     1       2.813  -1.007  -1.237  0.00  0.00    +0.045 A 
ENDBRANCH  28  29
ENDBRANCH  27  28
ENDBRANCH  22  27
ENDBRANCH   1  24
TORSDOF 6
