REMARK  Name = ZINC28878387
REMARK  6 active torsions:
REMARK  status: ('A' for Active; 'I' for Inactive)
REMARK    1  A    between atoms: C_1  and  C_2
REMARK    2  A    between atoms: C_2  and  C_4
REMARK    3  A    between atoms: C_2  and  N_12
REMARK    4  A    between atoms: N_12  and  C_13
REMARK    5  A    between atoms: C_13  and  C_15
REMARK    6  A    between atoms: C_13  and  C_16
REMARK                            x       y       z     vdW  Elec       q    Type
REMARK                         _______ _______ _______ _____ _____    ______ ____
ROOT
ATOM      1  N   UNL     1      -0.018   1.093   2.457  0.00  0.00    +0.391 N 
ATOM      2  H   UNL     1       0.377   0.088   2.246  0.00  0.00    -0.084 HD
ATOM      3  H   UNL     1      -0.729   1.039   3.295  0.00  0.00    -0.084 HD
ENDROOT
BRANCH   1   5
ATOM      4  C   UNL     1       0.561   3.135   3.677  0.00  0.00    -0.009 C 
ATOM      5  C   UNL     1       1.090   1.990   2.812  0.00  0.00    -0.043 C 
BRANCH   5   6
ATOM      6  C   UNL     1       2.132   1.220   3.581  0.00  0.00    -0.060 A 
ATOM      7  C   UNL     1       3.475   1.449   3.344  0.00  0.00    +0.003 A 
ATOM      8  C   UNL     1       4.432   0.744   4.048  0.00  0.00    +0.021 A 
ATOM      9  C   UNL     1       4.048  -0.193   4.991  0.00  0.00    +0.059 A 
ATOM     10  C   UNL     1       2.703  -0.422   5.229  0.00  0.00    +0.059 A 
ATOM     11  C   UNL     1       1.746   0.289   4.527  0.00  0.00    +0.023 A 
ATOM     12 CL   UNL     1       2.218  -1.596   6.412  0.00  0.00    -0.082 Cl
ATOM     13 CL   UNL     1       5.250  -1.079   5.876  0.00  0.00    -0.082 Cl
ENDBRANCH   5   6
ENDBRANCH   1   5
BRANCH   1  14
ATOM     14  C   UNL     1      -0.729   1.579   1.267  0.00  0.00    +0.014 C 
ATOM     15  C   UNL     1      -0.013   1.086   0.008  0.00  0.00    -0.004 C 
BRANCH  14  16
ATOM     16  C   UNL     1      -2.143   1.058   1.278  0.00  0.00    +0.206 C 
ATOM     17  O   UNL     1      -2.521   0.350   2.187  0.00  0.00    -0.277 OA
ATOM     18  N   UNL     1      -2.986   1.377   0.276  0.00  0.00    -0.242 N 
ATOM     19  C   UNL     1      -4.251   0.911   0.286  0.00  0.00    +0.303 C 
ATOM     20  O   UNL     1      -4.630   0.202   1.197  0.00  0.00    -0.253 OA
ATOM     21  N   UNL     1      -5.095   1.230  -0.715  0.00  0.00    -0.313 N 
ATOM     22  H   UNL     1      -2.643   2.019  -0.548  0.00  0.00    +0.159 HD
ATOM     23  H   UNL     1      -6.127   0.850  -0.707  0.00  0.00    +0.146 HD
ATOM     24  H   UNL     1      -4.751   1.872  -1.540  0.00  0.00    +0.146 HD
ENDBRANCH  14  16
ENDBRANCH   1  14
TORSDOF 4
