REMARK  Name = ZINC52839616
REMARK  10 active torsions:
REMARK  status: ('A' for Active; 'I' for Inactive)
REMARK    1  A    between atoms: C_1  and  C_2
REMARK    2  A    between atoms: C_2  and  C_4
REMARK    3  A    between atoms: C_2  and  C_16
REMARK    4  A    between atoms: C_4  and  C_5
REMARK    5  A    between atoms: C_6  and  N_15
REMARK    6  A    between atoms: N_7  and  N_14
REMARK    7  A    between atoms: C_8  and  C_10
REMARK    8  A    between atoms: C_10  and  C_11
REMARK    9  A    between atoms: C_10  and  C_12
REMARK   10  A    between atoms: C_10  and  C_13
REMARK                            x       y       z     vdW  Elec       q    Type
REMARK                         _______ _______ _______ _____ _____    ______ ____
ROOT
ATOM      1  C   UNL     1       2.193   0.109   0.912  0.00  0.00    +0.058 A 
ATOM      2  C   UNL     1       2.720   1.134   1.622  0.00  0.00    +0.134 A 
ATOM      3  N   UNL     1       4.073   0.926   1.670  0.00  0.00    -0.240 N 
ATOM      4  C   UNL     1       4.326  -0.223   0.985  0.00  0.00    +0.112 A 
ATOM      5  N   UNL     1       3.196  -0.703   0.544  0.00  0.00    -0.344 N 
ATOM      6  H   UNL     1       3.097  -1.518   0.028  0.00  0.00    +0.167 HD
ENDROOT
BRANCH   4   7
ATOM      7  C   UNL     1       5.684  -0.842   0.777  0.00  0.00    +0.020 C 
ATOM      8  C   UNL     1       5.524  -2.217   0.125  0.00  0.00    +0.018 C 
ATOM      9  C   UNL     1       6.521   0.059  -0.133  0.00  0.00    +0.018 C 
ATOM     10  C   UNL     1       6.386  -0.996   2.127  0.00  0.00    +0.018 C 
ENDBRANCH   4   7
BRANCH   3  11
ATOM     11  N   UNL     1       4.996   1.722   2.288  0.00  0.00    -0.295 N 
ATOM     12  H   UNL     1       5.202   1.384   3.215  0.00  0.00    +0.163 HD
ATOM     13  H   UNL     1       5.836   1.798   1.735  0.00  0.00    +0.163 HD
ENDBRANCH   3  11
BRANCH   2  14
ATOM     14  N   UNL     1       2.020   2.198   2.194  0.00  0.00    -0.342 N 
ATOM     15  H   UNL     1       1.056   2.250   2.100  0.00  0.00    +0.144 HD
ATOM     16  H   UNL     1       2.497   2.884   2.686  0.00  0.00    +0.144 HD
ENDBRANCH   2  14
BRANCH   1  17
ATOM     17  C   UNL     1       0.733  -0.090   0.596  0.00  0.00    +0.064 C 
BRANCH  17  19
ATOM     18  C   UNL     1       0.526   2.196  -0.390  0.00  0.00    +0.013 C 
ATOM     19  C   UNL     1       0.371   0.699  -0.664  0.00  0.00    +0.022 C 
BRANCH  19  20
ATOM     20  C   UNL     1      -1.055   0.404  -1.050  0.00  0.00    -0.044 A 
ATOM     21  C   UNL     1      -2.083   0.695  -0.173  0.00  0.00    +0.004 A 
ATOM     22  C   UNL     1      -3.392   0.424  -0.527  0.00  0.00    +0.000 A 
ATOM     23  C   UNL     1      -3.672  -0.138  -1.758  0.00  0.00    +0.000 A 
ATOM     24  C   UNL     1      -2.644  -0.428  -2.636  0.00  0.00    +0.000 A 
ATOM     25  C   UNL     1      -1.336  -0.153  -2.283  0.00  0.00    +0.004 A 
ENDBRANCH  19  20
ENDBRANCH  17  19
ENDBRANCH   1  17
TORSDOF 6
