REMARK  Name = ZINC38669746
REMARK  11 active torsions:
REMARK  status: ('A' for Active; 'I' for Inactive)
REMARK    1  A    between atoms: C_1  and  C_2
REMARK    2  A    between atoms: C_2  and  O_3
REMARK    3  A    between atoms: O_3  and  C_4
REMARK    4  A    between atoms: C_4  and  C_6
REMARK    5  A    between atoms: C_8  and  N_18
REMARK    6  A    between atoms: C_11  and  O_16
REMARK    7  A    between atoms: O_16  and  C_17
REMARK    8  A    between atoms: C_19  and  C_21
REMARK    9  A    between atoms: C_21  and  N_22
REMARK   10  A    between atoms: C_25  and  C_28
REMARK   11  A    between atoms: C_25  and  N_31
REMARK                            x       y       z     vdW  Elec       q    Type
REMARK                         _______ _______ _______ _____ _____    ______ ____
ROOT
ATOM      1  N   UNL     1      -3.702  -1.548  -2.168  0.00  0.00    -0.285 N 
ATOM      2  C   UNL     1      -4.324  -1.685  -3.356  0.00  0.00    +0.231 C 
ATOM      3  O   UNL     1      -4.800  -2.755  -3.671  0.00  0.00    -0.274 OA
ATOM      4  H   UNL     1      -3.357  -0.682  -1.899  0.00  0.00    +0.155 HD
ENDROOT
BRANCH   1   6
ATOM      5  C   UNL     1      -4.165  -3.999  -1.524  0.00  0.00    +0.234 C 
ATOM      6  C   UNL     1      -3.557  -2.626  -1.346  0.00  0.00    +0.053 C 
ATOM      7  C   UNL     1      -2.821  -2.690  -0.176  0.00  0.00    +0.021 A 
ATOM      8  C   UNL     1      -2.033  -1.734   0.510  0.00  0.00    +0.057 A 
ATOM      9  C   UNL     1      -1.408  -2.081   1.666  0.00  0.00    +0.121 A 
ATOM     10  C   UNL     1      -1.524  -3.371   2.203  0.00  0.00    +0.047 A 
ATOM     11  C   UNL     1      -2.261  -4.333   1.598  0.00  0.00    +0.029 A 
ATOM     12  C   UNL     1      -2.943  -4.046   0.387  0.00  0.00    +0.045 A 
ATOM     13  N   UNL     1      -3.710  -4.796  -0.381  0.00  0.00    -0.367 N 
ATOM     14  H   UNL     1      -3.936  -5.725  -0.217  0.00  0.00    +0.161 HD
BRANCH   5  15
ATOM     15  C   UNL     1      -5.669  -3.904  -1.524  0.00  0.00    +0.336 C 
ATOM     16  O   UNL     1      -6.258  -3.646  -0.501  0.00  0.00    -0.248 OA
BRANCH  15  17
ATOM     17  O   UNL     1      -6.354  -4.105  -2.661  0.00  0.00    -0.463 OA
BRANCH  17  19
ATOM     18  C   UNL     1      -8.381  -4.465  -3.927  0.00  0.00    +0.048 C 
ATOM     19  C   UNL     1      -7.780  -4.097  -2.569  0.00  0.00    +0.229 C 
ENDBRANCH  17  19
ENDBRANCH  15  17
ENDBRANCH   5  15
BRANCH   9  20
ATOM     20  O   UNL     1      -0.653  -1.156   2.317  0.00  0.00    -0.495 OA
ATOM     21  C   UNL     1      -0.017  -1.573   3.527  0.00  0.00    +0.277 C 
ENDBRANCH   9  20
ENDBRANCH   1   6
BRANCH   2  22
ATOM     22  C   UNL     1      -4.430  -0.509  -4.292  0.00  0.00    +0.180 C 
BRANCH  22  23
ATOM     23  N   UNL     1      -5.237  -0.884  -5.460  0.00  0.00    -0.294 NA
ATOM     24  C   UNL     1      -6.649  -1.049  -5.093  0.00  0.00    +0.084 C 
ATOM     25  C   UNL     1      -7.432  -1.579  -6.297  0.00  0.00    +0.013 C 
ATOM     26  C   UNL     1      -7.300  -0.592  -7.460  0.00  0.00    +0.015 C 
ATOM     27  C   UNL     1      -5.817  -0.401  -7.791  0.00  0.00    +0.013 C 
ATOM     28  C   UNL     1      -5.081   0.095  -6.544  0.00  0.00    +0.084 C 
BRANCH  26  29
ATOM     29  N   UNL     1      -8.001  -1.123  -8.636  0.00  0.00    +0.389 N 
ATOM     30  C   UNL     1      -7.458  -2.445  -8.972  0.00  0.00    -0.077 C 
ATOM     31  C   UNL     1      -8.239  -3.038 -10.146  0.00  0.00    -0.019 C 
ATOM     32  C   UNL     1      -8.112  -2.110 -11.358  0.00  0.00    -0.004 C 
ATOM     33  C   UNL     1      -8.611  -0.715 -10.974  0.00  0.00    -0.019 C 
ATOM     34  C   UNL     1      -7.817  -0.208  -9.769  0.00  0.00    -0.077 C 
ATOM     35  H   UNL     1      -8.985  -1.208  -8.431  0.00  0.00    -0.080 HD
ENDBRANCH  26  29
BRANCH  26  36
ATOM     36  C   UNL     1      -7.903   0.732  -7.068  0.00  0.00    +0.200 C 
ATOM     37  O   UNL     1      -7.187   1.640  -6.701  0.00  0.00    -0.278 OA
ATOM     38  N   UNL     1      -9.238   0.908  -7.126  0.00  0.00    -0.330 N 
ATOM     39  H   UNL     1      -9.816   0.162  -7.349  0.00  0.00    +0.145 HD
ATOM     40  H   UNL     1      -9.620   1.781  -6.944  0.00  0.00    +0.145 HD
ENDBRANCH  26  36
ENDBRANCH  22  23
ENDBRANCH   2  22
TORSDOF 9
