REMARK  Name = ZINC39964370
REMARK  9 active torsions:
REMARK  status: ('A' for Active; 'I' for Inactive)
REMARK    1  A    between atoms: C_1  and  C_2
REMARK    2  A    between atoms: C_4  and  C_16
REMARK    3  A    between atoms: C_6  and  C_14
REMARK    4  A    between atoms: C_7  and  N_13
REMARK    5  A    between atoms: C_19  and  O_33
REMARK    6  A    between atoms: C_20  and  C_22
REMARK    7  A    between atoms: C_22  and  S_23
REMARK    8  A    between atoms: S_23  and  C_24
REMARK    9  A    between atoms: O_33  and  C_34
REMARK                            x       y       z     vdW  Elec       q    Type
REMARK                         _______ _______ _______ _____ _____    ______ ____
ROOT
ATOM      1  C   UNL     1      -2.762   0.875  -0.717  0.00  0.00    -0.034 A 
ATOM      2  C   UNL     1      -2.274   1.168  -1.977  0.00  0.00    +0.008 A 
ATOM      3  C   UNL     1      -2.479   2.420  -2.524  0.00  0.00    +0.046 A 
ATOM      4  C   UNL     1      -3.175   3.383  -1.808  0.00  0.00    +0.124 A 
ATOM      5  C   UNL     1      -3.664   3.086  -0.544  0.00  0.00    +0.005 A 
ATOM      6  C   UNL     1      -3.461   1.831  -0.004  0.00  0.00    +0.012 A 
ENDROOT
BRANCH   1  10
ATOM      7  C   UNL     1      -0.018   1.503   0.010  0.00  0.00    +0.067 C 
ATOM      8  C   UNL     1       0.002  -0.004   0.002  0.00  0.00    +0.066 C 
ATOM      9  C   UNL     1      -1.064  -0.768   0.003  0.00  0.00    +0.030 C 
ATOM     10  C   UNL     1      -2.537  -0.492  -0.122  0.00  0.00    +0.098 C 
ATOM     11  C   UNL     1      -3.075  -1.565  -1.050  0.00  0.00    +0.097 C 
ATOM     12  C   UNL     1      -2.317  -2.612  -1.438  0.00  0.00    +0.195 C 
ATOM     13  O   UNL     1      -1.033  -2.841  -1.107  0.00  0.00    -0.448 OA
ATOM     14  C   UNL     1      -0.528  -2.199   0.066  0.00  0.00    +0.343 C 
ATOM     15  N   UNL     1       0.921  -1.985   0.002  0.00  0.00    -0.138 NA
ATOM     16  N   UNL     1       1.127  -0.765  -0.013  0.00  0.00    -0.155 NA
BRANCH  12  17
ATOM     17  N   UNL     1      -2.917  -3.538  -2.254  0.00  0.00    -0.329 N 
ATOM     18  H   UNL     1      -3.842  -3.421  -2.523  0.00  0.00    +0.145 HD
ATOM     19  H   UNL     1      -2.417  -4.310  -2.562  0.00  0.00    +0.145 HD
ENDBRANCH  12  17
BRANCH  11  20
ATOM     20  C   UNL     1      -4.422  -1.466  -1.525  0.00  0.00    +0.101 C 
ATOM     21  N   UNL     1      -5.491  -1.387  -1.903  0.00  0.00    -0.191 NA
ENDBRANCH  11  20
ENDBRANCH   1  10
BRANCH   4  22
ATOM     22  O   UNL     1      -3.378   4.616  -2.343  0.00  0.00    -0.495 OA
ATOM     23  C   UNL     1      -2.846   4.851  -3.649  0.00  0.00    +0.277 C 
ENDBRANCH   4  22
BRANCH   5  24
ATOM     24  C   UNL     1      -4.420   4.130   0.237  0.00  0.00    +0.115 C 
BRANCH  24  25
ATOM     25  S   UNL     1      -6.190   4.006  -0.145  0.00  0.00    -0.094 S 
BRANCH  25  26
ATOM     26  C   UNL     1      -6.926   5.274   0.832  0.00  0.00    +0.136 A 
ATOM     27  N   UNL     1      -6.348   6.127   1.648  0.00  0.00    -0.233 NA
ATOM     28  C   UNL     1      -7.045   7.055   2.339  0.00  0.00    +0.079 A 
ATOM     29  C   UNL     1      -6.550   8.024   3.242  0.00  0.00    +0.029 A 
ATOM     30  C   UNL     1      -7.400   8.900   3.866  0.00  0.00    +0.002 A 
ATOM     31  C   UNL     1      -8.768   8.868   3.637  0.00  0.00    +0.001 A 
ATOM     32  C   UNL     1      -9.287   7.934   2.759  0.00  0.00    +0.017 A 
ATOM     33  C   UNL     1      -8.442   7.053   2.130  0.00  0.00    +0.040 A 
ATOM     34  S   UNL     1      -8.649   5.733   0.960  0.00  0.00    -0.061 S 
ENDBRANCH  25  26
ENDBRANCH  24  25
ENDBRANCH   5  24
TORSDOF 7
