REMARK  Name = ZINC18196980
REMARK  7 active torsions:
REMARK  status: ('A' for Active; 'I' for Inactive)
REMARK    1  A    between atoms: C_1  and  O_2
REMARK    2  A    between atoms: O_2  and  C_3
REMARK    3  A    between atoms: C_6  and  C_11
REMARK    4  A    between atoms: C_8  and  O_9
REMARK    5  A    between atoms: O_9  and  C_10
REMARK    6  A    between atoms: C_16  and  C_26
REMARK    7  A    between atoms: C_23  and  O_24
REMARK                            x       y       z     vdW  Elec       q    Type
REMARK                         _______ _______ _______ _____ _____    ______ ____
ROOT
ATOM      1  C   UNL     1       2.507  -2.501  -4.387  0.00  0.00    +0.032 C 
ATOM      2  C   UNL     1       1.802  -2.094  -5.681  0.00  0.00    +0.059 C 
ATOM      3  C   UNL     1       2.499  -2.729  -6.863  0.00  0.00    +0.017 C 
ATOM      4  C   UNL     1       3.828  -2.966  -6.836  0.00  0.00    +0.024 C 
ATOM      5  C   UNL     1       4.568  -3.582  -8.004  0.00  0.00    +0.092 C 
ATOM      6  C   UNL     1       3.582  -4.173  -8.972  0.00  0.00    +0.067 A 
ATOM      7  C   UNL     1       2.242  -3.896  -8.915  0.00  0.00    +0.126 A 
ATOM      8  N   UNL     1       1.640  -4.571  -9.912  0.00  0.00    -0.260 N 
ATOM      9  H   UNL     1       0.662  -4.564 -10.123  0.00  0.00    +0.190 HD
ATOM     10  N   UNL     1       2.631  -5.287 -10.603  0.00  0.00    -0.134 NA
ATOM     11  C   UNL     1       3.792  -5.045 -10.035  0.00  0.00    +0.237 A 
ATOM     12  N   UNL     1       1.717  -3.051  -7.944  0.00  0.00    -0.303 N 
ATOM     13  C   UNL     1       4.594  -2.649  -5.699  0.00  0.00    +0.162 C 
ATOM     14  O   UNL     1       5.790  -2.867  -5.710  0.00  0.00    -0.292 OA
ATOM     15  C   UNL     1       3.969  -2.048  -4.472  0.00  0.00    +0.088 C 
ATOM     16  H   UNL     1       0.818  -2.696  -8.029  0.00  0.00    +0.153 HD
ENDROOT
BRANCH   5  17
ATOM     17  C   UNL     1       5.379  -2.520  -8.700  0.00  0.00    -0.035 A 
ATOM     18  C   UNL     1       4.749  -1.419  -9.251  0.00  0.00    +0.006 A 
ATOM     19  C   UNL     1       5.493  -0.442  -9.885  0.00  0.00    +0.020 A 
ATOM     20  C   UNL     1       6.868  -0.571  -9.977  0.00  0.00    +0.041 A 
ATOM     21  C   UNL     1       7.497  -1.675  -9.431  0.00  0.00    +0.020 A 
ATOM     22  C   UNL     1       6.752  -2.649  -8.792  0.00  0.00    +0.006 A 
ATOM     23 CL   UNL     1       7.802   0.652 -10.780  0.00  0.00    -0.084 Cl
ENDBRANCH   5  17
BRANCH   1  27
ATOM     24  C   UNL     1       0.606  -0.608  -1.056  0.00  0.00    +0.161 A 
ATOM     25  C   UNL     1       1.163   0.159  -2.068  0.00  0.00    +0.049 A 
ATOM     26  C   UNL     1       1.782  -0.456  -3.140  0.00  0.00    +0.008 A 
ATOM     27  C   UNL     1       1.837  -1.836  -3.212  0.00  0.00    -0.040 A 
ATOM     28  C   UNL     1       1.278  -2.606  -2.209  0.00  0.00    +0.053 A 
ATOM     29  C   UNL     1       0.662  -1.996  -1.129  0.00  0.00    +0.162 A 
BRANCH  24  31
ATOM     30  C   UNL     1      -0.017   1.425   0.010  0.00  0.00    +0.277 C 
ATOM     31  O   UNL     1       0.002  -0.004   0.002  0.00  0.00    -0.491 OA
ENDBRANCH  24  31
BRANCH  29  32
ATOM     32  O   UNL     1       0.112  -2.753  -0.141  0.00  0.00    -0.491 OA
ATOM     33  C   UNL     1       0.207  -4.171  -0.282  0.00  0.00    +0.277 C 
ENDBRANCH  29  32
ENDBRANCH   1  27
BRANCH  11  34
ATOM     34  O   UNL     1       4.991  -5.558 -10.421  0.00  0.00    -0.491 OA
ATOM     35  H   UNL     1       4.859  -6.156 -11.212  0.00  0.00    +0.294 HD
ENDBRANCH  11  34
TORSDOF 5
