REMARK  Name = ZINC36535760
REMARK  12 active torsions:
REMARK  status: ('A' for Active; 'I' for Inactive)
REMARK    1  A    between atoms: C_1  and  C_2
REMARK    2  A    between atoms: C_2  and  C_3
REMARK    3  A    between atoms: C_2  and  C_4
REMARK    4  A    between atoms: C_2  and  N_5
REMARK    5  A    between atoms: C_6  and  C_8
REMARK    6  A    between atoms: C_8  and  C_10
REMARK    7  A    between atoms: C_8  and  N_19
REMARK    8  A    between atoms: C_11  and  O_18
REMARK    9  A    between atoms: C_13  and  O_17
REMARK   10  A    between atoms: C_15  and  O_16
REMARK   11  A    between atoms: N_19  and  C_20
REMARK   12  A    between atoms: C_21  and  C_23
REMARK                            x       y       z     vdW  Elec       q    Type
REMARK                         _______ _______ _______ _____ _____    ______ ____
ROOT
ATOM      1  C   UNL     1       2.895  -0.690  -2.807  0.00  0.00    +0.199 C 
ENDROOT
BRANCH   1   2
ATOM      2  C   UNL     1       3.424  -2.090  -2.977  0.00  0.00    +0.065 A 
ATOM      3  C   UNL     1       4.606  -2.465  -2.357  0.00  0.00    +0.129 A 
ATOM      4  C   UNL     1       5.093  -3.754  -2.514  0.00  0.00    +0.091 A 
ATOM      5  C   UNL     1       4.397  -4.668  -3.290  0.00  0.00    +0.124 A 
ATOM      6  C   UNL     1       3.214  -4.294  -3.910  0.00  0.00    +0.091 A 
ATOM      7  C   UNL     1       2.725  -3.006  -3.750  0.00  0.00    +0.129 A 
BRANCH   7   8
ATOM      8  O   UNL     1       1.564  -2.641  -4.353  0.00  0.00    -0.506 OA
ATOM      9  H   UNL     1       1.679  -2.277  -5.241  0.00  0.00    +0.292 HD
ENDBRANCH   7   8
BRANCH   5  10
ATOM     10  O   UNL     1       4.875  -5.931  -3.445  0.00  0.00    -0.507 OA
ATOM     11  H   UNL     1       4.558  -6.556  -2.777  0.00  0.00    +0.292 HD
ENDBRANCH   5  10
BRANCH   3  12
ATOM     12  O   UNL     1       5.288  -1.569  -1.596  0.00  0.00    -0.506 OA
ATOM     13  H   UNL     1       4.983  -1.519  -0.680  0.00  0.00    +0.292 HD
ENDBRANCH   3  12
ENDBRANCH   1   2
BRANCH   1  15
ATOM     14  N   UNL     1       0.934  -0.662  -1.299  0.00  0.00    -0.309 N 
ATOM     15  C   UNL     1       2.269  -0.551  -1.443  0.00  0.00    +0.239 C 
ATOM     16  O   UNL     1       2.968  -0.340  -0.474  0.00  0.00    -0.273 OA
ATOM     17  H   UNL     1       0.375  -0.831  -2.074  0.00  0.00    +0.149 HD
BRANCH  14  19
ATOM     18  C   UNL     1       0.645   0.856   0.596  0.00  0.00    +0.031 C 
ATOM     19  C   UNL     1       0.326  -0.527   0.027  0.00  0.00    +0.026 C 
ATOM     20  C   UNL     1       0.888  -1.604   0.957  0.00  0.00    +0.031 C 
ATOM     21  C   UNL     1      -1.191  -0.694  -0.088  0.00  0.00    +0.031 C 
ENDBRANCH  14  19
ENDBRANCH   1  15
BRANCH   1  22
ATOM     22  N   UNL     1       3.996   0.268  -2.939  0.00  0.00    -0.288 N 
ATOM     23  C   UNL     1       4.358   1.128  -1.809  0.00  0.00    +0.133 C 
ATOM     24  C   UNL     1       4.676   0.357  -4.099  0.00  0.00    +0.231 C 
ATOM     25  O   UNL     1       5.642   1.085  -4.181  0.00  0.00    -0.274 OA
BRANCH  24  26
ATOM     26  C   UNL     1       4.235  -0.448  -5.294  0.00  0.00    +0.204 C 
ATOM     27 CL   UNL     1       5.400  -0.200  -6.648  0.00  0.00    -0.116 Cl
ENDBRANCH  24  26
ENDBRANCH   1  22
TORSDOF 8
