REMARK  Name = ZINC67060963
REMARK  5 active torsions:
REMARK  status: ('A' for Active; 'I' for Inactive)
REMARK    1  A    between atoms: C_1  and  C_2
REMARK    2  A    between atoms: C_5  and  C_7
REMARK    3  A    between atoms: C_10  and  C_12
REMARK    4  A    between atoms: C_12  and  N_13
REMARK    5  A    between atoms: C_20  and  C_23
REMARK                            x       y       z     vdW  Elec       q    Type
REMARK                         _______ _______ _______ _____ _____    ______ ____
ROOT
ATOM      1  N   UNL     1      -2.275  -5.519   0.668  0.00  0.00    -0.292 N 
ATOM      2  C   UNL     1      -2.785  -6.671   0.190  0.00  0.00    +0.303 C 
ATOM      3  O   UNL     1      -2.086  -7.663   0.120  0.00  0.00    -0.253 OA
ATOM      4  N   UNL     1      -4.072  -6.724  -0.209  0.00  0.00    -0.281 N 
ATOM      5  C   UNL     1      -4.904  -5.511  -0.247  0.00  0.00    +0.137 C 
ATOM      6  C   UNL     1      -5.571  -5.424  -1.624  0.00  0.00    +0.179 C 
ATOM      7  O   UNL     1      -6.235  -6.659  -1.904  0.00  0.00    -0.369 OA
ATOM      8  C   UNL     1      -5.362  -7.789  -1.981  0.00  0.00    +0.168 C 
ATOM      9  C   UNL     1      -4.683  -7.995  -0.627  0.00  0.00    +0.145 C 
ATOM     10  H   UNL     1      -2.811  -4.710   0.657  0.00  0.00    +0.151 HD
ENDROOT
BRANCH   8  11
ATOM     11  C   UNL     1      -6.159  -9.016  -2.340  0.00  0.00    +0.018 A 
ATOM     12  C   UNL     1      -7.509  -9.074  -2.049  0.00  0.00    +0.009 A 
ATOM     13  C   UNL     1      -8.240 -10.200  -2.379  0.00  0.00    +0.001 A 
ATOM     14  C   UNL     1      -7.622 -11.270  -3.000  0.00  0.00    +0.003 A 
ATOM     15  C   UNL     1      -6.272 -11.214  -3.292  0.00  0.00    +0.039 A 
ATOM     16  C   UNL     1      -5.540 -10.084  -2.967  0.00  0.00    +0.129 A 
ATOM     17  F   UNL     1      -4.222 -10.027  -3.257  0.00  0.00    -0.205 F 
ENDBRANCH   8  11
BRANCH   1  18
ATOM     18  C   UNL     1      -0.912  -5.488   1.203  0.00  0.00    +0.180 C 
BRANCH  18  22
ATOM     19  C   UNL     1       0.113  -2.013   1.661  0.00  0.00    +0.109 A 
ATOM     20  C   UNL     1      -0.349  -2.264   2.899  0.00  0.00    +0.045 A 
ATOM     21  C   UNL     1      -0.800  -3.604   2.904  0.00  0.00    +0.046 A 
ATOM     22  C   UNL     1      -0.587  -4.092   1.669  0.00  0.00    +0.122 A 
ATOM     23  O   UNL     1      -0.038  -3.121   0.919  0.00  0.00    -0.463 OA
BRANCH  19  27
ATOM     24  C   UNL     1      -0.029   1.530   0.041  0.00  0.00    +0.008 C 
ATOM     25  C   UNL     1      -0.007   0.000   0.026  0.00  0.00    -0.003 C 
ATOM     26  C   UNL     1       1.343  -0.684  -0.200  0.00  0.00    +0.015 C 
ATOM     27  C   UNL     1       0.696  -0.707   1.187  0.00  0.00    +0.058 C 
ENDBRANCH  19  27
ENDBRANCH  18  22
ENDBRANCH   1  18
TORSDOF 4
