REMARK  Name = ZINC12461771
REMARK  8 active torsions:
REMARK  status: ('A' for Active; 'I' for Inactive)
REMARK    1  A    between atoms: C_1  and  C_2
REMARK    2  A    between atoms: C_5  and  S_8
REMARK    3  A    between atoms: S_8  and  N_11
REMARK    4  A    between atoms: C_12  and  C_13
REMARK    5  A    between atoms: N_14  and  C_15
REMARK    6  A    between atoms: C_18  and  O_23
REMARK    7  A    between atoms: C_19  and  C_22
REMARK    8  A    between atoms: C_20  and  C_21
REMARK                            x       y       z     vdW  Elec       q    Type
REMARK                         _______ _______ _______ _____ _____    ______ ____
ROOT
ATOM      1  N   UNL     1       1.513   2.338   4.612  0.00  0.00    -0.118 NA
ATOM      2  C   UNL     1       2.115   1.920   3.546  0.00  0.00    +0.118 C 
ATOM      3  C   UNL     1       3.617   1.795   3.529  0.00  0.00    +0.085 C 
ATOM      4  N   UNL     1       1.387   1.592   2.432  0.00  0.00    -0.302 N 
ATOM      5  H   UNL     1       1.842   1.364   1.605  0.00  0.00    +0.153 HD
ENDROOT
BRANCH   4   6
ATOM      6  C   UNL     1      -0.012   1.585   2.486  0.00  0.00    +0.036 A 
ATOM      7  C   UNL     1      -0.659   1.301   3.682  0.00  0.00    +0.027 A 
ATOM      8  C   UNL     1      -2.039   1.294   3.735  0.00  0.00    +0.047 A 
ATOM      9  C   UNL     1      -2.779   1.570   2.594  0.00  0.00    +0.120 A 
ATOM     10  C   UNL     1      -2.133   1.859   1.401  0.00  0.00    -0.004 A 
ATOM     11  C   UNL     1      -0.753   1.861   1.345  0.00  0.00    -0.023 A 
ATOM     12  C   UNL     1      -0.052   2.169   0.047  0.00  0.00    +0.046 C 
ATOM     13  C   UNL     1      -2.938   2.165   0.164  0.00  0.00    +0.048 C 
BRANCH   9  14
ATOM     14  O   UNL     1      -4.137   1.562   2.647  0.00  0.00    -0.506 OA
ATOM     15  H   UNL     1      -4.527   2.419   2.868  0.00  0.00    +0.292 HD
ENDBRANCH   9  14
ENDBRANCH   4   6
BRANCH   1  16
ATOM     16  S   UNL     1       2.393   2.735   5.958  0.00  0.00    +0.100 S 
ATOM     17  O   UNL     1       2.980   1.530   6.429  0.00  0.00    -0.146 OA
ATOM     18  O   UNL     1       3.167   3.877   5.615  0.00  0.00    -0.146 OA
BRANCH  16  23
ATOM     19  C   UNL     1      -1.525   4.514  10.188  0.00  0.00    +0.044 C 
ATOM     20  C   UNL     1      -0.546   4.070   9.131  0.00  0.00    -0.050 A 
ATOM     21  C   UNL     1      -0.188   2.738   9.038  0.00  0.00    +0.005 A 
ATOM     22  C   UNL     1       0.710   2.331   8.069  0.00  0.00    +0.029 A 
ATOM     23  C   UNL     1       1.248   3.255   7.193  0.00  0.00    +0.113 A 
ATOM     24  C   UNL     1       0.894   4.587   7.290  0.00  0.00    +0.029 A 
ATOM     25  C   UNL     1      -0.007   4.994   8.256  0.00  0.00    +0.005 A 
ENDBRANCH  16  23
ENDBRANCH   1  16
TORSDOF 4
