REMARK  Name = ZINC18333394
REMARK  9 active torsions:
REMARK  status: ('A' for Active; 'I' for Inactive)
REMARK    1  A    between atoms: C_3  and  O_25
REMARK    2  A    between atoms: C_6  and  C_7
REMARK    3  A    between atoms: C_10  and  S_13
REMARK    4  A    between atoms: N_11  and  N_12
REMARK    5  A    between atoms: S_13  and  C_14
REMARK    6  A    between atoms: C_14  and  C_15
REMARK    7  A    between atoms: N_17  and  C_18
REMARK    8  A    between atoms: C_21  and  O_24
REMARK    9  A    between atoms: O_25  and  C_26
REMARK                            x       y       z     vdW  Elec       q    Type
REMARK                         _______ _______ _______ _____ _____    ______ ____
ROOT
ATOM      1  C   UNL     1       0.768   1.257  -4.195  0.00  0.00    +0.182 A 
ATOM      2  N   UNL     1       1.491   0.383  -3.533  0.00  0.00    -0.127 NA
ATOM      3  N   UNL     1       1.104   0.332  -2.309  0.00  0.00    -0.121 NA
ATOM      4  C   UNL     1       0.106   1.164  -2.115  0.00  0.00    +0.209 A 
ATOM      5  N   UNL     1      -0.141   1.784  -3.307  0.00  0.00    -0.224 N 
ENDROOT
BRANCH   1  11
ATOM      6  C   UNL     1       1.615   0.770  -6.486  0.00  0.00    +0.015 A 
ATOM      7  C   UNL     1       1.737   1.099  -7.819  0.00  0.00    +0.046 A 
ATOM      8  C   UNL     1       1.165   2.268  -8.303  0.00  0.00    +0.127 A 
ATOM      9  C   UNL     1       0.465   3.108  -7.448  0.00  0.00    +0.046 A 
ATOM     10  C   UNL     1       0.333   2.784  -6.114  0.00  0.00    +0.015 A 
ATOM     11  C   UNL     1       0.906   1.609  -5.624  0.00  0.00    +0.021 A 
BRANCH   8  12
ATOM     12  O   UNL     1       1.293   2.592  -9.616  0.00  0.00    -0.434 OA
BRANCH  12  13
ATOM     13  C   UNL     1       2.026   1.683 -10.440  0.00  0.00    +0.541 C 
ATOM     14  F   UNL     1       3.333   1.564  -9.954  0.00  0.00    -0.166 F 
ATOM     15  F   UNL     1       1.405   0.430 -10.420  0.00  0.00    -0.166 F 
ENDBRANCH  12  13
ENDBRANCH   8  12
ENDBRANCH   1  11
BRANCH   5  16
ATOM     16  N   UNL     1      -1.092   2.731  -3.564  0.00  0.00    -0.295 N 
ATOM     17  H   UNL     1      -0.706   3.660  -3.495  0.00  0.00    +0.163 HD
ATOM     18  H   UNL     1      -1.516   2.581  -4.468  0.00  0.00    +0.163 HD
ENDBRANCH   5  16
BRANCH   4  19
ATOM     19  S   UNL     1      -0.750   1.435  -0.599  0.00  0.00    -0.075 S 
BRANCH  19  20
ATOM     20  C   UNL     1       0.135   0.276   0.473  0.00  0.00    +0.173 C 
BRANCH  20  21
ATOM     21  C   UNL     1      -0.443   0.336   1.863  0.00  0.00    +0.227 C 
ATOM     22  O   UNL     1      -1.363   1.089   2.106  0.00  0.00    -0.275 OA
ATOM     23  N   UNL     1       0.062  -0.446   2.838  0.00  0.00    -0.285 N 
ATOM     24  H   UNL     1       0.846  -0.991   2.664  0.00  0.00    +0.155 HD
BRANCH  23  25
ATOM     25  C   UNL     1      -0.544  -0.471   4.101  0.00  0.00    +0.034 A 
ATOM     26  C   UNL     1       0.230  -0.659   5.238  0.00  0.00    +0.027 A 
ATOM     27  C   UNL     1      -0.368  -0.679   6.483  0.00  0.00    +0.047 A 
ATOM     28  C   UNL     1      -1.742  -0.523   6.596  0.00  0.00    +0.117 A 
ATOM     29  C   UNL     1      -2.515  -0.340   5.460  0.00  0.00    +0.047 A 
ATOM     30  C   UNL     1      -1.919  -0.315   4.215  0.00  0.00    +0.027 A 
BRANCH  28  31
ATOM     31  O   UNL     1      -2.330  -0.548   7.822  0.00  0.00    -0.507 OA
ATOM     32  H   UNL     1      -2.606  -1.429   8.108  0.00  0.00    +0.292 HD
ENDBRANCH  28  31
ENDBRANCH  23  25
ENDBRANCH  20  21
ENDBRANCH  19  20
ENDBRANCH   4  19
TORSDOF 9
