REMARK  Name = ZINC01322867
REMARK  7 active torsions:
REMARK  status: ('A' for Active; 'I' for Inactive)
REMARK    1  A    between atoms: C_1  and  C_2
REMARK    2  A    between atoms: C_5  and  N_8
REMARK    3  A    between atoms: C_9  and  O_32
REMARK    4  A    between atoms: C_10  and  C_16
REMARK    5  A    between atoms: C_23  and  O_24
REMARK    6  A    between atoms: O_24  and  C_25
REMARK    7  A    between atoms: C_31  and  N_54
REMARK                            x       y       z     vdW  Elec       q    Type
REMARK                         _______ _______ _______ _____ _____    ______ ____
ROOT
ATOM      1  N   UNL     1       2.565  -0.361   0.711  0.00  0.00    -0.259 N 
ATOM      2  C   UNL     1       2.655   0.995   0.532  0.00  0.00    +0.207 A 
ATOM      3  C   UNL     1       1.527   1.702   0.247  0.00  0.00    +0.070 A 
ATOM      4  C   UNL     1       0.299   1.015   0.143  0.00  0.00    +0.279 A 
ATOM      5  O   UNL     1      -0.727   1.628  -0.113  0.00  0.00    -0.265 OA
ATOM      6  N   UNL     1       0.262  -0.313   0.327  0.00  0.00    -0.183 NA
ATOM      7  C   UNL     1       1.358  -0.989   0.603  0.00  0.00    +0.190 A 
ATOM      8  S   UNL     1       1.265  -2.733   0.837  0.00  0.00    -0.010 SA
ENDROOT
BRANCH   3   9
ATOM      9  C   UNL     1       1.590   3.194   0.045  0.00  0.00    +0.007 C 
ATOM     10  C   UNL     1       1.861   3.864   1.367  0.00  0.00    -0.008 A 
ATOM     11  C   UNL     1       2.752   4.910   1.483  0.00  0.00    -0.040 A 
ATOM     12  C   UNL     1       2.968   5.502   2.718  0.00  0.00    +0.053 A 
ATOM     13  C   UNL     1       2.296   5.050   3.842  0.00  0.00    +0.170 A 
ATOM     14  C   UNL     1       1.400   3.993   3.729  0.00  0.00    +0.208 A 
ATOM     15  C   UNL     1       1.185   3.403   2.492  0.00  0.00    +0.167 A 
ATOM     16  O   UNL     1       0.872   3.734   4.963  0.00  0.00    -0.449 OA
ATOM     17  C   UNL     1       1.147   4.907   5.751  0.00  0.00    +0.467 C 
ATOM     18  O   UNL     1       2.332   5.456   5.145  0.00  0.00    -0.452 OA
ATOM     19  C   UNL     1       3.511   5.438   0.293  0.00  0.00    +0.017 C 
ATOM     20  C   UNL     1       2.848   4.964  -1.001  0.00  0.00    -0.073 C 
ATOM     21  C   UNL     1       2.348   2.941  -2.239  0.00  0.00    -0.095 C 
ATOM     22  N   UNL     1       2.671   3.500  -0.907  0.00  0.00    +0.386 N 
ATOM     23  H   UNL     1       3.544   3.077  -0.571  0.00  0.00    -0.081 HD
BRANCH  15  24
ATOM     24  O   UNL     1       0.309   2.369   2.378  0.00  0.00    -0.491 OA
ATOM     25  C   UNL     1      -1.075   2.702   2.259  0.00  0.00    +0.277 C 
ENDBRANCH  15  24
ENDBRANCH   3   9
BRANCH   1  30
ATOM     26  C   UNL     1       7.223  -3.375   1.903  0.00  0.00    +0.044 C 
ATOM     27  C   UNL     1       5.986  -2.575   1.586  0.00  0.00    -0.050 A 
ATOM     28  C   UNL     1       4.968  -2.480   2.517  0.00  0.00    +0.005 A 
ATOM     29  C   UNL     1       3.833  -1.747   2.230  0.00  0.00    +0.026 A 
ATOM     30  C   UNL     1       3.715  -1.105   1.005  0.00  0.00    +0.052 A 
ATOM     31  C   UNL     1       4.736  -1.207   0.070  0.00  0.00    +0.026 A 
ATOM     32  C   UNL     1       5.871  -1.937   0.365  0.00  0.00    +0.005 A 
ENDBRANCH   1  30
BRANCH   2  33
ATOM     33  O   UNL     1       3.847   1.622   0.643  0.00  0.00    -0.493 OA
ATOM     34  H   UNL     1       4.373   1.614  -0.168  0.00  0.00    +0.294 HD
ENDBRANCH   2  33
TORSDOF 4
