REMARK  Name = ZINC38650720
REMARK  16 active torsions:
REMARK  status: ('A' for Active; 'I' for Inactive)
REMARK    1  A    between atoms: C_1  and  C_2
REMARK    2  A    between atoms: C_2  and  C_3
REMARK    3  A    between atoms: C_3  and  O_4
REMARK    4  A    between atoms: O_4  and  C_5
REMARK    5  A    between atoms: C_8  and  C_11
REMARK    6  A    between atoms: C_16  and  O_25
REMARK    7  A    between atoms: C_20  and  N_24
REMARK    8  A    between atoms: C_21  and  C_22
REMARK    9  A    between atoms: O_25  and  C_26
REMARK   10  A    between atoms: C_26  and  C_28
REMARK   11  A    between atoms: C_28  and  C_30
REMARK   12  A    between atoms: C_28  and  O_31
REMARK   13  A    between atoms: O_31  and  C_32
REMARK   14  A    between atoms: C_35  and  C_38
REMARK   15  A    between atoms: C_38  and  C_39
REMARK   16  A    between atoms: C_38  and  C_40
REMARK                            x       y       z     vdW  Elec       q    Type
REMARK                         _______ _______ _______ _____ _____    ______ ____
ROOT
ATOM      1  C   UNL     1       3.433  -4.419   5.680  0.00  0.00    +0.098 C 
ATOM      2  C   UNL     1       2.435  -5.311   6.370  0.00  0.00    +0.008 A 
ATOM      3  C   UNL     1       1.483  -4.750   7.203  0.00  0.00    +0.012 A 
ATOM      4  C   UNL     1       0.560  -5.553   7.844  0.00  0.00    +0.047 A 
ATOM      5  C   UNL     1       0.586  -6.927   7.654  0.00  0.00    +0.135 A 
ATOM      6  C   UNL     1       1.538  -7.492   6.822  0.00  0.00    +0.093 A 
ATOM      7  C   UNL     1       2.465  -6.683   6.177  0.00  0.00    +0.138 A 
ATOM      8  O   UNL     1       3.391  -7.251   5.366  0.00  0.00    -0.441 OA
ATOM      9  C   UNL     1       4.508  -6.576   5.048  0.00  0.00    +0.199 C 
ATOM     10  C   UNL     1       4.590  -5.233   5.174  0.00  0.00    +0.098 C 
ENDROOT
BRANCH   1  14
ATOM     11  C   UNL     1       1.539  -2.454   2.392  0.00  0.00    +0.121 A 
ATOM     12  C   UNL     1       2.086  -1.707   3.426  0.00  0.00    +0.046 A 
ATOM     13  C   UNL     1       2.698  -2.345   4.488  0.00  0.00    +0.008 A 
ATOM     14  C   UNL     1       2.765  -3.726   4.521  0.00  0.00    -0.034 A 
ATOM     15  C   UNL     1       2.220  -4.472   3.492  0.00  0.00    +0.008 A 
ATOM     16  C   UNL     1       1.602  -3.839   2.431  0.00  0.00    +0.046 A 
BRANCH  11  17
ATOM     17  O   UNL     1       0.936  -1.829   1.347  0.00  0.00    -0.492 OA
BRANCH  17  18
ATOM     18  C   UNL     1       0.908  -0.400   1.374  0.00  0.00    +0.229 C 
BRANCH  18  20
ATOM     19  C   UNL     1       0.164   1.649   0.153  0.00  0.00    +0.007 C 
ATOM     20  C   UNL     1       0.195   0.120   0.124  0.00  0.00    +0.038 C 
ENDBRANCH  18  20
ENDBRANCH  17  18
ENDBRANCH  11  17
ENDBRANCH   1  14
BRANCH   9  21
ATOM     21  N   UNL     1       5.596  -7.270   4.582  0.00  0.00    -0.328 N 
ATOM     22  H   UNL     1       5.552  -8.234   4.486  0.00  0.00    +0.145 HD
ATOM     23  H   UNL     1       6.410  -6.796   4.348  0.00  0.00    +0.145 HD
ENDBRANCH   9  21
BRANCH  10  24
ATOM     24  C   UNL     1       5.809  -4.573   4.816  0.00  0.00    +0.101 C 
ATOM     25  N   UNL     1       6.777  -4.049   4.532  0.00  0.00    -0.191 NA
ENDBRANCH  10  24
BRANCH   5  26
ATOM     26  O   UNL     1      -0.322  -7.718   8.285  0.00  0.00    -0.423 OA
BRANCH  26  27
ATOM     27  C   UNL     1       0.129  -8.580   9.211  0.00  0.00    +0.353 C 
ATOM     28  O   UNL     1       1.294  -8.570   9.529  0.00  0.00    -0.246 OA
BRANCH  27  29
ATOM     29  C   UNL     1      -0.820  -9.559   9.854  0.00  0.00    +0.279 C 
ATOM     30  C   UNL     1      -1.861  -8.796  10.675  0.00  0.00    +0.064 C 
BRANCH  29  31
ATOM     31  O   UNL     1      -0.088 -10.437  10.712  0.00  0.00    -0.478 OA
BRANCH  31  32
ATOM     32  C   UNL     1      -0.536 -11.716  10.812  0.00  0.00    +0.122 A 
ATOM     33  C   UNL     1      -1.725 -12.086  10.199  0.00  0.00    +0.046 A 
ATOM     34  C   UNL     1      -2.178 -13.387  10.302  0.00  0.00    +0.007 A 
ATOM     35  C   UNL     1      -1.448 -14.320  11.015  0.00  0.00    -0.045 A 
ATOM     36  C   UNL     1      -0.264 -13.954  11.626  0.00  0.00    +0.007 A 
ATOM     37  C   UNL     1       0.197 -12.656  11.521  0.00  0.00    +0.046 A 
BRANCH  35  38
ATOM     38  C   UNL     1      -1.946 -15.739  11.126  0.00  0.00    +0.013 C 
ATOM     39  C   UNL     1      -0.909 -16.691  10.525  0.00  0.00    +0.012 C 
ATOM     40  C   UNL     1      -2.165 -16.088  12.599  0.00  0.00    +0.012 C 
ENDBRANCH  35  38
ENDBRANCH  31  32
ENDBRANCH  29  31
ENDBRANCH  27  29
ENDBRANCH  26  27
ENDBRANCH   5  26
TORSDOF 12
