REMARK  Name = ZINC67590480
REMARK  9 active torsions:
REMARK  status: ('A' for Active; 'I' for Inactive)
REMARK    1  A    between atoms: C_1  and  C_2
REMARK    2  A    between atoms: C_2  and  C_4
REMARK    3  A    between atoms: C_2  and  N_13
REMARK    4  A    between atoms: N_16  and  C_17
REMARK    5  A    between atoms: C_17  and  C_18
REMARK    6  A    between atoms: C_18  and  C_20
REMARK    7  A    between atoms: C_18  and  O_31
REMARK    8  A    between atoms: C_20  and  O_21
REMARK    9  A    between atoms: O_21  and  C_22
REMARK                            x       y       z     vdW  Elec       q    Type
REMARK                         _______ _______ _______ _____ _____    ______ ____
ROOT
ATOM      1  N   UNL     1       0.688  -0.476  -1.203  0.00  0.00    -0.290 N 
ATOM      2  C   UNL     1       0.006  -0.608  -2.358  0.00  0.00    +0.300 C 
ATOM      3  O   UNL     1      -1.178  -0.335  -2.400  0.00  0.00    -0.253 OA
ATOM      4  N   UNL     1       0.637  -1.043  -3.467  0.00  0.00    -0.297 N 
ATOM      5  H   UNL     1       1.632  -0.695  -1.170  0.00  0.00    +0.151 HD
ATOM      6  H   UNL     1       1.582  -1.261  -3.434  0.00  0.00    +0.150 HD
ENDROOT
BRANCH   1   8
ATOM      7  C   UNL     1      -0.019   1.526   0.010  0.00  0.00    +0.036 C 
ATOM      8  C   UNL     1       0.002  -0.004   0.002  0.00  0.00    +0.137 C 
BRANCH   8   9
ATOM      9  C   UNL     1       0.731  -0.503   1.223  0.00  0.00    +0.126 A 
ATOM     10  C   UNL     1       0.140  -0.958   2.336  0.00  0.00    +0.055 A 
ATOM     11  C   UNL     1       1.225  -1.333   3.251  0.00  0.00    +0.020 A 
ATOM     12  C   UNL     1       1.275  -1.860   4.541  0.00  0.00    +0.011 A 
ATOM     13  C   UNL     1       2.486  -2.101   5.129  0.00  0.00    +0.001 A 
ATOM     14  C   UNL     1       3.663  -1.824   4.450  0.00  0.00    +0.004 A 
ATOM     15  C   UNL     1       3.634  -1.302   3.174  0.00  0.00    +0.047 A 
ATOM     16  C   UNL     1       2.414  -1.051   2.558  0.00  0.00    +0.135 A 
ATOM     17  O   UNL     1       2.068  -0.562   1.351  0.00  0.00    -0.458 OA
ENDBRANCH   8   9
ENDBRANCH   1   8
BRANCH   4  18
ATOM     18  C   UNL     1      -0.104  -1.186  -4.723  0.00  0.00    +0.140 C 
BRANCH  18  19
ATOM     19  C   UNL     1       0.839  -1.692  -5.817  0.00  0.00    +0.169 C 
BRANCH  19  20
ATOM     20  O   UNL     1       1.286  -3.009  -5.489  0.00  0.00    -0.387 OA
ATOM     21  H   UNL     1       0.572  -3.656  -5.405  0.00  0.00    +0.210 HD
ENDBRANCH  19  20
BRANCH  19  22
ATOM     22  C   UNL     1       0.098  -1.722  -7.155  0.00  0.00    +0.261 C 
BRANCH  22  23
ATOM     23  O   UNL     1       1.008  -2.083  -8.196  0.00  0.00    -0.489 OA
BRANCH  23  24
ATOM     24  C   UNL     1       0.506  -2.156  -9.457  0.00  0.00    +0.124 A 
ATOM     25  C   UNL     1      -0.834  -1.881  -9.687  0.00  0.00    +0.049 A 
ATOM     26  C   UNL     1      -1.346  -1.955 -10.969  0.00  0.00    +0.053 A 
ATOM     27  C   UNL     1      -0.523  -2.304 -12.027  0.00  0.00    +0.166 A 
ATOM     28  C   UNL     1       0.823  -2.581 -11.799  0.00  0.00    +0.170 A 
ATOM     29  C   UNL     1       1.335  -2.500 -10.514  0.00  0.00    +0.095 A 
ATOM     30  O   UNL     1       1.412  -2.896 -12.989  0.00  0.00    -0.452 OA
ATOM     31  C   UNL     1       0.328  -3.208 -13.884  0.00  0.00    +0.466 C 
ATOM     32  O   UNL     1      -0.777  -2.446 -13.362  0.00  0.00    -0.453 OA
ENDBRANCH  23  24
ENDBRANCH  22  23
ENDBRANCH  19  22
ENDBRANCH  18  19
ENDBRANCH   4  18
TORSDOF 8
