REMARK  Name = ZINC20207821
REMARK  8 active torsions:
REMARK  status: ('A' for Active; 'I' for Inactive)
REMARK    1  A    between atoms: C_1  and  S_2
REMARK    2  A    between atoms: S_2  and  C_5
REMARK    3  A    between atoms: C_11  and  C_12
REMARK    4  A    between atoms: N_14  and  C_21
REMARK    5  A    between atoms: C_21  and  C_22
REMARK    6  A    between atoms: C_22  and  C_23
REMARK    7  A    between atoms: C_23  and  O_24
REMARK    8  A    between atoms: O_24  and  C_25
REMARK                            x       y       z     vdW  Elec       q    Type
REMARK                         _______ _______ _______ _____ _____    ______ ____
ROOT
ATOM      1  C   UNL     1       6.736  -0.954  -4.378  0.00  0.00    +0.001 A 
ATOM      2  C   UNL     1       6.726  -1.129  -3.007  0.00  0.00    +0.094 A 
ATOM      3  N   UNL     1       7.964  -0.921  -2.517  0.00  0.00    -0.346 N 
ATOM      4  C   UNL     1       8.844  -0.600  -3.531  0.00  0.00    +0.050 A 
ATOM      5  C   UNL     1       8.126  -0.610  -4.738  0.00  0.00    +0.007 A 
ATOM      6  C   UNL     1       8.771  -0.324  -5.937  0.00  0.00    +0.010 A 
ATOM      7  C   UNL     1      10.118  -0.033  -5.935  0.00  0.00    +0.001 A 
ATOM      8  C   UNL     1      10.830  -0.026  -4.745  0.00  0.00    +0.002 A 
ATOM      9  C   UNL     1      10.202  -0.300  -3.550  0.00  0.00    +0.026 A 
ENDROOT
BRANCH   1  16
ATOM     10  C   UNL     1       2.119  -4.007  -1.504  0.00  0.00    +0.235 C 
ATOM     11  N   UNL     1       3.303  -3.699  -1.951  0.00  0.00    -0.145 NA
ATOM     12  N   UNL     1       3.483  -3.220  -3.231  0.00  0.00    -0.150 N 
ATOM     13  C   UNL     1       4.724  -2.941  -3.841  0.00  0.00    +0.153 C 
ATOM     14  N   UNL     1       5.852  -3.477  -3.453  0.00  0.00    -0.283 NA
ATOM     15  C   UNL     1       4.623  -1.978  -4.971  0.00  0.00    +0.081 C 
ATOM     16  C   UNL     1       5.638  -1.084  -5.259  0.00  0.00    +0.026 C 
ATOM     17  C   UNL     1       3.378  -2.029  -5.773  0.00  0.00    +0.273 C 
ATOM     18  O   UNL     1       3.362  -1.649  -6.933  0.00  0.00    -0.268 OA
ATOM     19  N   UNL     1       2.264  -2.508  -5.185  0.00  0.00    -0.152 NA
ATOM     20  C   UNL     1       2.346  -3.026  -3.986  0.00  0.00    +0.182 C 
ATOM     21  S   UNL     1       1.077  -3.639  -2.909  0.00  0.00    -0.015 S 
ATOM     22  H   UNL     1       5.857  -4.134  -2.739  0.00  0.00    +0.188 HD
BRANCH  10  24
ATOM     23  C   UNL     1       1.184  -3.173   1.039  0.00  0.00    +0.202 C 
ATOM     24  S   UNL     1       1.663  -4.635   0.077  0.00  0.00    +0.019 S 
ATOM     25  O   UNL     1       2.858  -5.197   0.603  0.00  0.00    -0.168 OA
ATOM     26  O   UNL     1       0.527  -5.452  -0.171  0.00  0.00    -0.168 OA
ENDBRANCH  10  24
ENDBRANCH   1  16
BRANCH   3  27
ATOM     27  C   UNL     1       8.326  -1.020  -1.101  0.00  0.00    +0.125 C 
BRANCH  27  28
ATOM     28  C   UNL     1       8.266   0.368  -0.461  0.00  0.00    +0.062 C 
BRANCH  28  29
ATOM     29  C   UNL     1       8.644   0.265   1.018  0.00  0.00    +0.231 C 
BRANCH  29  30
ATOM     30  O   UNL     1       8.588   1.561   1.616  0.00  0.00    -0.492 OA
BRANCH  30  31
ATOM     31  C   UNL     1       8.898   1.646   2.937  0.00  0.00    +0.121 A 
ATOM     32  C   UNL     1       9.255   0.505   3.641  0.00  0.00    +0.045 A 
ATOM     33  C   UNL     1       9.570   0.593   4.983  0.00  0.00    +0.004 A 
ATOM     34  C   UNL     1       9.530   1.817   5.625  0.00  0.00    +0.000 A 
ATOM     35  C   UNL     1       9.174   2.956   4.925  0.00  0.00    +0.004 A 
ATOM     36  C   UNL     1       8.864   2.874   3.581  0.00  0.00    +0.045 A 
ENDBRANCH  30  31
ENDBRANCH  29  30
ENDBRANCH  28  29
ENDBRANCH  27  28
ENDBRANCH   3  27
TORSDOF 7
