REMARK  Name = ZINC10066001
REMARK  7 active torsions:
REMARK  status: ('A' for Active; 'I' for Inactive)
REMARK    1  A    between atoms: C_1  and  N_63
REMARK    2  A    between atoms: C_2  and  N_63
REMARK    3  A    between atoms: C_3  and  C_4
REMARK    4  A    between atoms: C_3  and  N_63
REMARK    5  A    between atoms: C_4  and  N_5
REMARK    6  A    between atoms: C_19  and  C_21
REMARK    7  A    between atoms: C_23  and  C_31
REMARK                            x       y       z     vdW  Elec       q    Type
REMARK                         _______ _______ _______ _____ _____    ______ ____
ROOT
ATOM      1  N   UNL     1      -3.719   2.161   0.169  0.00  0.00    -0.248 N 
ATOM      2  C   UNL     1      -4.934   1.508   0.288  0.00  0.00    +0.168 A 
ATOM      3  N   UNL     1      -5.177   0.218   0.301  0.00  0.00    -0.224 NA
ATOM      4  C   UNL     1      -6.426  -0.284   0.425  0.00  0.00    +0.084 A 
ATOM      5  C   UNL     1      -6.820  -1.642   0.453  0.00  0.00    +0.078 A 
ATOM      6  C   UNL     1      -8.145  -1.994   0.584  0.00  0.00    +0.164 A 
ATOM      7  C   UNL     1      -9.136  -1.019   0.698  0.00  0.00    +0.163 A 
ATOM      8  C   UNL     1      -8.781   0.320   0.674  0.00  0.00    +0.066 A 
ATOM      9  C   UNL     1      -7.461   0.671   0.540  0.00  0.00    +0.044 A 
ATOM     10  S   UNL     1      -6.569   2.206   0.469  0.00  0.00    -0.052 S 
ATOM     11  O   UNL     1     -10.446  -1.361   0.835  0.00  0.00    -0.485 OA
ATOM     12  C   UNL     1     -10.800  -2.703   0.482  0.00  0.00    +0.270 C 
ATOM     13  C   UNL     1      -9.771  -3.651   1.111  0.00  0.00    +0.270 C 
ATOM     14  O   UNL     1      -8.478  -3.317   0.598  0.00  0.00    -0.485 OA
ATOM     15  C   UNL     1      -2.580   1.450   0.046  0.00  0.00    +0.253 C 
ATOM     16  O   UNL     1      -2.628   0.240  -0.062  0.00  0.00    -0.270 OA
ENDROOT
BRANCH  15  17
ATOM     17  C   UNL     1      -1.274   2.142   0.042  0.00  0.00    +0.048 A 
ATOM     18  C   UNL     1      -0.902   2.990   1.076  0.00  0.00    +0.042 A 
ATOM     19  C   UNL     1       0.350   3.621   1.033  0.00  0.00    +0.072 A 
ATOM     20  N   UNL     1       1.194   3.442   0.038  0.00  0.00    -0.247 NA
ATOM     21  C   UNL     1       0.917   2.650  -0.998  0.00  0.00    +0.072 A 
ATOM     22  C   UNL     1      -0.322   1.963  -1.055  0.00  0.00    +0.013 A 
ATOM     23  C   UNL     1      -0.608   1.132  -2.144  0.00  0.00    +0.011 A 
ATOM     24  C   UNL     1       0.310   0.990  -3.142  0.00  0.00    +0.001 A 
ATOM     25  C   UNL     1       1.530   1.662  -3.091  0.00  0.00    +0.002 A 
ATOM     26  C   UNL     1       1.840   2.478  -2.047  0.00  0.00    +0.028 A 
BRANCH  19  27
ATOM     27  C   UNL     1       0.736   4.520   2.147  0.00  0.00    +0.000 A 
ATOM     28  C   UNL     1      -0.139   4.733   3.211  0.00  0.00    +0.010 A 
ATOM     29  C   UNL     1       0.228   5.566   4.247  0.00  0.00    +0.001 A 
ATOM     30  C   UNL     1       1.458   6.200   4.226  0.00  0.00    +0.000 A 
ATOM     31  C   UNL     1       2.328   5.997   3.171  0.00  0.00    +0.001 A 
ATOM     32  C   UNL     1       1.974   5.160   2.131  0.00  0.00    +0.010 A 
ENDBRANCH  19  27
ENDBRANCH  15  17
BRANCH   1  33
ATOM     33  C   UNL     1      -3.671   3.625   0.176  0.00  0.00    +0.097 C 
BRANCH  33  34
ATOM     34  C   UNL     1      -3.924   4.152  -1.238  0.00  0.00    -0.060 C 
BRANCH  34  37
ATOM     35  C   UNL     1      -3.878   6.154  -2.599  0.00  0.00    -0.097 C 
ATOM     36  C   UNL     1      -4.984   6.179  -0.445  0.00  0.00    -0.097 C 
ATOM     37  N   UNL     1      -3.851   5.628  -1.218  0.00  0.00    +0.377 N 
ATOM     38  H   UNL     1      -2.972   5.912  -0.769  0.00  0.00    -0.083 HD
ENDBRANCH  34  37
ENDBRANCH  33  34
ENDBRANCH   1  33
TORSDOF 5
