REMARK  Name = ZINC14456458
REMARK  4 active torsions:
REMARK  status: ('A' for Active; 'I' for Inactive)
REMARK    1  A    between atoms: C_1  and  C_2
REMARK    2  A    between atoms: C_5  and  C_7
REMARK    3  A    between atoms: C_18  and  S_23
REMARK    4  A    between atoms: S_23  and  N_26
REMARK                            x       y       z     vdW  Elec       q    Type
REMARK                         _______ _______ _______ _____ _____    ______ ____
ROOT
ATOM      1  C   UNL     1       3.646  -2.040  -0.485  0.00  0.00    +0.111 C 
ATOM      2  C   UNL     1       2.558  -2.817   0.262  0.00  0.00    +0.029 C 
ATOM      3  C   UNL     1       2.374  -4.178  -0.472  0.00  0.00    +0.033 C 
ATOM      4  C   UNL     1       1.455  -3.832  -1.627  0.00  0.00    -0.030 C 
ATOM      5  C   UNL     1       0.791  -2.731  -1.372  0.00  0.00    -0.023 C 
ATOM      6  C   UNL     1       1.179  -2.189  -0.017  0.00  0.00    +0.049 C 
ATOM      7  C   UNL     1       1.207  -0.693  -0.013  0.00  0.00    -0.018 A 
ATOM      8  C   UNL     1       0.002  -0.004   0.002  0.00  0.00    +0.034 A 
ATOM      9  C   UNL     1      -0.017   1.376   0.010  0.00  0.00    +0.106 A 
ATOM     10  C   UNL     1       1.168   2.090   0.002  0.00  0.00    +0.030 A 
ATOM     11  C   UNL     1       2.372   1.415  -0.014  0.00  0.00    +0.025 A 
ATOM     12  C   UNL     1       2.392   0.026  -0.022  0.00  0.00    +0.031 A 
ATOM     13  N   UNL     1       3.621  -0.642  -0.041  0.00  0.00    -0.336 N 
ATOM     14  H   UNL     1       4.436  -0.192   0.232  0.00  0.00    +0.147 HD
ENDROOT
BRANCH   1  19
ATOM     15  C   UNL     1       2.008  -1.569  -5.887  0.00  0.00    +0.051 C 
ATOM     16  C   UNL     1       2.608  -1.880  -4.540  0.00  0.00    -0.013 A 
ATOM     17  C   UNL     1       3.570  -2.779  -4.221  0.00  0.00    +0.011 A 
ATOM     18  C   UNL     1       3.974  -2.890  -2.904  0.00  0.00    +0.013 A 
ATOM     19  C   UNL     1       3.388  -2.104  -1.968  0.00  0.00    +0.010 A 
ATOM     20  S   UNL     1       2.235  -1.158  -2.950  0.00  0.00    -0.097 S 
ENDBRANCH   1  19
BRANCH   9  21
ATOM     21  S   UNL     1      -1.557   2.232   0.021  0.00  0.00    +0.061 S 
ATOM     22  O   UNL     1      -1.309   3.520  -0.523  0.00  0.00    -0.153 OA
ATOM     23  O   UNL     1      -2.519   1.343  -0.530  0.00  0.00    -0.153 OA
BRANCH  21  24
ATOM     24  N   UNL     1      -1.977   2.461   1.607  0.00  0.00    -0.177 NA
ATOM     25  C   UNL     1      -2.787   1.462   2.318  0.00  0.00    +0.109 C 
ATOM     26  C   UNL     1      -2.051   1.066   3.607  0.00  0.00    +0.017 C 
ATOM     27  C   UNL     1      -1.747   2.325   4.423  0.00  0.00    +0.003 C 
ATOM     28  C   UNL     1      -0.836   3.251   3.614  0.00  0.00    +0.017 C 
ATOM     29  C   UNL     1      -1.553   3.670   2.326  0.00  0.00    +0.109 C 
ENDBRANCH  21  24
ENDBRANCH   9  21
TORSDOF 3
