REMARK  Name = ZINC52012531
REMARK  5 active torsions:
REMARK  status: ('A' for Active; 'I' for Inactive)
REMARK    1  A    between atoms: C_4  and  O_22
REMARK    2  A    between atoms: C_6  and  N_9
REMARK    3  A    between atoms: C_10  and  C_12
REMARK    4  A    between atoms: C_12  and  C_18
REMARK    5  A    between atoms: N_19  and  O_20
REMARK                            x       y       z     vdW  Elec       q    Type
REMARK                         _______ _______ _______ _____ _____    ______ ____
ROOT
ATOM      1  C   UNL     1      -1.858  -0.145  -4.092  0.00  0.00    +0.109 C 
ATOM      2  C   UNL     1      -2.284   1.268  -3.684  0.00  0.00    +0.052 C 
ATOM      3  C   UNL     1      -3.245   1.181  -2.496  0.00  0.00    +0.161 C 
ATOM      4  O   UNL     1      -4.370   0.374  -2.853  0.00  0.00    -0.380 OA
ATOM      5  C   UNL     1      -4.037  -0.972  -3.198  0.00  0.00    +0.161 C 
ATOM      6  C   UNL     1      -3.107  -0.970  -4.415  0.00  0.00    +0.052 C 
ENDROOT
BRANCH   1   7
ATOM      7  C   UNL     1      -0.972  -0.075  -5.309  0.00  0.00    +0.147 C 
ATOM      8  N   UNL     1      -0.517  -1.161  -5.840  0.00  0.00    -0.076 NA
ATOM      9  N   UNL     1      -0.647   1.147  -5.855  0.00  0.00    -0.343 N 
ATOM     10  H   UNL     1      -0.924   1.964  -5.413  0.00  0.00    +0.144 HD
ATOM     11  H   UNL     1      -0.141   1.190  -6.682  0.00  0.00    +0.144 HD
BRANCH   8  12
ATOM     12  O   UNL     1      -0.753  -2.409  -5.213  0.00  0.00    -0.408 OA
ATOM     13  H   UNL     1      -0.374  -3.164  -5.684  0.00  0.00    +0.328 HD
ENDBRANCH   8  12
ENDBRANCH   1   7
BRANCH   1  15
ATOM     14  N   UNL     1      -0.046  -0.166  -2.409  0.00  0.00    -0.309 N 
ATOM     15  C   UNL     1      -1.106  -0.792  -2.957  0.00  0.00    +0.227 C 
ATOM     16  O   UNL     1      -1.454  -1.875  -2.538  0.00  0.00    -0.275 OA
ATOM     17  H   UNL     1       0.276   0.666  -2.788  0.00  0.00    +0.149 HD
BRANCH  14  22
ATOM     18  C   UNL     1      -0.087   1.221   0.134  0.00  0.00    +0.002 C 
ATOM     19  C   UNL     1       1.363   1.707   0.186  0.00  0.00    +0.003 C 
ATOM     20  C   UNL     1       2.094   1.268  -1.085  0.00  0.00    +0.033 C 
ATOM     21  C   UNL     1       2.071  -0.258  -1.186  0.00  0.00    +0.135 C 
ATOM     22  C   UNL     1       0.620  -0.743  -1.238  0.00  0.00    +0.101 C 
ATOM     23  C   UNL     1      -0.110  -0.305   0.032  0.00  0.00    +0.025 C 
BRANCH  21  24
ATOM     24  O   UNL     1       2.753  -0.667  -2.373  0.00  0.00    -0.390 OA
ATOM     25  H   UNL     1       3.680  -0.393  -2.408  0.00  0.00    +0.210 HD
ENDBRANCH  21  24
ENDBRANCH  14  22
ENDBRANCH   1  15
TORSDOF 5
