REMARK  Name = ZINC35464088
REMARK  18 active torsions:
REMARK  status: ('A' for Active; 'I' for Inactive)
REMARK    1  A    between atoms: C_1  and  C_2
REMARK    2  A    between atoms: C_3  and  C_36
REMARK    3  A    between atoms: C_4  and  O_35
REMARK    4  A    between atoms: C_5  and  C_10
REMARK    5  A    between atoms: C_6  and  O_9
REMARK    6  A    between atoms: C_10  and  C_11
REMARK    7  A    between atoms: C_12  and  C_13
REMARK    8  A    between atoms: C_12  and  C_14
REMARK    9  A    between atoms: C_14  and  C_16
REMARK   10  A    between atoms: C_14  and  O_29
REMARK   11  A    between atoms: C_16  and  C_17
REMARK   12  A    between atoms: C_17  and  C_28
REMARK   13  A    between atoms: C_18  and  C_27
REMARK   14  A    between atoms: C_24  and  C_26
REMARK   15  A    between atoms: O_29  and  C_30
REMARK   16  A    between atoms: C_30  and  C_32
REMARK   17  A    between atoms: C_32  and  C_33
REMARK   18  A    between atoms: C_32  and  C_34
REMARK                            x       y       z     vdW  Elec       q    Type
REMARK                         _______ _______ _______ _____ _____    ______ ____
ROOT
ATOM      1  C   UNL     1       3.630  -4.631  -1.096  0.00  0.00    -0.019 C 
ATOM      2  C   UNL     1       2.925  -5.321  -0.233  0.00  0.00    -0.036 C 
ATOM      3  C   UNL     1       1.556  -5.824  -0.609  0.00  0.00    +0.042 C 
ENDROOT
BRANCH   1   4
ATOM      4  C   UNL     1       3.092  -4.385  -2.482  0.00  0.00    +0.069 C 
BRANCH   4   9
ATOM      5  C   UNL     1       2.696   1.324  -3.417  0.00  0.00    +0.046 C 
ATOM      6  C   UNL     1       2.804  -0.160  -3.176  0.00  0.00    -0.015 A 
ATOM      7  C   UNL     1       3.985  -0.839  -3.506  0.00  0.00    +0.060 A 
ATOM      8  C   UNL     1       4.078  -2.224  -3.278  0.00  0.00    +0.134 A 
ATOM      9  C   UNL     1       3.002  -2.901  -2.730  0.00  0.00    +0.041 A 
ATOM     10  C   UNL     1       1.841  -2.213  -2.409  0.00  0.00    +0.142 A 
ATOM     11  C   UNL     1       1.753  -0.840  -2.631  0.00  0.00    +0.086 A 
ATOM     12 CL   UNL     1       0.297   0.010  -2.217  0.00  0.00    -0.079 Cl
BRANCH  10  13
ATOM     13  O   UNL     1       0.788  -2.879  -1.872  0.00  0.00    -0.505 OA
ATOM     14  H   UNL     1       0.798  -2.917  -0.906  0.00  0.00    +0.292 HD
ENDBRANCH  10  13
BRANCH   8  15
ATOM     15  O   UNL     1       5.215  -2.892  -3.594  0.00  0.00    -0.506 OA
ATOM     16  H   UNL     1       5.861  -2.931  -2.875  0.00  0.00    +0.292 HD
ENDBRANCH   8  15
BRANCH   7  17
ATOM     17  C   UNL     1       5.115  -0.111  -4.086  0.00  0.00    +0.262 C 
ATOM     18  O   UNL     1       6.136  -0.702  -4.370  0.00  0.00    -0.296 OA
ENDBRANCH   7  17
ENDBRANCH   4   9
ENDBRANCH   1   4
BRANCH   2  19
ATOM     19  C   UNL     1       3.485  -5.611   1.136  0.00  0.00    +0.203 C 
BRANCH  19  20
ATOM     20  C   UNL     1       2.635  -4.905   2.195  0.00  0.00    +0.056 C 
BRANCH  20  21
ATOM     21  C   UNL     1       3.295  -5.062   3.566  0.00  0.00    -0.017 C 
ATOM     22  C   UNL     1       3.318  -6.541   3.955  0.00  0.00    -0.007 C 
ATOM     23  C   UNL     1       3.895  -6.697   5.363  0.00  0.00    +0.011 C 
ATOM     24  C   UNL     1       5.353  -6.226   5.371  0.00  0.00    +0.075 C 
ATOM     25  C   UNL     1       5.405  -4.814   4.830  0.00  0.00    +0.137 C 
ATOM     26  O   UNL     1       5.970  -3.938   5.439  0.00  0.00    -0.297 OA
ATOM     27  C   UNL     1       4.730  -4.528   3.506  0.00  0.00    +0.058 C 
ATOM     28  C   UNL     1       4.708  -3.019   3.256  0.00  0.00    +0.016 C 
ATOM     29  C   UNL     1       1.893  -7.096   3.927  0.00  0.00    +0.008 C 
ATOM     30  C   UNL     1       2.500  -4.272   4.608  0.00  0.00    +0.012 C 
ENDBRANCH  20  21
ENDBRANCH  19  20
BRANCH  19  31
ATOM     31  O   UNL     1       3.465  -7.020   1.370  0.00  0.00    -0.457 OA
BRANCH  31  32
ATOM     32  C   UNL     1       4.627  -7.677   1.236  0.00  0.00    +0.310 C 
ATOM     33  O   UNL     1       5.647  -7.064   1.030  0.00  0.00    -0.251 OA
BRANCH  32  34
ATOM     34  C   UNL     1       4.660  -9.180   1.343  0.00  0.00    +0.092 C 
ATOM     35  C   UNL     1       6.097  -9.673   1.162  0.00  0.00    +0.019 C 
ATOM     36  C   UNL     1       4.144  -9.605   2.719  0.00  0.00    +0.019 C 
ENDBRANCH  32  34
ENDBRANCH  31  32
ENDBRANCH  19  31
ENDBRANCH   2  19
TORSDOF 11
