REMARK  Name = ZINC13639686
REMARK  3 active torsions:
REMARK  status: ('A' for Active; 'I' for Inactive)
REMARK    1  A    between atoms: C_3  and  C_9
REMARK    2  A    between atoms: C_4  and  O_8
REMARK    3  A    between atoms: C_6  and  O_7
REMARK                            x       y       z     vdW  Elec       q    Type
REMARK                         _______ _______ _______ _____ _____    ______ ____
ROOT
ATOM      1  C   UNL     1      -2.552   3.879   0.047  0.00  0.00    +0.108 C 
ATOM      2  C   UNL     1      -3.122   3.966  -1.358  0.00  0.00    +0.029 C 
ATOM      3  C   UNL     1      -3.599   2.656  -1.981  0.00  0.00    +0.033 C 
ATOM      4  C   UNL     1      -4.683   3.165  -2.934  0.00  0.00    -0.030 C 
ATOM      5  C   UNL     1      -5.181   4.310  -2.484  0.00  0.00    -0.023 C 
ATOM      6  C   UNL     1      -4.514   4.646  -1.200  0.00  0.00    +0.049 C 
ATOM      7  C   UNL     1      -4.295   6.045  -0.774  0.00  0.00    -0.018 A 
ATOM      8  C   UNL     1      -5.118   7.076  -1.171  0.00  0.00    +0.020 A 
ATOM      9  C   UNL     1      -4.893   8.363  -0.717  0.00  0.00    +0.014 A 
ATOM     10  C   UNL     1      -3.838   8.618   0.141  0.00  0.00    +0.016 A 
ATOM     11  C   UNL     1      -3.004   7.593   0.537  0.00  0.00    +0.024 A 
ATOM     12  C   UNL     1      -3.217   6.298   0.081  0.00  0.00    +0.031 A 
ATOM     13  N   UNL     1      -2.348   5.277   0.485  0.00  0.00    -0.336 N 
ATOM     14  I   UNL     1      -6.151   9.924  -1.325  0.00  0.00    -0.044 I 
ATOM     15  H   UNL     1      -1.598   5.491   1.062  0.00  0.00    +0.147 HD
ENDROOT
BRANCH   1  18
ATOM     16  C   UNL     1       1.157   3.174   0.008  0.00  0.00    +0.046 A 
ATOM     17  C   UNL     1      -0.050   3.847   0.023  0.00  0.00    +0.012 A 
ATOM     18  C   UNL     1      -1.238   3.141   0.031  0.00  0.00    +0.015 A 
ATOM     19  C   UNL     1      -1.222   1.754   0.017  0.00  0.00    +0.125 A 
ATOM     20  C   UNL     1      -0.013   1.076   0.008  0.00  0.00    +0.091 A 
ATOM     21  C   UNL     1       1.178   1.786   0.000  0.00  0.00    +0.120 A 
BRANCH  21  22
ATOM     22  O   UNL     1       2.365   1.125  -0.014  0.00  0.00    -0.507 OA
ATOM     23  H   UNL     1       2.700   0.938  -0.902  0.00  0.00    +0.292 HD
ENDBRANCH  21  22
BRANCH  19  24
ATOM     24  O   UNL     1      -2.390   1.060   0.019  0.00  0.00    -0.506 OA
ATOM     25  H   UNL     1      -2.724   0.854   0.902  0.00  0.00    +0.292 HD
ENDBRANCH  19  24
ENDBRANCH   1  18
TORSDOF 3
