REMARK  Name = ZINC37570548
REMARK  10 active torsions:
REMARK  status: ('A' for Active; 'I' for Inactive)
REMARK    1  A    between atoms: C_1  and  C_2
REMARK    2  A    between atoms: C_5  and  S_8
REMARK    3  A    between atoms: S_8  and  N_11
REMARK    4  A    between atoms: N_11  and  C_12
REMARK    5  A    between atoms: N_11  and  C_20
REMARK    6  A    between atoms: C_16  and  O_18
REMARK    7  A    between atoms: O_18  and  C_19
REMARK    8  A    between atoms: N_23  and  C_26
REMARK    9  A    between atoms: C_26  and  C_27
REMARK   10  A    between atoms: C_31  and  N_33
REMARK                            x       y       z     vdW  Elec       q    Type
REMARK                         _______ _______ _______ _____ _____    ______ ____
ROOT
ATOM      1  N   UNL     1       1.651  -4.999  -0.034  0.00  0.00    -0.200 N 
ENDROOT
BRANCH   1   2
ATOM      2  C   UNL     1       1.998  -5.896  -1.140  0.00  0.00    +0.095 C 
ATOM      3  C   UNL     1       3.493  -5.771  -1.450  0.00  0.00    +0.006 C 
ATOM      4  C   UNL     1       3.864  -6.767  -2.551  0.00  0.00    -0.077 C 
ATOM      5  N   UNL     1       3.568  -8.133  -2.101  0.00  0.00    +0.382 N 
ATOM      6  C   UNL     1       2.126  -8.280  -1.870  0.00  0.00    -0.077 C 
ATOM      7  C   UNL     1       1.688  -7.342  -0.743  0.00  0.00    +0.006 C 
ATOM      8  H   UNL     1       4.066  -8.318  -1.243  0.00  0.00    -0.081 HD
BRANCH   5   9
ATOM      9  C   UNL     1       3.998  -9.089  -3.129  0.00  0.00    -0.043 C 
BRANCH   9  10
ATOM     10  C   UNL     1       3.809 -10.495  -2.619  0.00  0.00    -0.062 A 
ATOM     11  C   UNL     1       4.829 -11.123  -1.929  0.00  0.00    +0.002 A 
ATOM     12  C   UNL     1       4.655 -12.412  -1.461  0.00  0.00    +0.002 A 
ATOM     13  C   UNL     1       3.461 -13.072  -1.682  0.00  0.00    +0.033 A 
ATOM     14  C   UNL     1       2.440 -12.444  -2.371  0.00  0.00    +0.126 A 
ATOM     15  C   UNL     1       2.613 -11.153  -2.835  0.00  0.00    +0.034 A 
BRANCH  14  16
ATOM     16  N   UNL     1       1.162 -13.151  -2.608  0.00  0.00    +0.056 N 
ATOM     17  O   UNL     1       1.010 -14.278  -2.199  0.00  0.00    -0.126 OA
ATOM     18  O   UNL     1       0.270 -12.601  -3.210  0.00  0.00    -0.126 OA
ENDBRANCH  14  16
ENDBRANCH   9  10
ENDBRANCH   5   9
ENDBRANCH   1   2
BRANCH   1  19
ATOM     19  C   UNL     1       2.302  -5.122   1.195  0.00  0.00    +0.055 A 
ATOM     20  C   UNL     1       3.454  -4.387   1.448  0.00  0.00    +0.025 A 
ATOM     21  C   UNL     1       4.098  -4.508   2.664  0.00  0.00    +0.005 A 
ATOM     22  C   UNL     1       3.599  -5.360   3.632  0.00  0.00    +0.046 A 
ATOM     23  C   UNL     1       2.450  -6.096   3.384  0.00  0.00    +0.122 A 
ATOM     24  C   UNL     1       1.797  -5.974   2.167  0.00  0.00    +0.070 A 
BRANCH  23  25
ATOM     25  O   UNL     1       1.960  -6.934   4.337  0.00  0.00    -0.495 OA
ATOM     26  C   UNL     1       2.681  -7.006   5.569  0.00  0.00    +0.277 C 
ENDBRANCH  23  25
ENDBRANCH   1  19
BRANCH   1  27
ATOM     27  S   UNL     1       0.486  -3.841  -0.242  0.00  0.00    +0.075 S 
ATOM     28  O   UNL     1      -0.085  -3.605   1.037  0.00  0.00    -0.150 OA
ATOM     29  O   UNL     1      -0.292  -4.243  -1.361  0.00  0.00    -0.150 OA
BRANCH  27  34
ATOM     30  C   UNL     1       3.297   1.253  -1.840  0.00  0.00    +0.044 C 
ATOM     31  C   UNL     1       2.595  -0.019  -1.441  0.00  0.00    -0.050 A 
ATOM     32  C   UNL     1       2.175  -0.910  -2.411  0.00  0.00    +0.005 A 
ATOM     33  C   UNL     1       1.531  -2.077  -2.045  0.00  0.00    +0.029 A 
ATOM     34  C   UNL     1       1.308  -2.354  -0.709  0.00  0.00    +0.109 A 
ATOM     35  C   UNL     1       1.729  -1.463   0.261  0.00  0.00    +0.029 A 
ATOM     36  C   UNL     1       2.377  -0.298  -0.105  0.00  0.00    +0.005 A 
ENDBRANCH  27  34
ENDBRANCH   1  27
TORSDOF 8
