REMARK  Name = ZINC51001178
REMARK  6 active torsions:
REMARK  status: ('A' for Active; 'I' for Inactive)
REMARK    1  A    between atoms: C_1  and  C_2
REMARK    2  A    between atoms: C_2  and  C_3
REMARK    3  A    between atoms: C_2  and  C_4
REMARK    4  A    between atoms: C_2  and  C_5
REMARK    5  A    between atoms: C_7  and  C_12
REMARK    6  A    between atoms: N_9  and  C_10
REMARK                            x       y       z     vdW  Elec       q    Type
REMARK                         _______ _______ _______ _____ _____    ______ ____
ROOT
ATOM      1  C   UNL     1       0.613  -0.538  -1.271  0.00  0.00    +0.082 C 
ATOM      2  N   UNL     1      -0.056  -1.195  -2.151  0.00  0.00    -0.363 N 
ATOM      3  C   UNL     1       0.822  -1.437  -3.307  0.00  0.00    +0.174 C 
ATOM      4  C   UNL     1       2.132  -0.785  -2.911  0.00  0.00    +0.100 C 
ATOM      5  N   UNL     1       1.894  -0.263  -1.657  0.00  0.00    -0.281 N 
ATOM      6  C   UNL     1       2.873   0.475  -0.855  0.00  0.00    +0.138 C 
ATOM      7  N   UNL     1       3.226  -0.727  -3.597  0.00  0.00    -0.388 N 
ATOM      8  H   UNL     1       3.269  -1.133  -4.477  0.00  0.00    +0.157 HD
ATOM      9  H   UNL     1      -0.979  -1.482  -2.067  0.00  0.00    +0.162 HD
ATOM     10  H   UNL     1       4.004  -0.277  -3.232  0.00  0.00    +0.157 HD
ENDROOT
BRANCH   3  11
ATOM     11  C   UNL     1       1.012  -2.916  -3.526  0.00  0.00    +0.000 A 
ATOM     12  C   UNL     1       0.728  -3.808  -2.508  0.00  0.00    +0.009 A 
ATOM     13  C   UNL     1       0.902  -5.164  -2.708  0.00  0.00    +0.020 A 
ATOM     14  C   UNL     1       1.360  -5.630  -3.928  0.00  0.00    +0.042 A 
ATOM     15  C   UNL     1       1.644  -4.739  -4.947  0.00  0.00    +0.040 A 
ATOM     16  C   UNL     1       1.465  -3.381  -4.747  0.00  0.00    +0.048 A 
ATOM     17 CL   UNL     1       1.815  -2.262  -6.027  0.00  0.00    -0.083 Cl
ATOM     18 CL   UNL     1       1.580  -7.334  -4.179  0.00  0.00    -0.083 Cl
ENDBRANCH   3  11
BRANCH   1  20
ATOM     19  C   UNL     1      -0.092   1.416   0.084  0.00  0.00    +0.018 C 
ATOM     20  C   UNL     1       0.038  -0.108   0.054  0.00  0.00    +0.016 C 
ATOM     21  C   UNL     1       0.964  -0.563   1.184  0.00  0.00    +0.018 C 
ATOM     22  C   UNL     1      -1.343  -0.742   0.241  0.00  0.00    +0.018 C 
ENDBRANCH   1  20
TORSDOF 2
