REMARK  Name = ZINC20069073
REMARK  7 active torsions:
REMARK  status: ('A' for Active; 'I' for Inactive)
REMARK    1  A    between atoms: C_1  and  O_2
REMARK    2  A    between atoms: O_2  and  C_3
REMARK    3  A    between atoms: C_6  and  C_9
REMARK    4  A    between atoms: C_9  and  N_10
REMARK    5  A    between atoms: C_11  and  C_13
REMARK    6  A    between atoms: C_15  and  C_30
REMARK    7  A    between atoms: C_19  and  C_24
REMARK                            x       y       z     vdW  Elec       q    Type
REMARK                         _______ _______ _______ _____ _____    ______ ____
ROOT
ATOM      1  C   UNL     1       0.260   4.197   0.507  0.00  0.00    +0.166 C 
ATOM      2  C   UNL     1      -0.846   3.547  -0.335  0.00  0.00    +0.140 C 
ATOM      3  N   UNL     1      -1.102   2.181   0.124  0.00  0.00    -0.272 N 
ATOM      4  N   UNL     1      -0.016   1.369   0.051  0.00  0.00    -0.221 N 
ATOM      5  C   UNL     1       0.002  -0.004   0.002  0.00  0.00    +0.182 A 
ATOM      6  N   UNL     1       1.263  -0.372  -0.042  0.00  0.00    -0.127 NA
ATOM      7  N   UNL     1       2.026   0.666  -0.028  0.00  0.00    -0.121 NA
ATOM      8  C   UNL     1       1.296   1.748   0.022  0.00  0.00    +0.210 A 
ATOM      9  S   UNL     1       1.840   3.428   0.042  0.00  0.00    -0.069 S 
ATOM     10  H   UNL     1      -2.103   1.900   0.482  0.00  0.00    +0.167 HD
ENDROOT
BRANCH   2  11
ATOM     11  C   UNL     1      -2.111   4.357  -0.207  0.00  0.00    -0.024 A 
ATOM     12  C   UNL     1      -2.919   4.204   0.904  0.00  0.00    +0.008 A 
ATOM     13  C   UNL     1      -4.076   4.949   1.026  0.00  0.00    +0.038 A 
ATOM     14  C   UNL     1      -4.432   5.842   0.028  0.00  0.00    +0.123 A 
ATOM     15  C   UNL     1      -3.624   5.990  -1.087  0.00  0.00    +0.038 A 
ATOM     16  C   UNL     1      -2.464   5.247  -1.203  0.00  0.00    +0.008 A 
ATOM     17  F   UNL     1      -5.566   6.567   0.143  0.00  0.00    -0.205 F 
ENDBRANCH   2  11
BRANCH   5  18
ATOM     18  C   UNL     1      -1.175  -0.899  -0.001  0.00  0.00    +0.021 A 
ATOM     19  C   UNL     1      -2.417  -0.424   0.421  0.00  0.00    +0.011 A 
ATOM     20  C   UNL     1      -3.513  -1.263   0.412  0.00  0.00    +0.001 A 
ATOM     21  C   UNL     1      -3.379  -2.575  -0.006  0.00  0.00    +0.000 A 
ATOM     22  C   UNL     1      -2.149  -3.054  -0.421  0.00  0.00    +0.001 A 
ATOM     23  C   UNL     1      -1.047  -2.224  -0.421  0.00  0.00    +0.011 A 
ENDBRANCH   5  18
BRANCH   1  25
ATOM     24  N   UNL     1       0.743   6.528   1.179  0.00  0.00    -0.310 N 
ATOM     25  C   UNL     1       0.311   5.677   0.227  0.00  0.00    +0.229 C 
ATOM     26  O   UNL     1      -0.036   6.102  -0.854  0.00  0.00    -0.275 OA
ATOM     27  H   UNL     1       1.058   6.143   2.160  0.00  0.00    +0.149 HD
BRANCH  24  28
ATOM     28  C   UNL     1       0.793   7.967   0.907  0.00  0.00    +0.139 C 
BRANCH  28  32
ATOM     29  C   UNL     1       2.254  10.020   4.358  0.00  0.00    +0.120 A 
ATOM     30  C   UNL     1       3.140   9.570   3.390  0.00  0.00    +0.046 A 
ATOM     31  C   UNL     1       2.665   8.907   2.276  0.00  0.00    +0.009 A 
ATOM     32  C   UNL     1       1.308   8.691   2.124  0.00  0.00    -0.030 A 
ATOM     33  C   UNL     1       0.422   9.143   3.084  0.00  0.00    +0.009 A 
ATOM     34  C   UNL     1       0.892   9.802   4.204  0.00  0.00    +0.046 A 
BRANCH  29  36
ATOM     35  C   UNL     1       1.748  11.107   6.411  0.00  0.00    +0.277 C 
ATOM     36  O   UNL     1       2.718  10.672   5.456  0.00  0.00    -0.495 OA
ENDBRANCH  29  36
ENDBRANCH  28  32
ENDBRANCH  24  28
ENDBRANCH   1  25
TORSDOF 6
