REMARK  Name = ZINC39696210
REMARK  7 active torsions:
REMARK  status: ('A' for Active; 'I' for Inactive)
REMARK    1  A    between atoms: C_1  and  C_2
REMARK    2  A    between atoms: C_2  and  C_3
REMARK    3  A    between atoms: C_6  and  C_9
REMARK    4  A    between atoms: C_9  and  C_11
REMARK    5  A    between atoms: C_9  and  N_12
REMARK    6  A    between atoms: C_13  and  C_15
REMARK    7  A    between atoms: C_26  and  C_28
REMARK                            x       y       z     vdW  Elec       q    Type
REMARK                         _______ _______ _______ _____ _____    ______ ____
ROOT
ATOM      1  C   UNL     1       5.157  -4.806  -4.894  0.00  0.00    +0.100 C 
ATOM      2  C   UNL     1       6.528  -4.125  -4.686  0.00  0.00    +0.121 C 
ATOM      3  N   UNL     1       7.512  -5.092  -5.225  0.00  0.00    -0.297 N 
ATOM      4  C   UNL     1       6.863  -5.641  -6.440  0.00  0.00    +0.115 C 
ATOM      5  C   UNL     1       5.381  -5.800  -6.046  0.00  0.00    -0.004 C 
ATOM      6  C   UNL     1       5.110  -7.226  -5.575  0.00  0.00    -0.010 C 
ATOM      7  C   UNL     1       5.284  -8.189  -6.752  0.00  0.00    -0.082 C 
ATOM      8  N   UNL     1       4.355  -7.823  -7.828  0.00  0.00    +0.379 N 
ATOM      9  C   UNL     1       4.681  -6.486  -8.339  0.00  0.00    -0.082 C 
ATOM     10  C   UNL     1       4.482  -5.451  -7.228  0.00  0.00    -0.010 C 
ATOM     11  C   UNL     1       8.725  -5.402  -4.725  0.00  0.00    +0.260 C 
ATOM     12  O   UNL     1       9.421  -6.221  -5.287  0.00  0.00    -0.271 OA
ATOM     13  H   UNL     1       4.428  -8.495  -8.577  0.00  0.00    -0.086 HD
ATOM     14  H   UNL     1       3.411  -7.824  -7.470  0.00  0.00    -0.086 HD
ENDROOT
BRANCH  11  15
ATOM     15  C   UNL     1       9.215  -4.732  -3.468  0.00  0.00    +0.296 C 
ATOM     16  C   UNL     1       9.419  -3.233  -3.727  0.00  0.00    +0.283 C 
ATOM     17  O   UNL     1       9.897  -2.630  -2.519  0.00  0.00    -0.484 OA
ATOM     18  C   UNL     1      10.905  -3.276  -1.871  0.00  0.00    +0.162 A 
ATOM     19  C   UNL     1      11.653  -2.594  -0.924  0.00  0.00    +0.049 A 
ATOM     20  C   UNL     1      12.677  -3.237  -0.255  0.00  0.00    +0.004 A 
ATOM     21  C   UNL     1      12.958  -4.563  -0.528  0.00  0.00    +0.004 A 
ATOM     22  C   UNL     1      12.217  -5.249  -1.472  0.00  0.00    +0.049 A 
ATOM     23  C   UNL     1      11.189  -4.608  -2.147  0.00  0.00    +0.163 A 
ATOM     24  O   UNL     1      10.473  -5.295  -3.079  0.00  0.00    -0.473 OA
ENDBRANCH  11  15
BRANCH   1  26
ATOM     25  N   UNL     1       2.822  -3.991  -4.960  0.00  0.00    -0.308 N 
ATOM     26  C   UNL     1       4.116  -3.785  -5.277  0.00  0.00    +0.219 C 
ATOM     27  O   UNL     1       4.443  -2.779  -5.869  0.00  0.00    -0.275 OA
ATOM     28  H   UNL     1       2.561  -4.796  -4.486  0.00  0.00    +0.149 HD
BRANCH  25  29
ATOM     29  C   UNL     1       1.811  -2.999  -5.332  0.00  0.00    +0.100 C 
ATOM     30  C   UNL     1       1.747  -1.909  -4.260  0.00  0.00    +0.033 C 
BRANCH  29  34
ATOM     31  C   UNL     1      -1.999  -4.904  -5.655  0.00  0.00    -0.048 A 
ATOM     32  C   UNL     1      -1.632  -3.933  -6.569  0.00  0.00    +0.004 A 
ATOM     33  C   UNL     1      -0.399  -3.317  -6.464  0.00  0.00    +0.006 A 
ATOM     34  C   UNL     1       0.466  -3.670  -5.446  0.00  0.00    -0.027 A 
ATOM     35  C   UNL     1       0.098  -4.640  -4.531  0.00  0.00    +0.006 A 
ATOM     36  C   UNL     1      -1.136  -5.253  -4.634  0.00  0.00    +0.004 A 
BRANCH  31  38
ATOM     37  C   UNL     1      -4.379  -4.784  -4.969  0.00  0.00    +0.009 C 
ATOM     38  C   UNL     1      -3.343  -5.576  -5.770  0.00  0.00    +0.032 C 
ENDBRANCH  31  38
ENDBRANCH  29  34
ENDBRANCH  25  29
ENDBRANCH   1  26
TORSDOF 5
