REMARK  Name = ZINC37361654
REMARK  6 active torsions:
REMARK  status: ('A' for Active; 'I' for Inactive)
REMARK    1  A    between atoms: C_5  and  C_7
REMARK    2  A    between atoms: C_7  and  C_8
REMARK    3  A    between atoms: C_8  and  N_9
REMARK    4  A    between atoms: C_12  and  C_27
REMARK    5  A    between atoms: C_14  and  N_26
REMARK    6  A    between atoms: N_15  and  C_19
REMARK                            x       y       z     vdW  Elec       q    Type
REMARK                         _______ _______ _______ _____ _____    ______ ____
ROOT
ATOM      1  N   UNL     1       2.839  -4.085  -0.843  0.00  0.00    -0.313 N 
ATOM      2  C   UNL     1       3.237  -4.770  -1.978  0.00  0.00    +0.218 A 
ATOM      3  N   UNL     1       3.272  -6.098  -1.931  0.00  0.00    -0.214 NA
ATOM      4  C   UNL     1       3.642  -6.832  -2.973  0.00  0.00    +0.089 A 
ATOM      5  C   UNL     1       4.008  -6.166  -4.164  0.00  0.00    +0.086 A 
ATOM      6  C   UNL     1       4.437  -6.551  -5.428  0.00  0.00    +0.131 A 
ATOM      7  N   UNL     1       4.632  -5.430  -6.150  0.00  0.00    -0.216 N 
ATOM      8  N   UNL     1       4.334  -4.305  -5.371  0.00  0.00    -0.144 NA
ATOM      9  C   UNL     1       3.955  -4.692  -4.173  0.00  0.00    +0.189 A 
ATOM     10  N   UNL     1       3.557  -4.070  -3.047  0.00  0.00    -0.193 NA
ATOM     11  H   UNL     1       2.599  -4.575  -0.041  0.00  0.00    +0.149 HD
ENDROOT
BRANCH   4  12
ATOM     12  C   UNL     1       3.671  -8.309  -2.889  0.00  0.00    +0.003 A 
ATOM     13  C   UNL     1       4.776  -9.016  -3.366  0.00  0.00    +0.013 A 
ATOM     14  C   UNL     1       4.798 -10.392  -3.286  0.00  0.00    +0.040 A 
ATOM     15  C   UNL     1       3.726 -11.074  -2.733  0.00  0.00    +0.142 A 
ATOM     16  C   UNL     1       2.625 -10.377  -2.258  0.00  0.00    +0.077 A 
ATOM     17  C   UNL     1       2.595  -8.999  -2.329  0.00  0.00    +0.033 A 
ATOM     18 CL   UNL     1       1.286 -11.239  -1.567  0.00  0.00    -0.081 Cl
ATOM     19  F   UNL     1       3.753 -12.423  -2.657  0.00  0.00    -0.204 F 
ENDBRANCH   4  12
BRANCH   7  20
ATOM     20  C   UNL     1       5.067  -5.395  -7.480  0.00  0.00    +0.068 A 
ATOM     21  C   UNL     1       5.975  -6.340  -7.940  0.00  0.00    +0.029 A 
ATOM     22  C   UNL     1       6.403  -6.303  -9.252  0.00  0.00    +0.022 A 
ATOM     23  C   UNL     1       5.928  -5.325 -10.109  0.00  0.00    +0.041 A 
ATOM     24  C   UNL     1       5.023  -4.382  -9.653  0.00  0.00    +0.022 A 
ATOM     25  C   UNL     1       4.588  -4.418  -8.343  0.00  0.00    +0.029 A 
ATOM     26 CL   UNL     1       6.468  -5.282 -11.758  0.00  0.00    -0.084 Cl
ENDBRANCH   7  20
BRANCH   6  27
ATOM     27  N   UNL     1       4.630  -7.848  -5.866  0.00  0.00    -0.342 N 
ATOM     28  H   UNL     1       4.320  -8.593  -5.327  0.00  0.00    +0.144 HD
ATOM     29  H   UNL     1       5.076  -8.013  -6.711  0.00  0.00    +0.144 HD
ENDBRANCH   6  27
BRANCH   1  30
ATOM     30  C   UNL     1       2.781  -2.622  -0.853  0.00  0.00    +0.110 C 
BRANCH  30  31
ATOM     31  C   UNL     1       2.315  -2.120   0.515  0.00  0.00    +0.074 C 
BRANCH  31  36
ATOM     32  C   UNL     1       1.035   1.410   0.837  0.00  0.00    +0.003 A 
ATOM     33  C   UNL     1       2.180   2.104   0.475  0.00  0.00    +0.020 A 
ATOM     34  C   UNL     1       3.319   1.396   0.142  0.00  0.00    +0.111 A 
ATOM     35  N   UNL     1       3.325   0.078   0.166  0.00  0.00    -0.260 NA
ATOM     36  C   UNL     1       2.255  -0.615   0.505  0.00  0.00    +0.043 A 
ATOM     37  C   UNL     1       1.079   0.025   0.850  0.00  0.00    +0.023 A 
ENDBRANCH  31  36
ENDBRANCH  30  31
ENDBRANCH   1  30
TORSDOF 6
