REMARK  Name = ZINC59302843
REMARK  7 active torsions:
REMARK  status: ('A' for Active; 'I' for Inactive)
REMARK    1  A    between atoms: C_4  and  N_7
REMARK    2  A    between atoms: C_8  and  N_31
REMARK    3  A    between atoms: C_10  and  C_29
REMARK    4  A    between atoms: C_12  and  C_14
REMARK    5  A    between atoms: C_14  and  C_27
REMARK    6  A    between atoms: C_15  and  C_16
REMARK    7  A    between atoms: C_19  and  N_21
REMARK                            x       y       z     vdW  Elec       q    Type
REMARK                         _______ _______ _______ _____ _____    ______ ____
ROOT
ATOM      1  N   UNL     1       3.618  -0.647  -0.037  0.00  0.00    -0.206 N 
ATOM      2  C   UNL     1       3.783  -2.109  -0.053  0.00  0.00    +0.185 C 
ATOM      3  C   UNL     1       5.312  -2.303  -0.067  0.00  0.00    +0.179 C 
ATOM      4  C   UNL     1       5.858  -0.893  -0.058  0.00  0.00    +0.097 C 
ATOM      5  N   UNL     1       4.878  -0.052  -0.048  0.00  0.00    -0.180 NA
ENDROOT
BRANCH   1   9
ATOM      6  C   UNL     1      -0.017   1.379   0.010  0.00  0.00    +0.000 A 
ATOM      7  C   UNL     1       1.169   2.090   0.002  0.00  0.00    +0.002 A 
ATOM      8  C   UNL     1       2.377   1.422  -0.013  0.00  0.00    +0.025 A 
ATOM      9  C   UNL     1       2.400   0.032  -0.021  0.00  0.00    +0.053 A 
ATOM     10  C   UNL     1       1.206  -0.680  -0.013  0.00  0.00    +0.025 A 
ATOM     11  C   UNL     1       0.002  -0.004   0.002  0.00  0.00    +0.002 A 
ENDBRANCH   1   9
BRANCH   2  12
ATOM     12  N   UNL     1       3.175  -2.685  -1.260  0.00  0.00    -0.310 NA
ATOM     13  H   UNL     1       2.183  -2.500  -1.289  0.00  0.00    +0.120 HD
ATOM     14  H   UNL     1       3.631  -2.343  -2.093  0.00  0.00    +0.120 HD
ENDBRANCH   2  12
BRANCH   4  15
ATOM     15  C   UNL     1       7.282  -0.535  -0.065  0.00  0.00    +0.079 C 
ATOM     16  C   UNL     1       8.247  -1.531  -0.081  0.00  0.00    +0.067 C 
BRANCH  16  17
ATOM     17  C   UNL     1       9.609  -1.188  -0.088  0.00  0.00    +0.133 A 
ATOM     18  C   UNL     1      10.673  -2.077  -0.110  0.00  0.00    +0.066 A 
ATOM     19  C   UNL     1      11.839  -1.306  -0.109  0.00  0.00    +0.079 A 
ATOM     20  C   UNL     1      11.456   0.005  -0.087  0.00  0.00    +0.203 A 
ATOM     21  O   UNL     1      10.115   0.066  -0.080  0.00  0.00    -0.441 OA
ATOM     22 BR   UNL     1      13.614  -1.956  -0.133  0.00  0.00    -0.045 Br
BRANCH  20  23
ATOM     23  N   UNL     1      12.310   1.091  -0.078  0.00  0.00    -0.301 N 
ATOM     24  C   UNL     1      13.779   1.026  -0.098  0.00  0.00    +0.108 C 
ATOM     25  C   UNL     1      14.302   2.478  -0.052  0.00  0.00    +0.020 C 
ATOM     26  C   UNL     1      13.109   3.258   0.561  0.00  0.00    +0.020 C 
ATOM     27  C   UNL     1      11.899   2.506  -0.054  0.00  0.00    +0.108 C 
ENDBRANCH  20  23
ENDBRANCH  16  17
BRANCH  15  28
ATOM     28  C   UNL     1       7.675   0.842  -0.054  0.00  0.00    +0.101 C 
ATOM     29  N   UNL     1       7.986   1.935  -0.046  0.00  0.00    -0.191 NA
ENDBRANCH  15  28
ENDBRANCH   4  15
BRANCH   3  30
ATOM     30  C   UNL     1       5.750  -3.037   1.131  0.00  0.00    +0.076 C 
ATOM     31  N   UNL     1       6.089  -3.604   2.056  0.00  0.00    -0.196 NA
ENDBRANCH   3  30
TORSDOF 7
