REMARK  Name = ZINC12810280
REMARK  5 active torsions:
REMARK  status: ('A' for Active; 'I' for Inactive)
REMARK    1  A    between atoms: C_1  and  C_2
REMARK    2  A    between atoms: C_2  and  C_3
REMARK    3  A    between atoms: C_3  and  N_4
REMARK    4  A    between atoms: C_5  and  C_7
REMARK    5  A    between atoms: N_15  and  C_16
REMARK                            x       y       z     vdW  Elec       q    Type
REMARK                         _______ _______ _______ _____ _____    ______ ____
ROOT
ATOM      1  C   UNL     1      -2.749   7.954  -1.975  0.00  0.00    +0.163 C 
ATOM      2  C   UNL     1      -2.499   9.419  -1.561  0.00  0.00    +0.033 C 
ATOM      3  C   UNL     1      -1.266   9.311  -0.625  0.00  0.00    +0.021 C 
ATOM      4  C   UNL     1      -1.538   7.961   0.089  0.00  0.00    +0.110 C 
ATOM      5  N   UNL     1      -2.130   7.100  -0.950  0.00  0.00    -0.274 N 
ATOM      6  C   UNL     1      -2.112   5.752  -0.958  0.00  0.00    +0.303 C 
ATOM      7  O   UNL     1      -2.639   5.142  -1.868  0.00  0.00    -0.253 OA
ATOM      8  N   UNL     1      -1.510   5.081   0.044  0.00  0.00    -0.294 N 
ATOM      9  H   UNL     1      -1.089   5.567   0.770  0.00  0.00    +0.151 HD
ENDROOT
BRANCH   8  10
ATOM     10  C   UNL     1      -1.490   3.616   0.036  0.00  0.00    +0.037 C 
ATOM     11  C   UNL     1      -0.773   3.123  -1.223  0.00  0.00    +0.029 C 
ATOM     12  C   UNL     1      -0.753   1.593  -1.232  0.00  0.00    -0.008 C 
ATOM     13  C   UNL     1      -0.013   1.086   0.008  0.00  0.00    +0.007 C 
ATOM     14  C   UNL     1      -0.729   1.579   1.267  0.00  0.00    -0.008 C 
ATOM     15  C   UNL     1      -0.750   3.109   1.275  0.00  0.00    +0.029 C 
ATOM     16  C   UNL     1      -2.164   1.050   1.278  0.00  0.00    +0.007 C 
ATOM     17  C   UNL     1      -2.904   1.556   0.038  0.00  0.00    -0.008 C 
ATOM     18  C   UNL     1      -2.188   1.063  -1.221  0.00  0.00    +0.007 C 
ATOM     19  C   UNL     1      -2.925   3.086   0.047  0.00  0.00    +0.029 C 
ENDBRANCH   8  10
BRANCH   1  21
ATOM     20  N   UNL     1      -2.534   8.361  -4.405  0.00  0.00    -0.314 N 
ATOM     21  C   UNL     1      -2.117   7.685  -3.316  0.00  0.00    +0.234 C 
ATOM     22  O   UNL     1      -1.234   6.860  -3.416  0.00  0.00    -0.274 OA
ATOM     23  H   UNL     1      -3.241   9.021  -4.325  0.00  0.00    +0.149 HD
BRANCH  20  24
ATOM     24  C   UNL     1      -1.920   8.100  -5.709  0.00  0.00    +0.104 C 
BRANCH  24  26
ATOM     25  C   UNL     1      -1.929   8.720  -8.129  0.00  0.00    +0.005 C 
ATOM     26  C   UNL     1      -2.570   8.993  -6.767  0.00  0.00    +0.015 C 
ENDBRANCH  24  26
ENDBRANCH  20  24
ENDBRANCH   1  21
TORSDOF 4
