REMARK  Name = ZINC06128831
REMARK  5 active torsions:
REMARK  status: ('A' for Active; 'I' for Inactive)
REMARK    1  A    between atoms: C_1  and  C_2
REMARK    2  A    between atoms: C_2  and  C_4
REMARK    3  A    between atoms: C_2  and  O_15
REMARK    4  A    between atoms: N_6  and  C_7
REMARK    5  A    between atoms: O_15  and  C_16
REMARK                            x       y       z     vdW  Elec       q    Type
REMARK                         _______ _______ _______ _____ _____    ______ ____
ROOT
ATOM      1  C   UNL     1       5.324   1.100  -1.344  0.00  0.00    +0.062 C 
ATOM      2  C   UNL     1       4.766   1.358   0.057  0.00  0.00    +0.256 C 
ENDROOT
BRANCH   2   3
ATOM      3  C   UNL     1       5.780   2.123   0.868  0.00  0.00    +0.258 C 
ATOM      4  O   UNL     1       5.500   3.214   1.317  0.00  0.00    -0.271 OA
ATOM      5  N   UNL     1       6.999   1.593   1.095  0.00  0.00    -0.281 N 
ATOM      6  H   UNL     1       7.245   0.750   0.685  0.00  0.00    +0.155 HD
BRANCH   5   7
ATOM      7  C   UNL     1       7.908   2.261   1.925  0.00  0.00    +0.052 A 
ATOM      8  C   UNL     1       7.946   3.649   1.941  0.00  0.00    +0.026 A 
ATOM      9  C   UNL     1       8.844   4.305   2.759  0.00  0.00    +0.022 A 
ATOM     10  C   UNL     1       9.707   3.581   3.563  0.00  0.00    +0.042 A 
ATOM     11  C   UNL     1       9.673   2.198   3.549  0.00  0.00    +0.041 A 
ATOM     12  C   UNL     1       8.772   1.536   2.737  0.00  0.00    +0.064 A 
ATOM     13 CL   UNL     1       8.724  -0.199   2.725  0.00  0.00    -0.082 Cl
ATOM     14 CL   UNL     1      10.834   4.410   4.591  0.00  0.00    -0.083 Cl
ENDBRANCH   5   7
ENDBRANCH   2   3
BRANCH   2  15
ATOM     15  O   UNL     1       3.562   2.122  -0.043  0.00  0.00    -0.480 OA
BRANCH  15  16
ATOM     16  C   UNL     1       2.392   1.430  -0.072  0.00  0.00    +0.125 A 
ATOM     17  C   UNL     1       1.184   2.109  -0.040  0.00  0.00    +0.049 A 
ATOM     18  C   UNL     1      -0.007   1.407  -0.070  0.00  0.00    +0.053 A 
ATOM     19  C   UNL     1       0.004   0.024  -0.131  0.00  0.00    +0.166 A 
ATOM     20  C   UNL     1       1.216  -0.661  -0.162  0.00  0.00    +0.170 A 
ATOM     21  C   UNL     1       2.408   0.044  -0.133  0.00  0.00    +0.095 A 
ATOM     22  O   UNL     1       0.960  -2.000  -0.226  0.00  0.00    -0.452 OA
ATOM     23  C   UNL     1      -0.413  -2.148   0.188  0.00  0.00    +0.466 C 
ATOM     24  O   UNL     1      -1.013  -0.888  -0.169  0.00  0.00    -0.453 OA
ENDBRANCH  15  16
ENDBRANCH   2  15
TORSDOF 4
