REMARK  Name = ZINC66908543
REMARK  9 active torsions:
REMARK  status: ('A' for Active; 'I' for Inactive)
REMARK    1  A    between atoms: C_1  and  C_2
REMARK    2  A    between atoms: C_2  and  C_4
REMARK    3  A    between atoms: C_2  and  N_13
REMARK    4  A    between atoms: C_4  and  C_5
REMARK    5  A    between atoms: C_5  and  C_6
REMARK    6  A    between atoms: C_9  and  O_12
REMARK    7  A    between atoms: N_16  and  C_17
REMARK    8  A    between atoms: C_17  and  C_18
REMARK    9  A    between atoms: C_18  and  O_28
REMARK                            x       y       z     vdW  Elec       q    Type
REMARK                         _______ _______ _______ _____ _____    ______ ____
ROOT
ATOM      1  N   UNL     1       0.582  -1.000  -1.116  0.00  0.00    -0.297 N 
ATOM      2  C   UNL     1      -0.071  -0.992  -2.294  0.00  0.00    +0.300 C 
ATOM      3  O   UNL     1      -1.272  -0.802  -2.323  0.00  0.00    -0.253 OA
ATOM      4  N   UNL     1       0.606  -1.195  -3.442  0.00  0.00    -0.296 N 
ATOM      5  H   UNL     1       1.540  -1.152  -1.093  0.00  0.00    +0.151 HD
ATOM      6  H   UNL     1       1.564  -1.346  -3.419  0.00  0.00    +0.150 HD
ENDROOT
BRANCH   1   8
ATOM      7  C   UNL     1      -0.291   0.722   0.385  0.00  0.00    +0.028 C 
ATOM      8  C   UNL     1      -0.155  -0.780   0.132  0.00  0.00    +0.072 C 
BRANCH   8   9
ATOM      9  C   UNL     1       0.604  -1.426   1.293  0.00  0.00    +0.026 C 
BRANCH   9  10
ATOM     10  C   UNL     1       0.633  -2.944   1.102  0.00  0.00    +0.037 C 
BRANCH  10  11
ATOM     11  C   UNL     1       1.380  -3.580   2.245  0.00  0.00    -0.047 A 
ATOM     12  C   UNL     1       2.747  -3.770   2.156  0.00  0.00    +0.007 A 
ATOM     13  C   UNL     1       3.434  -4.353   3.203  0.00  0.00    +0.045 A 
ATOM     14  C   UNL     1       2.752  -4.748   4.345  0.00  0.00    +0.117 A 
ATOM     15  C   UNL     1       1.381  -4.557   4.432  0.00  0.00    +0.045 A 
ATOM     16  C   UNL     1       0.699  -3.968   3.384  0.00  0.00    +0.007 A 
BRANCH  14  17
ATOM     17  O   UNL     1       3.426  -5.323   5.375  0.00  0.00    -0.507 OA
ATOM     18  H   UNL     1       3.755  -4.692   6.030  0.00  0.00    +0.292 HD
ENDBRANCH  14  17
ENDBRANCH  10  11
ENDBRANCH   9  10
ENDBRANCH   8   9
ENDBRANCH   1   8
BRANCH   4  19
ATOM     19  C   UNL     1      -0.104  -1.186  -4.723  0.00  0.00    +0.145 C 
BRANCH  19  20
ATOM     20  C   UNL     1       0.863  -1.571  -5.845  0.00  0.00    +0.107 C 
ATOM     21  C   UNL     1       1.465  -2.942  -5.542  0.00  0.00    +0.041 C 
ATOM     22  C   UNL     1       2.256  -3.405  -6.771  0.00  0.00    +0.008 C 
ATOM     23  C   UNL     1       1.265  -3.730  -7.887  0.00  0.00    +0.035 C 
ATOM     24  C   UNL     1       0.307  -2.586  -8.094  0.00  0.00    -0.041 A 
ATOM     25  C   UNL     1       0.119  -1.597  -7.154  0.00  0.00    -0.011 A 
ATOM     26  C   UNL     1      -0.785  -0.573  -7.405  0.00  0.00    +0.007 A 
ATOM     27  C   UNL     1      -1.493  -0.537  -8.588  0.00  0.00    +0.000 A 
ATOM     28  C   UNL     1      -1.302  -1.528  -9.533  0.00  0.00    +0.000 A 
ATOM     29  C   UNL     1      -0.406  -2.547  -9.285  0.00  0.00    +0.004 A 
BRANCH  20  30
ATOM     30  O   UNL     1       1.911  -0.602  -5.917  0.00  0.00    -0.382 OA
ATOM     31  H   UNL     1       1.604   0.296  -6.098  0.00  0.00    +0.211 HD
ENDBRANCH  20  30
ENDBRANCH  19  20
ENDBRANCH   4  19
TORSDOF 8
