REMARK  Name = ZINC03871509
REMARK  8 active torsions:
REMARK  status: ('A' for Active; 'I' for Inactive)
REMARK    1  A    between atoms: C_1  and  C_2
REMARK    2  A    between atoms: C_2  and  O_4
REMARK    3  A    between atoms: O_4  and  C_5
REMARK    4  A    between atoms: C_5  and  C_6
REMARK    5  A    between atoms: C_6  and  C_8
REMARK    6  A    between atoms: C_14  and  C_33
REMARK    7  A    between atoms: C_16  and  O_32
REMARK    8  A    between atoms: C_29  and  C_30
REMARK                            x       y       z     vdW  Elec       q    Type
REMARK                         _______ _______ _______ _____ _____    ______ ____
ROOT
ATOM      1  C   UNL     1      -0.292   9.226  -1.920  0.00  0.00    +0.165 C 
ATOM      2  C   UNL     1      -1.488   9.331  -0.923  0.00  0.00    +0.162 C 
ATOM      3  C   UNL     1      -1.777   7.880  -0.445  0.00  0.00    +0.039 C 
ATOM      4  C   UNL     1      -0.476   7.138  -0.779  0.00  0.00    +0.007 C 
ATOM      5  C   UNL     1      -0.141   7.714  -2.168  0.00  0.00    +0.012 C 
ATOM      6  C   UNL     1       1.212   7.276  -2.655  0.00  0.00    +0.044 C 
ATOM      7  C   UNL     1       1.652   5.952  -2.002  0.00  0.00    +0.154 C 
ATOM      8  C   UNL     1       0.465   5.044  -1.771  0.00  0.00    +0.153 C 
ATOM      9  C   UNL     1      -0.505   5.647  -0.752  0.00  0.00    +0.034 C 
ATOM     10  C   UNL     1      -1.861   4.988  -0.983  0.00  0.00    +0.011 C 
ATOM     11  C   UNL     1      -1.753   3.533  -0.520  0.00  0.00    +0.032 C 
ATOM     12  C   UNL     1      -0.367   2.967  -0.640  0.00  0.00    -0.053 C 
ATOM     13  C   UNL     1      -0.134   1.773  -0.057  0.00  0.00    +0.051 C 
ATOM     14  C   UNL     1       1.232   1.206  -0.167  0.00  0.00    +0.179 C 
ATOM     15  O   UNL     1       1.447   0.007  -0.208  0.00  0.00    -0.288 OA
ATOM     16  C   UNL     1       2.343   2.195  -0.170  0.00  0.00    +0.047 C 
ATOM     17  C   UNL     1       2.098   3.385  -0.757  0.00  0.00    -0.009 C 
ATOM     18  C   UNL     1       0.761   3.619  -1.376  0.00  0.00    +0.044 C 
ATOM     19  C   UNL     1       0.804   2.867  -2.712  0.00  0.00    +0.023 C 
ATOM     20  F   UNL     1      -0.214   4.912  -2.993  0.00  0.00    -0.238 F 
ATOM     21  C   UNL     1      -1.220   7.363  -3.205  0.00  0.00    +0.015 C 
ATOM     22  O   UNL     1      -0.963  10.076   0.195  0.00  0.00    -0.342 OA
ATOM     23  C   UNL     1       0.256  10.674  -0.257  0.00  0.00    +0.172 C 
ATOM     24  O   UNL     1       0.828   9.758  -1.200  0.00  0.00    -0.331 OA
ATOM     25  C   UNL     1      -0.013  12.039  -0.909  0.00  0.00    +0.065 C 
ATOM     26  C   UNL     1       0.153  13.042   0.264  0.00  0.00    +0.005 C 
ATOM     27  C   UNL     1       1.366  12.463   1.034  0.00  0.00    +0.005 C 
ATOM     28  C   UNL     1       1.208  10.930   0.915  0.00  0.00    +0.065 C 
ENDROOT
BRANCH   1  29
ATOM     29  C   UNL     1      -0.560   9.950  -3.215  0.00  0.00    +0.205 C 
ATOM     30  O   UNL     1      -1.697  10.141  -3.576  0.00  0.00    -0.291 OA
BRANCH  29  31
ATOM     31  C   UNL     1       0.590  10.436  -4.059  0.00  0.00    +0.309 C 
BRANCH  31  32
ATOM     32  O   UNL     1       0.078  11.202  -5.180  0.00  0.00    -0.457 OA
BRANCH  32  34
ATOM     33  C   UNL     1       0.522  12.517  -7.222  0.00  0.00    +0.136 C 
ATOM     34  C   UNL     1       0.980  11.710  -6.035  0.00  0.00    +0.304 C 
ATOM     35  O   UNL     1       2.159  11.519  -5.852  0.00  0.00    -0.251 OA
ENDBRANCH  32  34
ENDBRANCH  31  32
ENDBRANCH  29  31
ENDBRANCH   1  29
BRANCH   7  36
ATOM     36  O   UNL     1       2.605   5.316  -2.872  0.00  0.00    -0.389 OA
ATOM     37  H   UNL     1       3.388   5.852  -3.056  0.00  0.00    +0.210 HD
ENDBRANCH   7  36
TORSDOF 5
