REMARK  Name = ZINC22511016
REMARK  8 active torsions:
REMARK  status: ('A' for Active; 'I' for Inactive)
REMARK    1  A    between atoms: C_1  and  C_2
REMARK    2  A    between atoms: N_6  and  C_7
REMARK    3  A    between atoms: C_10  and  C_13
REMARK    4  A    between atoms: C_13  and  N_14
REMARK    5  A    between atoms: C_15  and  C_17
REMARK    6  A    between atoms: N_22  and  S_24
REMARK    7  A    between atoms: S_24  and  C_27
REMARK    8  A    between atoms: C_27  and  C_28
REMARK                            x       y       z     vdW  Elec       q    Type
REMARK                         _______ _______ _______ _____ _____    ______ ____
ROOT
ATOM      1  N   UNL     1      -0.698   1.558   1.213  0.00  0.00    -0.311 N 
ATOM      2  C   UNL     1      -0.222   1.232   2.431  0.00  0.00    +0.218 C 
ATOM      3  O   UNL     1       0.774   0.548   2.529  0.00  0.00    -0.275 OA
ATOM      4  H   UNL     1      -1.602   2.179   1.124  0.00  0.00    +0.149 HD
ENDROOT
BRANCH   2   5
ATOM      5  C   UNL     1      -0.927   1.718   3.671  0.00  0.00    +0.091 C 
ATOM      6  C   UNL     1      -0.945   3.249   3.682  0.00  0.00    +0.015 C 
ATOM      7  C   UNL     1      -1.690   3.743   4.924  0.00  0.00    +0.018 C 
ATOM      8  C   UNL     1      -0.958   3.259   6.180  0.00  0.00    +0.109 C 
ATOM      9  N   UNL     1      -0.809   1.799   6.107  0.00  0.00    -0.180 NA
ATOM     10  C   UNL     1      -0.187   1.211   4.913  0.00  0.00    +0.121 C 
BRANCH   9  11
ATOM     11  S   UNL     1      -1.332   0.834   7.347  0.00  0.00    +0.036 S 
ATOM     12  O   UNL     1      -2.364   1.581   7.976  0.00  0.00    -0.158 OA
ATOM     13  O   UNL     1      -1.612  -0.419   6.739  0.00  0.00    -0.158 OA
BRANCH  11  14
ATOM     14  C   UNL     1       0.096   0.685   8.456  0.00  0.00    +0.223 C 
BRANCH  14  15
ATOM     15  C   UNL     1      -0.270  -0.181   9.633  0.00  0.00    +0.012 A 
ATOM     16  C   UNL     1      -0.798   0.391  10.776  0.00  0.00    +0.047 A 
ATOM     17  C   UNL     1      -1.139  -0.405  11.855  0.00  0.00    +0.020 A 
ATOM     18  C   UNL     1      -0.943  -1.772  11.794  0.00  0.00    +0.003 A 
ATOM     19  C   UNL     1      -0.410  -2.345  10.654  0.00  0.00    +0.020 A 
ATOM     20  C   UNL     1      -0.073  -1.549   9.573  0.00  0.00    +0.047 A 
ATOM     21 CL   UNL     1       0.595  -2.268   8.142  0.00  0.00    -0.083 Cl
ATOM     22 CL   UNL     1      -1.039   2.109  10.855  0.00  0.00    -0.083 Cl
ENDBRANCH  14  15
ENDBRANCH  11  14
ENDBRANCH   9  11
ENDBRANCH   2   5
BRANCH   1  23
ATOM     23  C   UNL     1      -0.013   1.086   0.008  0.00  0.00    +0.139 C 
BRANCH  23  27
ATOM     24  C   UNL     1      -2.079   2.501  -3.455  0.00  0.00    +0.048 A 
ATOM     25  C   UNL     1      -1.063   3.261  -2.892  0.00  0.00    +0.026 A 
ATOM     26  C   UNL     1      -0.397   2.801  -1.773  0.00  0.00    +0.007 A 
ATOM     27  C   UNL     1      -0.742   1.585  -1.213  0.00  0.00    -0.030 A 
ATOM     28  C   UNL     1      -1.750   0.823  -1.774  0.00  0.00    +0.007 A 
ATOM     29  C   UNL     1      -2.423   1.280  -2.890  0.00  0.00    +0.026 A 
BRANCH  24  35
ATOM     30  C   UNL     1      -2.542   0.857  -6.010  0.00  0.00    +0.084 C 
ATOM     31  C   UNL     1      -2.982   2.272  -5.737  0.00  0.00    +0.088 A 
ATOM     32  N   UNL     1      -3.646   3.036  -6.562  0.00  0.00    -0.350 N 
ATOM     33  C   UNL     1      -3.860   4.229  -5.988  0.00  0.00    +0.102 A 
ATOM     34  C   UNL     1      -3.314   4.208  -4.757  0.00  0.00    +0.110 A 
ATOM     35  N   UNL     1      -2.757   2.966  -4.591  0.00  0.00    -0.305 N 
ATOM     36  H   UNL     1      -3.934   2.655  -7.553  0.00  0.00    +0.166 HD
ENDBRANCH  24  35
ENDBRANCH  23  27
ENDBRANCH   1  23
TORSDOF 7
