REMARK  Name = ZINC23223374
REMARK  6 active torsions:
REMARK  status: ('A' for Active; 'I' for Inactive)
REMARK    1  A    between atoms: C_6  and  C_7
REMARK    2  A    between atoms: C_9  and  C_12
REMARK    3  A    between atoms: C_12  and  S_13
REMARK    4  A    between atoms: S_13  and  C_14
REMARK    5  A    between atoms: C_17  and  C_20
REMARK    6  A    between atoms: N_18  and  N_19
REMARK                            x       y       z     vdW  Elec       q    Type
REMARK                         _______ _______ _______ _____ _____    ______ ____
ROOT
ATOM      1  C   UNL     1      -2.096   1.651  -1.100  0.00  0.00    +0.209 A 
ATOM      2  N   UNL     1      -2.372   2.195  -2.264  0.00  0.00    -0.121 NA
ATOM      3  N   UNL     1      -1.295   2.336  -2.951  0.00  0.00    -0.127 NA
ATOM      4  C   UNL     1      -0.265   1.896  -2.267  0.00  0.00    +0.183 A 
ATOM      5  N   UNL     1      -0.747   1.438  -1.062  0.00  0.00    -0.224 N 
ENDROOT
BRANCH   4   6
ATOM      6  C   UNL     1       1.145   1.890  -2.708  0.00  0.00    +0.040 A 
ATOM      7  C   UNL     1       1.923   0.742  -2.554  0.00  0.00    +0.033 A 
ATOM      8  C   UNL     1       3.240   0.743  -2.968  0.00  0.00    +0.042 A 
ATOM      9  C   UNL     1       3.790   1.880  -3.535  0.00  0.00    +0.021 A 
ATOM     10  C   UNL     1       3.025   3.021  -3.692  0.00  0.00    +0.022 A 
ATOM     11  C   UNL     1       1.704   3.032  -3.286  0.00  0.00    +0.052 A 
ATOM     12 CL   UNL     1       0.744   4.464  -3.488  0.00  0.00    -0.083 Cl
ATOM     13 CL   UNL     1       4.210  -0.685  -2.777  0.00  0.00    -0.084 Cl
ENDBRANCH   4   6
BRANCH   5  14
ATOM     14  N   UNL     1      -0.026   0.891  -0.039  0.00  0.00    -0.295 N 
ATOM     15  H   UNL     1       1.063   0.774  -0.135  0.00  0.00    +0.163 HD
ATOM     16  H   UNL     1      -0.536   0.567   0.881  0.00  0.00    +0.163 HD
ENDBRANCH   5  14
BRANCH   1  17
ATOM     17  S   UNL     1      -3.251   1.267   0.174  0.00  0.00    -0.075 S 
BRANCH  17  18
ATOM     18  C   UNL     1      -4.782   1.829  -0.610  0.00  0.00    +0.176 C 
BRANCH  18  21
ATOM     19  C   UNL     1      -7.435   1.794   1.815  0.00  0.00    +0.202 A 
ATOM     20  N   UNL     1      -6.397   2.428   1.225  0.00  0.00    -0.191 NA
ATOM     21  C   UNL     1      -5.941   1.593   0.324  0.00  0.00    +0.238 A 
ATOM     22  O   UNL     1      -6.693   0.490   0.394  0.00  0.00    -0.337 OA
ATOM     23  N   UNL     1      -7.542   0.620   1.250  0.00  0.00    -0.056 NA
BRANCH  19  29
ATOM     24  C   UNL     1      -8.051   3.602   3.418  0.00  0.00    +0.014 A 
ATOM     25  C   UNL     1      -8.850   4.097   4.428  0.00  0.00    +0.039 A 
ATOM     26  C   UNL     1      -9.880   3.325   4.940  0.00  0.00    +0.123 A 
ATOM     27  C   UNL     1     -10.116   2.055   4.438  0.00  0.00    +0.039 A 
ATOM     28  C   UNL     1      -9.325   1.555   3.424  0.00  0.00    +0.014 A 
ATOM     29  C   UNL     1      -8.288   2.328   2.906  0.00  0.00    +0.023 A 
ATOM     30  F   UNL     1     -10.656   3.811   5.933  0.00  0.00    -0.205 F 
ENDBRANCH  19  29
ENDBRANCH  18  21
ENDBRANCH  17  18
ENDBRANCH   1  17
TORSDOF 6
