REMARK  Name = ZINC14720588
REMARK  11 active torsions:
REMARK  status: ('A' for Active; 'I' for Inactive)
REMARK    1  A    between atoms: C_1  and  C_2
REMARK    2  A    between atoms: C_2  and  C_3
REMARK    3  A    between atoms: C_3  and  C_4
REMARK    4  A    between atoms: C_4  and  N_5
REMARK    5  A    between atoms: N_5  and  C_6
REMARK    6  A    between atoms: C_7  and  N_19
REMARK    7  A    between atoms: N_8  and  C_15
REMARK    8  A    between atoms: C_15  and  C_16
REMARK    9  A    between atoms: C_16  and  C_17
REMARK   10  A    between atoms: C_16  and  C_18
REMARK   11  A    between atoms: C_20  and  C_22
REMARK                            x       y       z     vdW  Elec       q    Type
REMARK                         _______ _______ _______ _____ _____    ______ ____
ROOT
ATOM      1  C   UNL     1       0.100  -1.257   0.732  0.00  0.00    +0.140 A 
ATOM      2  C   UNL     1       1.413  -1.383   1.139  0.00  0.00    +0.127 A 
ATOM      3  N   UNL     1       2.417  -0.927   0.317  0.00  0.00    -0.280 N 
ATOM      4  C   UNL     1       2.123  -0.361  -0.867  0.00  0.00    +0.331 A 
ATOM      5  O   UNL     1       3.025   0.040  -1.577  0.00  0.00    -0.246 OA
ATOM      6  N   UNL     1       0.850  -0.235  -1.283  0.00  0.00    -0.273 N 
ATOM      7  H   UNL     1       0.659   0.183  -2.171  0.00  0.00    +0.173 HD
ATOM      8  C   UNL     1      -0.171  -0.665  -0.516  0.00  0.00    +0.277 A 
ATOM      9  O   UNL     1      -1.321  -0.542  -0.900  0.00  0.00    -0.266 OA
ENDROOT
BRANCH   1  10
ATOM     10  N   UNL     1      -0.952  -1.715   1.552  0.00  0.00    -0.260 N 
ATOM     11  C   UNL     1      -1.132  -1.183   2.777  0.00  0.00    +0.251 C 
ATOM     12  O   UNL     1      -1.997  -1.624   3.510  0.00  0.00    -0.270 OA
BRANCH  11  13
ATOM     13  C   UNL     1      -0.279  -0.064   3.230  0.00  0.00    +0.038 A 
ATOM     14  C   UNL     1      -0.070   0.151   4.593  0.00  0.00    +0.013 A 
ATOM     15  C   UNL     1       0.728   1.197   5.009  0.00  0.00    +0.002 A 
ATOM     16  C   UNL     1       1.320   2.032   4.079  0.00  0.00    +0.015 A 
ATOM     17  C   UNL     1       1.118   1.824   2.725  0.00  0.00    +0.019 A 
ATOM     18  C   UNL     1       0.326   0.778   2.296  0.00  0.00    +0.028 A 
ATOM     19 BR   UNL     1       1.933   2.972   1.462  0.00  0.00    -0.050 Br
ENDBRANCH  11  13
BRANCH  10  20
ATOM     20  C   UNL     1      -1.849  -2.769   1.072  0.00  0.00    +0.114 C 
BRANCH  20  21
ATOM     21  C   UNL     1      -1.352  -4.128   1.570  0.00  0.00    +0.019 C 
BRANCH  21  23
ATOM     22  C   UNL     1      -1.792  -6.587   1.568  0.00  0.00    +0.004 C 
ATOM     23  C   UNL     1      -2.289  -5.229   1.069  0.00  0.00    -0.002 C 
ENDBRANCH  21  23
ENDBRANCH  20  21
ENDBRANCH  10  20
ENDBRANCH   1  10
BRANCH   2  24
ATOM     24  N   UNL     1       1.713  -1.956   2.351  0.00  0.00    -0.343 N 
ATOM     25  H   UNL     1       2.599  -1.852   2.731  0.00  0.00    +0.144 HD
ATOM     26  H   UNL     1       1.038  -2.466   2.827  0.00  0.00    +0.144 HD
ENDBRANCH   2  24
BRANCH   3  27
ATOM     27  C   UNL     1       3.815  -1.053   0.737  0.00  0.00    +0.131 C 
BRANCH  27  28
ATOM     28  C   UNL     1       4.374  -2.392   0.253  0.00  0.00    +0.003 C 
ATOM     29  C   UNL     1       4.408  -2.408  -1.277  0.00  0.00    +0.009 C 
ATOM     30  C   UNL     1       5.792  -2.579   0.796  0.00  0.00    +0.009 C 
ENDBRANCH  27  28
ENDBRANCH   3  27
TORSDOF 8
