REMARK  Name = ZINC01213107
REMARK  3 active torsions:
REMARK  status: ('A' for Active; 'I' for Inactive)
REMARK    1  A    between atoms: C_6  and  C_7
REMARK    2  A    between atoms: C_10  and  C_12
REMARK    3  A    between atoms: N_13  and  C_14
REMARK                            x       y       z     vdW  Elec       q    Type
REMARK                         _______ _______ _______ _____ _____    ______ ____
ROOT
ATOM      1  C   UNL     1      -4.821  -1.049   0.036  0.00  0.00    +0.157 C 
ATOM      2  N   UNL     1      -5.336   0.154   0.042  0.00  0.00    -0.252 NA
ENDROOT
BRANCH   2   3
ATOM      3  C   UNL     1      -6.693   0.316   0.052  0.00  0.00    +0.066 A 
ATOM      4  C   UNL     1      -7.497  -0.455  -0.796  0.00  0.00    +0.030 A 
ATOM      5  C   UNL     1      -8.865  -0.292  -0.787  0.00  0.00    +0.030 A 
ATOM      6  C   UNL     1      -9.450   0.637   0.063  0.00  0.00    +0.067 A 
ATOM      7  C   UNL     1      -8.653   1.410   0.913  0.00  0.00    +0.069 A 
ATOM      8  C   UNL     1      -7.279   1.247   0.912  0.00  0.00    +0.055 A 
ATOM      9  N   UNL     1      -9.515   2.237   1.631  0.00  0.00    -0.306 N 
ATOM     10  H   UNL     1      -9.251   2.887   2.300  0.00  0.00    +0.170 HD
ATOM     11  C   UNL     1     -10.776   1.979   1.236  0.00  0.00    +0.325 A 
ATOM     12  O   UNL     1     -11.771   2.530   1.668  0.00  0.00    -0.247 OA
ATOM     13  N   UNL     1     -10.770   1.019   0.292  0.00  0.00    -0.306 N 
ATOM     14  H   UNL     1     -11.551   0.656  -0.153  0.00  0.00    +0.170 HD
ENDBRANCH   2   3
BRANCH   1  18
ATOM     15  C   UNL     1      -1.264  -0.762   0.011  0.00  0.00    +0.136 A 
ATOM     16  C   UNL     1      -1.377  -2.123   0.010  0.00  0.00    +0.050 A 
ATOM     17  C   UNL     1      -2.743  -2.423   0.020  0.00  0.00    +0.051 A 
ATOM     18  C   UNL     1      -3.415  -1.218   0.026  0.00  0.00    +0.147 A 
ATOM     19  O   UNL     1      -2.498  -0.227   0.026  0.00  0.00    -0.454 OA
BRANCH  15  25
ATOM     20  C   UNL     1      -0.017   1.393   0.010  0.00  0.00    +0.013 A 
ATOM     21  C   UNL     1       1.170   2.096   0.002  0.00  0.00    +0.022 A 
ATOM     22  C   UNL     1       2.378   1.421  -0.013  0.00  0.00    +0.059 A 
ATOM     23  C   UNL     1       2.405   0.035  -0.021  0.00  0.00    +0.060 A 
ATOM     24  C   UNL     1       1.224  -0.680  -0.014  0.00  0.00    +0.033 A 
ATOM     25  C   UNL     1       0.002  -0.004   0.002  0.00  0.00    +0.019 A 
ATOM     26 CL   UNL     1       3.925  -0.803  -0.040  0.00  0.00    -0.082 Cl
ATOM     27 CL   UNL     1       3.867   2.314  -0.023  0.00  0.00    -0.082 Cl
ENDBRANCH  15  25
ENDBRANCH   1  18
TORSDOF 3
