REMARK  Name = ZINC63137029
REMARK  13 active torsions:
REMARK  status: ('A' for Active; 'I' for Inactive)
REMARK    1  A    between atoms: C_1  and  O_2
REMARK    2  A    between atoms: O_2  and  C_3
REMARK    3  A    between atoms: C_5  and  C_13
REMARK    4  A    between atoms: C_7  and  O_11
REMARK    5  A    between atoms: C_8  and  O_9
REMARK    6  A    between atoms: O_9  and  C_10
REMARK    7  A    between atoms: O_11  and  C_12
REMARK    8  A    between atoms: N_32  and  C_35
REMARK    9  A    between atoms: C_35  and  C_36
REMARK   10  A    between atoms: C_36  and  C_37
REMARK   11  A    between atoms: C_37  and  C_38
REMARK   12  A    between atoms: C_38  and  C_39
REMARK   13  A    between atoms: C_39  and  O_40
REMARK                            x       y       z     vdW  Elec       q    Type
REMARK                         _______ _______ _______ _____ _____    ______ ____
ROOT
ATOM      1  C   UNL     1       2.462   0.340   4.203  0.00  0.00    +0.134 C 
ATOM      2  C   UNL     1       1.485   0.476   5.374  0.00  0.00    +0.131 C 
ATOM      3  C   UNL     1       2.269   1.077   6.533  0.00  0.00    -0.034 C 
ATOM      4  C   UNL     1       1.614   2.171   6.902  0.00  0.00    -0.001 A 
ATOM      5  C   UNL     1       1.840   3.125   8.000  0.00  0.00    +0.010 A 
ATOM      6  C   UNL     1       0.966   4.162   8.083  0.00  0.00    +0.001 A 
ATOM      7  C   UNL     1      -0.098   4.344   7.193  0.00  0.00    +0.002 A 
ATOM      8  C   UNL     1      -0.384   3.514   6.159  0.00  0.00    +0.026 A 
ATOM      9  C   UNL     1       0.463   2.383   5.972  0.00  0.00    +0.043 A 
ATOM     10  N   UNL     1       0.402   1.415   5.077  0.00  0.00    -0.375 N 
ATOM     11  C   UNL     1       3.572   0.490   7.018  0.00  0.00    +0.065 C 
ATOM     12  C   UNL     1       4.456   0.293   5.772  0.00  0.00    +0.167 C 
ATOM     13  N   UNL     1       3.679  -0.334   4.708  0.00  0.00    -0.279 N 
ATOM     14  C   UNL     1       4.019  -1.506   4.160  0.00  0.00    +0.234 C 
ATOM     15  O   UNL     1       3.296  -1.954   3.295  0.00  0.00    -0.274 OA
ATOM     16  C   UNL     1       5.224  -2.302   4.538  0.00  0.00    +0.203 C 
ATOM     17  N   UNL     1       6.007  -1.654   5.576  0.00  0.00    -0.291 N 
ATOM     18  C   UNL     1       5.671  -0.494   6.137  0.00  0.00    +0.237 C 
ATOM     19  O   UNL     1       6.401  -0.046   6.996  0.00  0.00    -0.274 OA
ATOM     20  H   UNL     1      -0.235   1.334   4.350  0.00  0.00    +0.160 HD
ENDROOT
BRANCH   1  23
ATOM     21  C   UNL     1       0.378  -2.264   2.426  0.00  0.00    +0.165 A 
ATOM     22  C   UNL     1       0.956  -1.502   3.430  0.00  0.00    +0.055 A 
ATOM     23  C   UNL     1       1.837  -0.486   3.109  0.00  0.00    -0.018 A 
ATOM     24  C   UNL     1       2.146  -0.226   1.787  0.00  0.00    +0.055 A 
ATOM     25  C   UNL     1       1.572  -0.984   0.777  0.00  0.00    +0.165 A 
ATOM     26  C   UNL     1       0.691  -2.009   1.096  0.00  0.00    +0.204 A 
BRANCH  21  28
ATOM     27  C   UNL     1      -0.763  -3.468   4.130  0.00  0.00    +0.277 C 
ATOM     28  O   UNL     1      -0.489  -3.263   2.743  0.00  0.00    -0.491 OA
ENDBRANCH  21  28
BRANCH  26  29
ATOM     29  O   UNL     1       0.130  -2.759   0.108  0.00  0.00    -0.488 OA
ATOM     30  C   UNL     1      -1.109  -2.296  -0.434  0.00  0.00    +0.277 C 
ENDBRANCH  26  29
BRANCH  25  31
ATOM     31  O   UNL     1       1.877  -0.727  -0.523  0.00  0.00    -0.491 OA
ATOM     32  C   UNL     1       2.795   0.339  -0.776  0.00  0.00    +0.277 C 
ENDBRANCH  25  31
ENDBRANCH   1  23
BRANCH  17  33
ATOM     33  C   UNL     1       7.233  -2.315   6.033  0.00  0.00    +0.108 C 
BRANCH  33  34
ATOM     34  C   UNL     1       8.414  -1.842   5.184  0.00  0.00    +0.019 C 
BRANCH  34  35
ATOM     35  C   UNL     1       9.694  -2.532   5.661  0.00  0.00    +0.004 C 
BRANCH  35  36
ATOM     36  C   UNL     1      10.875  -2.059   4.812  0.00  0.00    +0.028 C 
BRANCH  36  37
ATOM     37  C   UNL     1      12.155  -2.749   5.289  0.00  0.00    +0.156 C 
BRANCH  37  38
ATOM     38  O   UNL     1      13.258  -2.308   4.496  0.00  0.00    -0.395 OA
ATOM     39  H   UNL     1      14.104  -2.705   4.743  0.00  0.00    +0.209 HD
ENDBRANCH  37  38
ENDBRANCH  36  37
ENDBRANCH  35  36
ENDBRANCH  34  35
ENDBRANCH  33  34
ENDBRANCH  17  33
TORSDOF 10
