REMARK  Name = ZINC39990937
REMARK  1 active torsions:
REMARK  status: ('A' for Active; 'I' for Inactive)
REMARK    1  A    between atoms: C_7  and  C_11
REMARK                            x       y       z     vdW  Elec       q    Type
REMARK                         _______ _______ _______ _____ _____    ______ ____
ROOT
ATOM      1  C   UNL     1       0.666  -3.275  -0.021  0.00  0.00    +0.197 C 
ATOM      2  N   UNL     1      -0.584  -2.936  -0.736  0.00  0.00    -0.297 N 
ATOM      3  C   UNL     1      -1.361  -3.979  -1.211  0.00  0.00    +0.155 C 
ATOM      4  N   UNL     1      -0.726  -5.035  -1.854  0.00  0.00    -0.285 N 
ATOM      5  C   UNL     1       0.477  -5.571  -1.192  0.00  0.00    +0.255 C 
ATOM      6  N   UNL     1       1.263  -4.397  -0.757  0.00  0.00    -0.272 N 
ATOM      7  C   UNL     1       2.568  -4.570  -1.212  0.00  0.00    +0.059 A 
ATOM      8  C   UNL     1       3.728  -3.844  -0.960  0.00  0.00    +0.074 A 
ATOM      9  C   UNL     1       4.920  -4.213  -1.556  0.00  0.00    +0.164 A 
ATOM     10  C   UNL     1       4.965  -5.310  -2.404  0.00  0.00    +0.164 A 
ATOM     11  C   UNL     1       3.818  -6.041  -2.655  0.00  0.00    +0.074 A 
ATOM     12  C   UNL     1       2.617  -5.678  -2.057  0.00  0.00    +0.055 A 
ATOM     13  N   UNL     1       1.333  -6.289  -2.135  0.00  0.00    -0.309 N 
ATOM     14  O   UNL     1       6.148  -5.662  -2.988  0.00  0.00    -0.488 OA
ATOM     15  C   UNL     1       6.658  -4.754  -3.966  0.00  0.00    +0.232 C 
ATOM     16  C   UNL     1       7.448  -3.636  -3.303  0.00  0.00    +0.082 C 
ATOM     17  C   UNL     1       6.577  -2.756  -2.420  0.00  0.00    +0.232 C 
ATOM     18  O   UNL     1       6.060  -3.500  -1.315  0.00  0.00    -0.488 OA
ATOM     19  N   UNL     1      -2.655  -3.971  -1.058  0.00  0.00    -0.375 N 
ATOM     20  H   UNL     1      -0.851  -2.012  -0.868  0.00  0.00    +0.151 HD
ATOM     21  H   UNL     1       1.070  -7.034  -2.699  0.00  0.00    +0.149 HD
ATOM     22  H   UNL     1      -3.086  -3.229  -0.608  0.00  0.00    +0.158 HD
ATOM     23  H   UNL     1      -1.055  -5.398  -2.691  0.00  0.00    +0.152 HD
ATOM     24  H   UNL     1      -3.188  -4.709  -1.396  0.00  0.00    +0.158 HD
ENDROOT
BRANCH   1  31
ATOM     25  C   UNL     1       1.461   0.180  -3.088  0.00  0.00    +0.001 A 
ATOM     26  C   UNL     1       2.439   1.067  -2.660  0.00  0.00    +0.002 A 
ATOM     27  C   UNL     1       3.070   0.889  -1.449  0.00  0.00    +0.026 A 
ATOM     28  C   UNL     1       2.724  -0.191  -0.643  0.00  0.00    +0.047 A 
ATOM     29  C   UNL     1       1.732  -1.088  -1.080  0.00  0.00    +0.006 A 
ATOM     30  C   UNL     1       1.107  -0.888  -2.312  0.00  0.00    +0.010 A 
ATOM     31  C   UNL     1       1.604  -2.095  -0.025  0.00  0.00    +0.016 A 
ATOM     32  C   UNL     1       2.479  -1.768   0.939  0.00  0.00    +0.090 A 
ATOM     33  N   UNL     1       3.157  -0.633   0.587  0.00  0.00    -0.360 N 
ATOM     34  H   UNL     1       3.841  -0.203   1.125  0.00  0.00    +0.165 HD
ENDBRANCH   1  31
TORSDOF 1
