REMARK  Name = ZINC48422286
REMARK  5 active torsions:
REMARK  status: ('A' for Active; 'I' for Inactive)
REMARK    1  A    between atoms: C_1  and  C_2
REMARK    2  A    between atoms: C_3  and  C_24
REMARK    3  A    between atoms: C_5  and  C_9
REMARK    4  A    between atoms: C_12  and  C_15
REMARK    5  A    between atoms: C_15  and  N_16
REMARK                            x       y       z     vdW  Elec       q    Type
REMARK                         _______ _______ _______ _____ _____    ______ ____
ROOT
ATOM      1  C   UNL     1      -0.392  -4.137   0.036  0.00  0.00    +0.019 A 
ATOM      2  C   UNL     1      -0.707  -4.813  -1.142  0.00  0.00    +0.012 A 
ATOM      3  C   UNL     1      -0.910  -6.178  -1.118  0.00  0.00    +0.002 A 
ATOM      4  C   UNL     1      -0.802  -6.875   0.072  0.00  0.00    -0.064 A 
ATOM      5  C   UNL     1      -0.489  -6.210   1.244  0.00  0.00    +0.002 A 
ATOM      6  C   UNL     1      -0.278  -4.846   1.231  0.00  0.00    +0.012 A 
ENDROOT
BRANCH   1  11
ATOM      7  C   UNL     1       0.443   1.472  -0.054  0.00  0.00    +0.051 C 
ATOM      8  C   UNL     1       0.221  -0.019  -0.028  0.00  0.00    +0.046 A 
ATOM      9  C   UNL     1      -0.098  -0.706  -1.186  0.00  0.00    +0.154 A 
ATOM     10  N   UNL     1      -0.286  -2.015  -1.130  0.00  0.00    -0.223 NA
ATOM     11  C   UNL     1      -0.173  -2.671   0.017  0.00  0.00    +0.164 A 
ATOM     12  N   UNL     1       0.131  -2.047   1.147  0.00  0.00    -0.189 NA
ATOM     13  C   UNL     1       0.338  -0.737   1.161  0.00  0.00    +0.277 A 
ATOM     14  O   UNL     1       0.654  -0.104   2.318  0.00  0.00    -0.265 OA
BRANCH   9  15
ATOM     15  C   UNL     1      -0.229   0.028  -2.495  0.00  0.00    +0.435 C 
ATOM     16  F   UNL     1       0.938   0.759  -2.740  0.00  0.00    -0.164 F 
ATOM     17  F   UNL     1      -0.427  -0.895  -3.529  0.00  0.00    -0.164 F 
ATOM     18  F   UNL     1      -1.322   0.899  -2.434  0.00  0.00    -0.164 F 
ENDBRANCH   9  15
ENDBRANCH   1  11
BRANCH   4  19
ATOM     19  C   UNL     1      -1.025  -8.365   0.092  0.00  0.00    -0.043 C 
BRANCH  19  20
ATOM     20  N   UNL     1       0.250  -9.055  -0.146  0.00  0.00    +0.384 N 
ATOM     21  C   UNL     1       0.763  -8.639  -1.441  0.00  0.00    -0.069 C 
ATOM     22  C   UNL     1       2.204  -9.117  -1.638  0.00  0.00    +0.077 C 
ATOM     23  C   UNL     1       2.166 -10.539  -2.163  0.00  0.00    +0.211 C 
ATOM     24  O   UNL     1       2.502 -10.774  -3.305  0.00  0.00    -0.276 OA
ATOM     25  N   UNL     1       1.762 -11.531  -1.365  0.00  0.00    -0.317 N 
ATOM     26  C   UNL     1       1.360 -11.244   0.023  0.00  0.00    +0.085 C 
ATOM     27  C   UNL     1       0.032 -10.485  -0.004  0.00  0.00    -0.059 C 
ATOM     28  H   UNL     1       1.733 -12.441  -1.700  0.00  0.00    +0.149 HD
ATOM     29  H   UNL     1       0.906  -8.761   0.563  0.00  0.00    -0.081 HD
ENDBRANCH  19  20
ENDBRANCH   4  19
TORSDOF 4
