REMARK  Name = ZINC52094349
REMARK  10 active torsions:
REMARK  status: ('A' for Active; 'I' for Inactive)
REMARK    1  A    between atoms: C_1  and  C_2
REMARK    2  A    between atoms: C_2  and  C_4
REMARK    3  A    between atoms: C_2  and  C_21
REMARK    4  A    between atoms: C_4  and  C_5
REMARK    5  A    between atoms: C_5  and  C_7
REMARK    6  A    between atoms: C_5  and  N_20
REMARK    7  A    between atoms: C_21  and  C_22
REMARK    8  A    between atoms: C_22  and  C_23
REMARK    9  A    between atoms: C_22  and  C_24
REMARK   10  A    between atoms: C_22  and  C_25
REMARK                            x       y       z     vdW  Elec       q    Type
REMARK                         _______ _______ _______ _____ _____    ______ ____
ROOT
ATOM      1  C   UNL     1       0.905   0.026  -2.394  0.00  0.00    -0.043 C 
ENDROOT
BRANCH   1   2
ATOM      2  C   UNL     1       1.725  -0.522  -3.533  0.00  0.00    -0.046 A 
ATOM      3  C   UNL     1       1.261  -1.603  -4.256  0.00  0.00    +0.031 A 
ATOM      4  C   UNL     1       2.015  -2.108  -5.305  0.00  0.00    +0.067 A 
ATOM      5  C   UNL     1       3.241  -1.521  -5.625  0.00  0.00    +0.068 A 
ATOM      6  C   UNL     1       3.699  -0.436  -4.894  0.00  0.00    +0.043 A 
ATOM      7  C   UNL     1       2.938   0.064  -3.854  0.00  0.00    +0.022 A 
ATOM      8 BR   UNL     1       3.559   1.549  -2.862  0.00  0.00    -0.050 Br
ATOM      9  N   UNL     1       3.758  -2.234  -6.705  0.00  0.00    -0.306 N 
ATOM     10  H   UNL     1       4.602  -2.058  -7.149  0.00  0.00    +0.170 HD
ATOM     11  C   UNL     1       2.887  -3.209  -7.026  0.00  0.00    +0.325 A 
ATOM     12  O   UNL     1       3.037  -4.014  -7.926  0.00  0.00    -0.247 OA
ATOM     13  N   UNL     1       1.825  -3.159  -6.199  0.00  0.00    -0.306 N 
ATOM     14  H   UNL     1       1.059  -3.754  -6.223  0.00  0.00    +0.170 HD
ENDBRANCH   1   2
BRANCH   1  15
ATOM     15  N   UNL     1      -0.490  -0.409  -2.540  0.00  0.00    +0.383 N 
ATOM     16  H   UNL     1      -0.530  -1.417  -2.529  0.00  0.00    -0.089 HD
ATOM     17  H   UNL     1      -1.039  -0.042  -1.777  0.00  0.00    -0.089 HD
ATOM     18  H   UNL     1      -0.859  -0.068  -3.415  0.00  0.00    -0.089 HD
ENDBRANCH   1  15
BRANCH   1  19
ATOM     19  C   UNL     1       1.465  -0.492  -1.067  0.00  0.00    -0.009 C 
BRANCH  19  21
ATOM     20  C   UNL     1       0.989   1.667   0.098  0.00  0.00    +0.007 C 
ATOM     21  C   UNL     1       0.713   0.162   0.093  0.00  0.00    -0.015 C 
BRANCH  21  22
ATOM     22  C   UNL     1       1.185  -0.447   1.415  0.00  0.00    +0.009 C 
BRANCH  22  23
ATOM     23  C   UNL     1       0.116  -0.231   2.488  0.00  0.00    -0.037 C 
ATOM     24  C   UNL     1      -1.143  -1.019   2.119  0.00  0.00    +0.010 C 
ATOM     25  C   UNL     1       0.644  -0.717   3.839  0.00  0.00    +0.010 C 
ATOM     26  C   UNL     1      -0.223   1.258   2.578  0.00  0.00    +0.010 C 
ENDBRANCH  22  23
ENDBRANCH  21  22
ENDBRANCH  19  21
ENDBRANCH   1  19
TORSDOF 6
