REMARK  Name = ZINC22086656
REMARK  8 active torsions:
REMARK  status: ('A' for Active; 'I' for Inactive)
REMARK    1  A    between atoms: C_1  and  C_2
REMARK    2  A    between atoms: C_5  and  N_8
REMARK    3  A    between atoms: N_8  and  C_9
REMARK    4  A    between atoms: C_10  and  C_12
REMARK    5  A    between atoms: C_12  and  S_13
REMARK    6  A    between atoms: S_13  and  C_14
REMARK    7  A    between atoms: C_17  and  C_20
REMARK    8  A    between atoms: N_18  and  N_19
REMARK                            x       y       z     vdW  Elec       q    Type
REMARK                         _______ _______ _______ _____ _____    ______ ____
ROOT
ATOM      1  C   UNL     1      -5.196   1.033  -1.376  0.00  0.00    +0.209 A 
ATOM      2  N   UNL     1      -4.487   1.154  -2.476  0.00  0.00    -0.121 NA
ATOM      3  N   UNL     1      -5.252   1.077  -3.505  0.00  0.00    -0.127 NA
ATOM      4  C   UNL     1      -6.498   0.913  -3.126  0.00  0.00    +0.183 A 
ATOM      5  N   UNL     1      -6.500   0.879  -1.750  0.00  0.00    -0.224 N 
ENDROOT
BRANCH   4   6
ATOM      6  C   UNL     1      -7.677   0.787  -4.009  0.00  0.00    +0.035 A 
ATOM      7  C   UNL     1      -8.827   1.535  -3.754  0.00  0.00    +0.013 A 
ATOM      8  C   UNL     1      -9.923   1.413  -4.582  0.00  0.00    +0.001 A 
ATOM      9  C   UNL     1      -9.885   0.552  -5.665  0.00  0.00    +0.001 A 
ATOM     10  C   UNL     1      -8.748  -0.192  -5.924  0.00  0.00    +0.016 A 
ATOM     11  C   UNL     1      -7.642  -0.076  -5.106  0.00  0.00    +0.029 A 
ATOM     12 BR   UNL     1      -6.086  -1.089  -5.467  0.00  0.00    -0.050 Br
ENDBRANCH   4   6
BRANCH   5  13
ATOM     13  N   UNL     1      -7.581   0.725  -0.930  0.00  0.00    -0.295 N 
ATOM     14  H   UNL     1      -8.587   0.610  -1.361  0.00  0.00    +0.163 HD
ATOM     15  H   UNL     1      -7.447   0.717   0.162  0.00  0.00    +0.163 HD
ENDBRANCH   5  13
BRANCH   1  16
ATOM     16  S   UNL     1      -4.579   1.071   0.274  0.00  0.00    -0.075 S 
BRANCH  16  17
ATOM     17  C   UNL     1      -2.814   1.299  -0.055  0.00  0.00    +0.173 C 
BRANCH  17  20
ATOM     18  N   UNL     1      -0.726   1.528   1.252  0.00  0.00    -0.301 N 
ATOM     19  C   UNL     1      -0.002   1.649  -0.016  0.00  0.00    +0.132 C 
ATOM     20  C   UNL     1      -2.063   1.361   1.250  0.00  0.00    +0.226 C 
ATOM     21  O   UNL     1      -2.663   1.261   2.300  0.00  0.00    -0.275 OA
BRANCH  18  26
ATOM     22  C   UNL     1       1.869  -2.213   1.630  0.00  0.00    +0.007 C 
ATOM     23  C   UNL     1       1.501  -0.924   2.369  0.00  0.00    -0.014 C 
ATOM     24  C   UNL     1      -0.004  -0.906   2.644  0.00  0.00    +0.005 C 
ATOM     25  C   UNL     1      -0.372   0.382   3.383  0.00  0.00    +0.023 C 
ATOM     26  C   UNL     1       0.003   1.589   2.521  0.00  0.00    +0.076 C 
ATOM     27  C   UNL     1       1.508   1.571   2.245  0.00  0.00    +0.023 C 
ATOM     28  C   UNL     1       1.876   0.282   1.506  0.00  0.00    +0.005 C 
ENDBRANCH  18  26
ENDBRANCH  17  20
ENDBRANCH  16  17
ENDBRANCH   1  16
TORSDOF 6
