REMARK  Name = ZINC23044329
REMARK  11 active torsions:
REMARK  status: ('A' for Active; 'I' for Inactive)
REMARK    1  A    between atoms: C_1  and  C_2
REMARK    2  A    between atoms: C_2  and  C_3
REMARK    3  A    between atoms: C_3  and  N_4
REMARK    4  A    between atoms: C_8  and  S_29
REMARK    5  A    between atoms: C_12  and  S_13
REMARK    6  A    between atoms: S_13  and  C_14
REMARK    7  A    between atoms: C_14  and  C_16
REMARK    8  A    between atoms: C_14  and  C_17
REMARK    9  A    between atoms: N_19  and  C_20
REMARK   10  A    between atoms: C_26  and  C_28
REMARK   11  A    between atoms: S_29  and  N_32
REMARK                            x       y       z     vdW  Elec       q    Type
REMARK                         _______ _______ _______ _____ _____    ______ ____
ROOT
ATOM      1  N   UNL     1      -1.435   3.582   2.481  0.00  0.00    -0.319 N 
ATOM      2  C   UNL     1      -0.849   3.857   3.705  0.00  0.00    +0.070 A 
ATOM      3  C   UNL     1       0.451   3.793   4.184  0.00  0.00    +0.030 A 
ATOM      4  C   UNL     1       0.719   4.145   5.491  0.00  0.00    +0.030 A 
ATOM      5  C   UNL     1      -0.304   4.561   6.331  0.00  0.00    +0.107 A 
ATOM      6  C   UNL     1      -1.601   4.630   5.872  0.00  0.00    +0.058 A 
ATOM      7  C   UNL     1      -1.888   4.278   4.551  0.00  0.00    +0.092 A 
ATOM      8  N   UNL     1      -3.035   4.243   3.823  0.00  0.00    -0.222 NA
ATOM      9  C   UNL     1      -2.772   3.839   2.605  0.00  0.00    +0.171 A 
ENDROOT
BRANCH   5  10
ATOM     10  S   UNL     1       0.058   5.005   7.997  0.00  0.00    +0.056 S 
ATOM     11  O   UNL     1      -1.146   4.838   8.733  0.00  0.00    -0.153 OA
ATOM     12  O   UNL     1       1.262   4.335   8.343  0.00  0.00    -0.153 OA
BRANCH  10  13
ATOM     13  N   UNL     1       0.398   6.626   8.009  0.00  0.00    -0.204 NA
ATOM     14  H   UNL     1       0.631   6.944   9.036  0.00  0.00    +0.144 HD
ATOM     15  H   UNL     1      -0.473   7.186   7.640  0.00  0.00    +0.144 HD
ENDBRANCH  10  13
ENDBRANCH   5  10
BRANCH   1  16
ATOM     16  C   UNL     1      -0.750   3.109   1.275  0.00  0.00    +0.124 C 
BRANCH  16  18
ATOM     17  C   UNL     1      -0.013   1.086   0.008  0.00  0.00    +0.005 C 
ATOM     18  C   UNL     1      -0.729   1.579   1.267  0.00  0.00    +0.018 C 
ENDBRANCH  16  18
ENDBRANCH   1  16
BRANCH   9  19
ATOM     19  S   UNL     1      -3.962   3.651   1.320  0.00  0.00    -0.075 S 
BRANCH  19  20
ATOM     20  C   UNL     1      -5.459   4.161   2.201  0.00  0.00    +0.137 C 
ATOM     21  C   UNL     1      -5.347   5.638   2.584  0.00  0.00    +0.029 C 
BRANCH  20  22
ATOM     22  C   UNL     1      -6.659   3.962   1.311  0.00  0.00    +0.226 C 
ATOM     23  O   UNL     1      -6.515   3.875   0.110  0.00  0.00    -0.275 OA
ATOM     24  N   UNL     1      -7.891   3.881   1.850  0.00  0.00    -0.311 N 
ATOM     25  H   UNL     1      -8.022   3.959   2.939  0.00  0.00    +0.149 HD
BRANCH  24  26
ATOM     26  C   UNL     1      -9.057   3.687   0.985  0.00  0.00    +0.076 C 
ATOM     27  C   UNL     1      -9.535   5.043   0.462  0.00  0.00    +0.022 C 
ATOM     28  C   UNL     1      -9.918   5.939   1.642  0.00  0.00    +0.002 C 
ATOM     29  C   UNL     1     -11.042   5.276   2.441  0.00  0.00    +0.000 C 
ATOM     30  C   UNL     1     -10.565   3.919   2.964  0.00  0.00    +0.005 C 
ATOM     31  C   UNL     1     -10.181   3.024   1.784  0.00  0.00    +0.006 C 
ATOM     32  C   UNL     1      -9.704   1.668   2.307  0.00  0.00    +0.009 C 
ENDBRANCH  24  26
ENDBRANCH  20  22
ENDBRANCH  19  20
ENDBRANCH   9  19
TORSDOF 8
