REMARK  Name = ZINC49147395
REMARK  7 active torsions:
REMARK  status: ('A' for Active; 'I' for Inactive)
REMARK    1  A    between atoms: C_1  and  C_2
REMARK    2  A    between atoms: C_2  and  C_4
REMARK    3  A    between atoms: C_2  and  N_10
REMARK    4  A    between atoms: N_10  and  S_11
REMARK    5  A    between atoms: S_11  and  C_14
REMARK    6  A    between atoms: C_17  and  N_20
REMARK    7  A    between atoms: N_20  and  N_21
REMARK                            x       y       z     vdW  Elec       q    Type
REMARK                         _______ _______ _______ _____ _____    ______ ____
ROOT
ATOM      1  S   UNL     1       2.322  -0.861   1.097  0.00  0.00    +0.059 S 
ATOM      2  O   UNL     1       2.719  -1.271   2.398  0.00  0.00    -0.153 OA
ATOM      3  O   UNL     1       2.483  -1.690  -0.045  0.00  0.00    -0.153 OA
ENDROOT
BRANCH   1   4
ATOM      4  C   UNL     1       3.183   0.638   0.757  0.00  0.00    +0.105 A 
ATOM      5  C   UNL     1       3.402   1.026  -0.553  0.00  0.00    +0.030 A 
ATOM      6  C   UNL     1       4.077   2.200  -0.823  0.00  0.00    +0.026 A 
ATOM      7  C   UNL     1       4.537   2.991   0.222  0.00  0.00    +0.041 A 
ATOM      8  C   UNL     1       4.315   2.599   1.536  0.00  0.00    +0.026 A 
ATOM      9  C   UNL     1       3.634   1.427   1.799  0.00  0.00    +0.030 A 
BRANCH   7  10
ATOM     10  N   UNL     1       5.220   4.179  -0.048  0.00  0.00    -0.283 N 
ATOM     11  H   UNL     1       5.375   4.452  -0.966  0.00  0.00    +0.166 HD
BRANCH  10  12
ATOM     12  N   UNL     1       5.671   4.957   0.981  0.00  0.00    -0.257 NA
ATOM     13  H   UNL     1       6.143   5.778   0.633  0.00  0.00    +0.140 HD
ATOM     14  H   UNL     1       4.916   5.209   1.601  0.00  0.00    +0.140 HD
ENDBRANCH  10  12
ENDBRANCH   7  10
ENDBRANCH   1   4
BRANCH   1  15
ATOM     15  N   UNL     1       0.711  -0.489   1.189  0.00  0.00    -0.182 NA
ATOM     16  H   UNL     1       0.236  -0.593   2.029  0.00  0.00    +0.149 HD
BRANCH  15  18
ATOM     17  C   UNL     1      -0.019   1.526   0.010  0.00  0.00    +0.031 C 
ATOM     18  C   UNL     1       0.002  -0.004   0.002  0.00  0.00    +0.110 C 
BRANCH  18  19
ATOM     19  C   UNL     1      -1.412  -0.526   0.013  0.00  0.00    +0.009 A 
ATOM     20  C   UNL     1      -2.157  -0.992  -1.019  0.00  0.00    +0.014 A 
ATOM     21  C   UNL     1      -3.447  -1.424  -0.772  0.00  0.00    +0.028 A 
ATOM     22  C   UNL     1      -3.928  -1.369   0.495  0.00  0.00    +0.078 A 
ATOM     23  S   UNL     1      -2.536  -0.697   1.389  0.00  0.00    -0.080 S 
ATOM     24 CL   UNL     1      -5.489  -1.836   1.093  0.00  0.00    -0.076 Cl
ENDBRANCH  18  19
ENDBRANCH  15  18
ENDBRANCH   1  15
TORSDOF 6
