REMARK  Name = ZINC63428606
REMARK  6 active torsions:
REMARK  status: ('A' for Active; 'I' for Inactive)
REMARK    1  A    between atoms: C_1  and  C_2
REMARK    2  A    between atoms: C_7  and  C_12
REMARK    3  A    between atoms: C_14  and  N_19
REMARK    4  A    between atoms: C_17  and  O_18
REMARK    5  A    between atoms: C_20  and  C_21
REMARK    6  A    between atoms: C_25  and  N_28
REMARK                            x       y       z     vdW  Elec       q    Type
REMARK                         _______ _______ _______ _____ _____    ______ ____
ROOT
ATOM      1  C   UNL     1       1.313  -5.080   1.946  0.00  0.00    +0.038 A 
ATOM      2  C   UNL     1       1.947  -5.904   1.041  0.00  0.00    +0.038 A 
ATOM      3  C   UNL     1       3.102  -6.593   1.416  0.00  0.00    +0.064 A 
ATOM      4  C   UNL     1       3.611  -6.444   2.709  0.00  0.00    +0.031 A 
ATOM      5  C   UNL     1       2.971  -5.618   3.608  0.00  0.00    +0.048 A 
ATOM      6  C   UNL     1       1.825  -4.930   3.228  0.00  0.00    +0.124 A 
ENDROOT
BRANCH   1  13
ATOM      7  C   UNL     1      -0.018   1.503   0.010  0.00  0.00    +0.044 C 
ATOM      8  C   UNL     1       0.002  -0.004   0.002  0.00  0.00    -0.048 A 
ATOM      9  C   UNL     1       0.005  -0.672  -1.235  0.00  0.00    +0.005 A 
ATOM     10  C   UNL     1       0.022  -2.017  -1.335  0.00  0.00    +0.027 A 
ATOM     11  C   UNL     1       0.040  -2.834  -0.114  0.00  0.00    +0.060 A 
ATOM     12  N   UNL     1       0.057  -4.120   0.090  0.00  0.00    -0.360 N 
ATOM     13  C   UNL     1       0.067  -4.335   1.542  0.00  0.00    +0.209 C 
ATOM     14  N   UNL     1       0.053  -3.002   2.159  0.00  0.00    -0.360 N 
ATOM     15  C   UNL     1       0.037  -2.127   1.195  0.00  0.00    +0.061 A 
ATOM     16  C   UNL     1       0.022  -0.657   1.181  0.00  0.00    +0.030 A 
ATOM     17  H   UNL     1       0.062  -4.809  -0.593  0.00  0.00    +0.162 HD
ATOM     18  H   UNL     1       0.055  -2.810   3.109  0.00  0.00    +0.162 HD
ENDBRANCH   1  13
BRANCH   6  19
ATOM     19  O   UNL     1       1.201  -4.112   4.116  0.00  0.00    -0.506 OA
ATOM     20  H   UNL     1       0.526  -4.554   4.649  0.00  0.00    +0.292 HD
ENDBRANCH   6  19
BRANCH   3  21
ATOM     21  N   UNL     1       3.734  -7.413   0.521  0.00  0.00    -0.255 NA
ATOM     22  C   UNL     1       5.031  -7.367   0.398  0.00  0.00    +0.123 C 
BRANCH  22  23
ATOM     23  C   UNL     1       5.710  -8.248  -0.564  0.00  0.00    +0.043 A 
ATOM     24  C   UNL     1       7.101  -8.207  -0.695  0.00  0.00    +0.033 A 
ATOM     25  C   UNL     1       7.731  -9.036  -1.600  0.00  0.00    +0.044 A 
ATOM     26  C   UNL     1       6.990  -9.910  -2.381  0.00  0.00    +0.056 A 
ATOM     27  C   UNL     1       5.615  -9.960  -2.261  0.00  0.00    +0.175 A 
ATOM     28  C   UNL     1       4.965  -9.139  -1.353  0.00  0.00    +0.218 A 
ATOM     29  O   UNL     1       3.615  -9.192  -1.230  0.00  0.00    -0.285 OA
ATOM     30 CL   UNL     1       9.459  -8.985  -1.762  0.00  0.00    -0.083 Cl
BRANCH  27  31
ATOM     31  N   UNL     1       4.834 -10.896  -3.100  0.00  0.00    +0.060 N 
ATOM     32  O   UNL     1       5.399 -11.616  -3.890  0.00  0.00    -0.126 OA
ATOM     33  O   UNL     1       3.630 -10.940  -2.997  0.00  0.00    -0.126 OA
ENDBRANCH  27  31
ENDBRANCH  22  23
ENDBRANCH   3  21
TORSDOF 5
