REMARK  Name = ZINC39679101
REMARK  9 active torsions:
REMARK  status: ('A' for Active; 'I' for Inactive)
REMARK    1  A    between atoms: C_1  and  N_2
REMARK    2  A    between atoms: N_2  and  C_3
REMARK    3  A    between atoms: N_2  and  C_4
REMARK    4  A    between atoms: C_4  and  C_5
REMARK    5  A    between atoms: C_5  and  C_6
REMARK    6  A    between atoms: C_6  and  C_7
REMARK    7  A    between atoms: C_7  and  N_8
REMARK    8  A    between atoms: C_9  and  C_11
REMARK    9  A    between atoms: C_22  and  C_24
REMARK                            x       y       z     vdW  Elec       q    Type
REMARK                         _______ _______ _______ _____ _____    ______ ____
ROOT
ATOM      1  C   UNL     1      -7.807  -1.029  -3.594  0.00  0.00    +0.100 C 
ATOM      2  C   UNL     1      -8.586  -0.486  -2.375  0.00  0.00    +0.121 C 
ATOM      3  N   UNL     1      -9.288   0.716  -2.885  0.00  0.00    -0.295 N 
ATOM      4  C   UNL     1      -9.736   0.332  -4.245  0.00  0.00    +0.115 C 
ATOM      5  C   UNL     1      -8.567  -0.493  -4.819  0.00  0.00    -0.004 C 
ATOM      6  C   UNL     1      -9.099  -1.650  -5.659  0.00  0.00    -0.010 C 
ATOM      7  C   UNL     1      -9.800  -1.093  -6.901  0.00  0.00    -0.082 C 
ATOM      8  N   UNL     1      -8.851  -0.292  -7.683  0.00  0.00    +0.379 N 
ATOM      9  C   UNL     1      -8.415   0.871  -6.901  0.00  0.00    -0.082 C 
ATOM     10  C   UNL     1      -7.655   0.398  -5.658  0.00  0.00    -0.010 C 
ATOM     11  C   UNL     1      -9.477   1.892  -2.254  0.00  0.00    +0.265 C 
ATOM     12  O   UNL     1      -8.961   2.090  -1.172  0.00  0.00    -0.268 OA
ATOM     13  H   UNL     1      -8.049  -0.857  -7.918  0.00  0.00    -0.086 HD
ATOM     14  H   UNL     1      -9.297   0.023  -8.531  0.00  0.00    -0.086 HD
ENDROOT
BRANCH  11  15
ATOM     15  C   UNL     1     -10.315   2.943  -2.880  0.00  0.00    +0.126 A 
ATOM     16  C   UNL     1     -10.406   4.202  -2.268  0.00  0.00    +0.033 A 
ATOM     17  C   UNL     1     -11.173   5.178  -2.834  0.00  0.00    +0.012 A 
ATOM     18  C   UNL     1     -11.854   4.880  -4.030  0.00  0.00    +0.000 A 
ATOM     19  C   UNL     1     -12.660   5.837  -4.667  0.00  0.00    +0.010 A 
ATOM     20  C   UNL     1     -13.304   5.514  -5.823  0.00  0.00    +0.001 A 
ATOM     21  C   UNL     1     -13.174   4.244  -6.384  0.00  0.00    +0.002 A 
ATOM     22  C   UNL     1     -12.402   3.292  -5.795  0.00  0.00    +0.028 A 
ATOM     23  C   UNL     1     -11.720   3.587  -4.598  0.00  0.00    +0.072 A 
ATOM     24  N   UNL     1     -10.952   2.675  -4.003  0.00  0.00    -0.242 NA
ENDBRANCH  11  15
BRANCH   1  26
ATOM     25  N   UNL     1      -5.399  -1.253  -4.114  0.00  0.00    -0.315 N 
ATOM     26  C   UNL     1      -6.392  -0.510  -3.586  0.00  0.00    +0.218 C 
ATOM     27  O   UNL     1      -6.147   0.576  -3.104  0.00  0.00    -0.275 OA
ATOM     28  H   UNL     1      -5.595  -2.121  -4.500  0.00  0.00    +0.149 HD
BRANCH  25  29
ATOM     29  C   UNL     1      -4.024  -0.749  -4.106  0.00  0.00    +0.104 C 
BRANCH  29  30
ATOM     30  C   UNL     1      -3.100  -1.778  -4.761  0.00  0.00    +0.017 C 
BRANCH  30  31
ATOM     31  C   UNL     1      -1.663  -1.251  -4.753  0.00  0.00    -0.017 C 
BRANCH  31  32
ATOM     32  C   UNL     1      -0.739  -2.280  -5.407  0.00  0.00    -0.080 C 
BRANCH  32  34
ATOM     33  C   UNL     1       1.111  -1.656  -4.013  0.00  0.00    -0.097 C 
ATOM     34  N   UNL     1       0.640  -1.774  -5.399  0.00  0.00    +0.376 N 
ATOM     35  C   UNL     1       1.507  -2.706  -6.133  0.00  0.00    -0.097 C 
ATOM     36  H   UNL     1       0.669  -0.869  -5.843  0.00  0.00    -0.083 HD
ENDBRANCH  32  34
ENDBRANCH  31  32
ENDBRANCH  30  31
ENDBRANCH  29  30
ENDBRANCH  25  29
ENDBRANCH   1  26
TORSDOF 7
