REMARK  Name = ZINC67041745
REMARK  7 active torsions:
REMARK  status: ('A' for Active; 'I' for Inactive)
REMARK    1  A    between atoms: C_1  and  N_2
REMARK    2  A    between atoms: N_2  and  C_3
REMARK    3  A    between atoms: N_2  and  C_4
REMARK    4  A    between atoms: C_4  and  C_5
REMARK    5  A    between atoms: C_8  and  C_11
REMARK    6  A    between atoms: C_11  and  N_12
REMARK    7  A    between atoms: C_19  and  C_21
REMARK                            x       y       z     vdW  Elec       q    Type
REMARK                         _______ _______ _______ _____ _____    ______ ____
ROOT
ATOM      1  N   UNL     1      -3.100   1.766  -5.734  0.00  0.00    -0.295 N 
ATOM      2  C   UNL     1      -3.504   2.227  -6.935  0.00  0.00    +0.303 C 
ATOM      3  O   UNL     1      -4.637   2.013  -7.319  0.00  0.00    -0.253 OA
ATOM      4  N   UNL     1      -2.651   2.926  -7.710  0.00  0.00    -0.278 N 
ATOM      5  C   UNL     1      -1.253   3.251  -7.372  0.00  0.00    +0.110 C 
ATOM      6  C   UNL     1      -0.926   4.514  -8.209  0.00  0.00    +0.021 C 
ATOM      7  C   UNL     1      -1.694   4.222  -9.525  0.00  0.00    +0.029 C 
ATOM      8  C   UNL     1      -2.958   3.484  -9.035  0.00  0.00    +0.111 C 
ATOM      9  H   UNL     1      -2.196   1.938  -5.428  0.00  0.00    +0.151 HD
ENDROOT
BRANCH   8  10
ATOM     10  C   UNL     1      -3.309   2.373  -9.990  0.00  0.00    +0.018 A 
ATOM     11  C   UNL     1      -2.951   1.070  -9.696  0.00  0.00    +0.009 A 
ATOM     12  C   UNL     1      -3.272   0.049 -10.570  0.00  0.00    +0.004 A 
ATOM     13  C   UNL     1      -3.949   0.326 -11.743  0.00  0.00    +0.049 A 
ATOM     14  C   UNL     1      -4.310   1.630 -12.044  0.00  0.00    +0.162 A 
ATOM     15  C   UNL     1      -3.995   2.657 -11.161  0.00  0.00    +0.167 A 
ATOM     16  O   UNL     1      -4.351   3.942 -11.432  0.00  0.00    -0.485 OA
ATOM     17  C   UNL     1      -4.706   4.240 -12.787  0.00  0.00    +0.270 C 
ATOM     18  C   UNL     1      -5.660   3.146 -13.285  0.00  0.00    +0.270 C 
ATOM     19  O   UNL     1      -4.973   1.889 -13.204  0.00  0.00    -0.485 OA
ENDBRANCH   8  10
BRANCH   1  20
ATOM     20  C   UNL     1      -4.028   1.007  -4.892  0.00  0.00    +0.141 C 
BRANCH  20  24
ATOM     21  C   UNL     1      -2.067  -0.116  -1.267  0.00  0.00    -0.064 A 
ATOM     22  C   UNL     1      -2.750   1.083  -1.340  0.00  0.00    +0.002 A 
ATOM     23  C   UNL     1      -3.385   1.447  -2.513  0.00  0.00    +0.005 A 
ATOM     24  C   UNL     1      -3.335   0.611  -3.613  0.00  0.00    -0.030 A 
ATOM     25  C   UNL     1      -2.652  -0.588  -3.540  0.00  0.00    +0.005 A 
ATOM     26  C   UNL     1      -2.014  -0.950  -2.368  0.00  0.00    +0.002 A 
BRANCH  21  27
ATOM     27  C   UNL     1      -1.376  -0.512   0.012  0.00  0.00    -0.044 C 
BRANCH  27  29
ATOM     28  C   UNL     1      -0.018   1.465   0.010  0.00  0.00    -0.096 C 
ATOM     29  N   UNL     1       0.002  -0.004   0.002  0.00  0.00    +0.379 N 
ATOM     30  C   UNL     1       0.713  -0.491   1.192  0.00  0.00    -0.096 C 
ATOM     31  H   UNL     1       0.474  -0.330  -0.828  0.00  0.00    -0.082 HD
ENDBRANCH  27  29
ENDBRANCH  21  27
ENDBRANCH  20  24
ENDBRANCH   1  20
TORSDOF 5
