REMARK  Name = ZINC09483329
REMARK  9 active torsions:
REMARK  status: ('A' for Active; 'I' for Inactive)
REMARK    1  A    between atoms: C_1  and  C_2
REMARK    2  A    between atoms: C_2  and  C_37
REMARK    3  A    between atoms: C_6  and  C_29
REMARK    4  A    between atoms: N_8  and  C_16
REMARK    5  A    between atoms: C_16  and  C_17
REMARK    6  A    between atoms: N_19  and  C_20
REMARK    7  A    between atoms: C_20  and  C_21
REMARK    8  A    between atoms: C_24  and  O_27
REMARK    9  A    between atoms: O_27  and  C_28
REMARK                            x       y       z     vdW  Elec       q    Type
REMARK                         _______ _______ _______ _____ _____    ______ ____
ROOT
ATOM      1  C   UNL     1      -4.958  -0.268   3.289  0.00  0.00    +0.011 C 
ATOM      2  C   UNL     1      -4.198   0.868   3.977  0.00  0.00    -0.023 C 
ATOM      3  C   UNL     1      -4.545   2.201   3.312  0.00  0.00    +0.058 C 
ATOM      4  C   UNL     1      -4.141   2.166   1.858  0.00  0.00    +0.017 C 
ATOM      5  C   UNL     1      -3.064   1.464   1.436  0.00  0.00    +0.040 C 
ATOM      6  C   UNL     1      -2.533   1.387   0.021  0.00  0.00    +0.175 C 
ATOM      7  N   UNL     1      -3.289   2.180  -0.935  0.00  0.00    -0.306 N 
ATOM      8  C   UNL     1      -4.612   1.756  -1.082  0.00  0.00    +0.052 A 
ATOM      9  C   UNL     1      -5.059   1.019  -2.161  0.00  0.00    +0.025 A 
ATOM     10  C   UNL     1      -6.411   0.722  -2.252  0.00  0.00    +0.002 A 
ATOM     11  C   UNL     1      -7.292   1.155  -1.279  0.00  0.00    +0.002 A 
ATOM     12  C   UNL     1      -6.836   1.881  -0.189  0.00  0.00    +0.025 A 
ATOM     13  C   UNL     1      -5.487   2.165  -0.096  0.00  0.00    +0.052 A 
ATOM     14  N   UNL     1      -4.922   2.864   0.978  0.00  0.00    -0.316 N 
ATOM     15  C   UNL     1      -2.325   0.705   2.374  0.00  0.00    +0.163 C 
ATOM     16  O   UNL     1      -1.359   0.077   1.987  0.00  0.00    -0.292 OA
ATOM     17  C   UNL     1      -2.689   0.647   3.826  0.00  0.00    +0.086 C 
ATOM     18  C   UNL     1      -4.569   0.916   5.460  0.00  0.00    +0.011 C 
ATOM     19  H   UNL     1      -5.079   3.814   1.094  0.00  0.00    +0.152 HD
ENDROOT
BRANCH   6  20
ATOM     20  C   UNL     1      -1.103   1.863   0.017  0.00  0.00    +0.130 A 
ATOM     21  C   UNL     1      -0.013   1.076   0.008  0.00  0.00    +0.047 A 
ATOM     22  C   UNL     1       1.111   1.934   0.002  0.00  0.00    +0.041 A 
ATOM     23  C   UNL     1       0.640   3.193   0.012  0.00  0.00    +0.195 A 
ATOM     24  O   UNL     1      -0.702   3.144   0.024  0.00  0.00    -0.466 OA
ENDBRANCH   6  20
BRANCH   7  25
ATOM     25  C   UNL     1      -2.605   2.232  -2.234  0.00  0.00    +0.201 C 
BRANCH  25  26
ATOM     26  C   UNL     1      -3.522   2.847  -3.260  0.00  0.00    +0.231 C 
ATOM     27  O   UNL     1      -4.635   3.206  -2.941  0.00  0.00    -0.274 OA
ATOM     28  N   UNL     1      -3.104   2.997  -4.533  0.00  0.00    -0.310 N 
ATOM     29  H   UNL     1      -2.213   2.709  -4.788  0.00  0.00    +0.149 HD
BRANCH  28  30
ATOM     30  C   UNL     1      -3.995   3.594  -5.530  0.00  0.00    +0.139 C 
BRANCH  30  31
ATOM     31  C   UNL     1      -3.293   3.648  -6.863  0.00  0.00    -0.030 A 
ATOM     32  C   UNL     1      -2.549   4.761  -7.207  0.00  0.00    +0.009 A 
ATOM     33  C   UNL     1      -1.900   4.810  -8.425  0.00  0.00    +0.046 A 
ATOM     34  C   UNL     1      -2.005   3.745  -9.309  0.00  0.00    +0.120 A 
ATOM     35  C   UNL     1      -2.757   2.632  -8.964  0.00  0.00    +0.046 A 
ATOM     36  C   UNL     1      -3.400   2.586  -7.742  0.00  0.00    +0.009 A 
BRANCH  34  37
ATOM     37  O   UNL     1      -1.372   3.793 -10.511  0.00  0.00    -0.495 OA
ATOM     38  C   UNL     1      -0.615   4.971 -10.799  0.00  0.00    +0.277 C 
ENDBRANCH  34  37
ENDBRANCH  30  31
ENDBRANCH  28  30
ENDBRANCH  25  26
ENDBRANCH   7  25
TORSDOF 6
