REMARK  Name = ZINC32956341
REMARK  9 active torsions:
REMARK  status: ('A' for Active; 'I' for Inactive)
REMARK    1  A    between atoms: C_1  and  O_2
REMARK    2  A    between atoms: O_2  and  C_3
REMARK    3  A    between atoms: C_8  and  O_9
REMARK    4  A    between atoms: O_9  and  C_10
REMARK    5  A    between atoms: C_11  and  C_28
REMARK    6  A    between atoms: C_16  and  C_18
REMARK    7  A    between atoms: C_18  and  S_19
REMARK    8  A    between atoms: S_19  and  C_20
REMARK    9  A    between atoms: C_24  and  N_26
REMARK                            x       y       z     vdW  Elec       q    Type
REMARK                         _______ _______ _______ _____ _____    ______ ____
ROOT
ATOM      1  C   UNL     1       1.887   2.013   0.214  0.00  0.00    +0.162 A 
ATOM      2  C   UNL     1       2.952   1.141   0.088  0.00  0.00    +0.053 A 
ATOM      3  C   UNL     1       2.738  -0.230   0.005  0.00  0.00    -0.037 A 
ATOM      4  C   UNL     1       1.453  -0.723   0.059  0.00  0.00    -0.016 A 
ATOM      5  C   UNL     1       0.380   0.149   0.182  0.00  0.00    +0.055 A 
ATOM      6  C   UNL     1       0.589   1.514   0.260  0.00  0.00    +0.162 A 
ATOM      7  C   UNL     1       1.154  -2.201   0.004  0.00  0.00    +0.137 C 
ATOM      8  N   UNL     1       2.361  -2.936  -0.387  0.00  0.00    -0.289 N 
ATOM      9  C   UNL     1       3.626  -2.551   0.262  0.00  0.00    +0.113 C 
ATOM     10  C   UNL     1       3.947  -1.115  -0.148  0.00  0.00    +0.054 C 
ATOM     11  C   UNL     1       2.316  -3.923  -1.303  0.00  0.00    +0.227 C 
ATOM     12  O   UNL     1       1.261  -4.220  -1.822  0.00  0.00    -0.275 OA
ENDROOT
BRANCH   7  13
ATOM     13  C   UNL     1       0.697  -2.671   1.361  0.00  0.00    -0.023 A 
ATOM     14  C   UNL     1       1.487  -2.444   2.472  0.00  0.00    +0.006 A 
ATOM     15  C   UNL     1       1.066  -2.871   3.718  0.00  0.00    +0.000 A 
ATOM     16  C   UNL     1      -0.140  -3.534   3.850  0.00  0.00    +0.000 A 
ATOM     17  C   UNL     1      -0.927  -3.765   2.738  0.00  0.00    +0.000 A 
ATOM     18  C   UNL     1      -0.508  -3.334   1.493  0.00  0.00    +0.006 A 
ENDBRANCH   7  13
BRANCH   1  20
ATOM     19  C   UNL     1       3.466   3.792   0.240  0.00  0.00    +0.277 C 
ATOM     20  O   UNL     1       2.107   3.353   0.294  0.00  0.00    -0.491 OA
ENDBRANCH   1  20
BRANCH   6  21
ATOM     21  O   UNL     1      -0.468   2.362   0.375  0.00  0.00    -0.491 OA
ATOM     22  C   UNL     1      -1.770   1.776   0.409  0.00  0.00    +0.277 C 
ENDBRANCH   6  21
BRANCH  11  23
ATOM     23  C   UNL     1       3.575  -4.659  -1.681  0.00  0.00    +0.173 C 
BRANCH  23  24
ATOM     24  S   UNL     1       3.189  -5.917  -2.924  0.00  0.00    -0.077 S 
BRANCH  24  25
ATOM     25  C   UNL     1       4.793  -6.601  -3.175  0.00  0.00    +0.192 A 
ATOM     26  N   UNL     1       5.818  -6.111  -2.493  0.00  0.00    -0.207 NA
ATOM     27  C   UNL     1       7.043  -6.608  -2.652  0.00  0.00    +0.122 A 
ATOM     28  C   UNL     1       7.240  -7.646  -3.557  0.00  0.00    +0.086 A 
ATOM     29  C   UNL     1       6.141  -8.131  -4.260  0.00  0.00    +0.122 A 
ATOM     30  N   UNL     1       4.944  -7.590  -4.045  0.00  0.00    -0.207 NA
ATOM     31  N   UNL     1       8.108  -6.093  -1.931  0.00  0.00    -0.343 N 
ATOM     32  H   UNL     1       9.118  -6.508  -2.068  0.00  0.00    +0.144 HD
ATOM     33  H   UNL     1       7.945  -5.269  -1.221  0.00  0.00    +0.144 HD
BRANCH  29  34
ATOM     34  N   UNL     1       6.290  -9.164  -5.172  0.00  0.00    -0.343 N 
ATOM     35  H   UNL     1       5.416  -9.542  -5.723  0.00  0.00    +0.144 HD
ATOM     36  H   UNL     1       7.282  -9.606  -5.345  0.00  0.00    +0.144 HD
ENDBRANCH  29  34
ENDBRANCH  24  25
ENDBRANCH  23  24
ENDBRANCH  11  23
TORSDOF 7
