REMARK  Name = ZINC37177317
REMARK  6 active torsions:
REMARK  status: ('A' for Active; 'I' for Inactive)
REMARK    1  A    between atoms: C_1  and  C_2
REMARK    2  A    between atoms: C_2  and  C_4
REMARK    3  A    between atoms: C_2  and  N_11
REMARK    4  A    between atoms: C_7  and  N_10
REMARK    5  A    between atoms: C_12  and  C_14
REMARK    6  A    between atoms: C_19  and  O_20
REMARK                            x       y       z     vdW  Elec       q    Type
REMARK                         _______ _______ _______ _____ _____    ______ ____
ROOT
ATOM      1  N   UNL     1       0.711  -0.489   1.189  0.00  0.00    -0.305 N 
ATOM      2  C   UNL     1       0.051  -0.633   2.355  0.00  0.00    +0.248 C 
ATOM      3  O   UNL     1      -1.132  -0.361   2.423  0.00  0.00    -0.270 OA
ATOM      4  H   UNL     1       1.654  -0.707   1.135  0.00  0.00    +0.150 HD
ENDROOT
BRANCH   2   5
ATOM      5  C   UNL     1       0.764  -1.122   3.550  0.00  0.00    +0.078 A 
ATOM      6  C   UNL     1       2.125  -1.431   3.478  0.00  0.00    +0.018 A 
ATOM      7  C   UNL     1       2.786  -1.887   4.598  0.00  0.00    +0.021 A 
ATOM      8  C   UNL     1       2.107  -2.041   5.797  0.00  0.00    +0.044 A 
ATOM      9  C   UNL     1       0.761  -1.738   5.881  0.00  0.00    +0.066 A 
ATOM     10  C   UNL     1       0.082  -1.273   4.765  0.00  0.00    +0.130 A 
ATOM     11 CL   UNL     1       2.952  -2.616   7.200  0.00  0.00    -0.083 Cl
BRANCH  10  12
ATOM     12  O   UNL     1      -1.238  -0.971   4.848  0.00  0.00    -0.506 OA
ATOM     13  H   UNL     1      -1.824  -1.715   4.654  0.00  0.00    +0.292 HD
ENDBRANCH  10  12
ENDBRANCH   2   5
BRANCH   1  15
ATOM     14  C   UNL     1      -0.019   1.526   0.010  0.00  0.00    +0.033 C 
ATOM     15  C   UNL     1       0.002  -0.004   0.002  0.00  0.00    +0.100 C 
BRANCH  15  16
ATOM     16  C   UNL     1       0.707  -0.490  -1.238  0.00  0.00    -0.027 A 
ATOM     17  C   UNL     1       2.089  -0.510  -1.282  0.00  0.00    +0.007 A 
ATOM     18  C   UNL     1       2.739  -0.955  -2.417  0.00  0.00    +0.023 A 
ATOM     19  C   UNL     1       2.003  -1.382  -3.514  0.00  0.00    +0.025 A 
ATOM     20  C   UNL     1       0.615  -1.361  -3.466  0.00  0.00    +0.023 A 
ATOM     21  C   UNL     1      -0.029  -0.920  -2.326  0.00  0.00    +0.007 A 
BRANCH  19  22
ATOM     22  N   UNL     1       2.656  -1.832  -4.664  0.00  0.00    -0.358 N 
ATOM     23  H   UNL     1       3.626  -1.847  -4.696  0.00  0.00    +0.142 HD
ATOM     24  H   UNL     1       2.141  -2.131  -5.429  0.00  0.00    +0.142 HD
ENDBRANCH  19  22
ENDBRANCH  15  16
ENDBRANCH   1  15
TORSDOF 5
