REMARK  Name = ZINC17158196
REMARK  5 active torsions:
REMARK  status: ('A' for Active; 'I' for Inactive)
REMARK    1  A    between atoms: C_6  and  S_7
REMARK    2  A    between atoms: S_7  and  N_10
REMARK    3  A    between atoms: C_13  and  C_16
REMARK    4  A    between atoms: N_18  and  N_19
REMARK    5  A    between atoms: C_20  and  C_22
REMARK                            x       y       z     vdW  Elec       q    Type
REMARK                         _______ _______ _______ _____ _____    ______ ____
ROOT
ATOM      1  N   UNL     1      -3.844   2.633   1.117  0.00  0.00    -0.177 NA
ATOM      2  C   UNL     1      -3.814   1.685  -0.006  0.00  0.00    +0.110 C 
ATOM      3  C   UNL     1      -2.479   0.934   0.019  0.00  0.00    +0.030 C 
ATOM      4  C   UNL     1      -1.330   1.944   0.019  0.00  0.00    +0.079 C 
ATOM      5  C   UNL     1      -1.416   2.817   1.273  0.00  0.00    +0.030 C 
ATOM      6  C   UNL     1      -2.739   3.590   1.263  0.00  0.00    +0.110 C 
ENDROOT
BRANCH   4   7
ATOM      7  C   UNL     1      -0.014   1.209   0.009  0.00  0.00    +0.232 C 
ATOM      8  O   UNL     1       0.002  -0.004   0.002  0.00  0.00    -0.274 OA
ATOM      9  N   UNL     1       1.143   1.898   0.001  0.00  0.00    -0.234 N 
ATOM     10  H   UNL     1       1.129   2.998   0.007  0.00  0.00    +0.173 HD
BRANCH   9  11
ATOM     11  N   UNL     1       2.366   1.214  -0.014  0.00  0.00    -0.234 N 
ATOM     12  C   UNL     1       3.524   1.904  -0.021  0.00  0.00    +0.235 C 
ATOM     13  O   UNL     1       3.508   3.117  -0.015  0.00  0.00    -0.274 OA
ATOM     14  H   UNL     1       2.381   0.115  -0.020  0.00  0.00    +0.173 HD
BRANCH  12  15
ATOM     15  C   UNL     1       4.839   1.168  -0.038  0.00  0.00    +0.049 C 
ATOM     16  C   UNL     1       4.944   0.283   1.206  0.00  0.00    +0.019 C 
ATOM     17  C   UNL     1       6.279  -0.464   1.189  0.00  0.00    -0.009 C 
ATOM     18  C   UNL     1       7.429   0.546   1.183  0.00  0.00    +0.007 C 
ATOM     19  C   UNL     1       7.324   1.431  -0.060  0.00  0.00    -0.009 C 
ATOM     20  C   UNL     1       5.989   2.178  -0.043  0.00  0.00    +0.019 C 
ATOM     21  C   UNL     1       7.405   0.560  -1.315  0.00  0.00    +0.007 C 
ATOM     22  C   UNL     1       6.255  -0.450  -1.309  0.00  0.00    -0.009 C 
ATOM     23  C   UNL     1       6.360  -1.335  -0.066  0.00  0.00    +0.007 C 
ATOM     24  C   UNL     1       4.920   0.297  -1.293  0.00  0.00    +0.019 C 
ENDBRANCH  12  15
ENDBRANCH   9  11
ENDBRANCH   4   7
BRANCH   1  25
ATOM     25  S   UNL     1      -5.100   2.623   2.196  0.00  0.00    +0.061 S 
ATOM     26  O   UNL     1      -5.150   3.921   2.772  0.00  0.00    -0.153 OA
ATOM     27  O   UNL     1      -6.210   2.045   1.522  0.00  0.00    -0.153 OA
BRANCH  25  33
ATOM     28  C   UNL     1      -5.006   0.177   3.406  0.00  0.00    +0.029 A 
ATOM     29  C   UNL     1      -4.658  -0.687   4.425  0.00  0.00    +0.006 A 
ATOM     30  C   UNL     1      -3.977  -0.222   5.542  0.00  0.00    -0.044 A 
ATOM     31  C   UNL     1      -3.638   1.109   5.629  0.00  0.00    -0.042 A 
ATOM     32  C   UNL     1      -3.985   1.976   4.601  0.00  0.00    +0.032 A 
ATOM     33  C   UNL     1      -4.664   1.513   3.493  0.00  0.00    +0.106 A 
ATOM     34  C   UNL     1      -2.891   1.680   6.806  0.00  0.00    +0.035 C 
ATOM     35  C   UNL     1      -2.970   0.734   8.002  0.00  0.00    +0.005 C 
ATOM     36  C   UNL     1      -2.551  -0.666   7.539  0.00  0.00    +0.005 C 
ATOM     37  C   UNL     1      -3.642  -1.217   6.622  0.00  0.00    +0.035 C 
ENDBRANCH  25  33
ENDBRANCH   1  25
TORSDOF 5
