REMARK  Name = ZINC39695763
REMARK  10 active torsions:
REMARK  status: ('A' for Active; 'I' for Inactive)
REMARK    1  A    between atoms: C_1  and  C_2
REMARK    2  A    between atoms: C_2  and  C_3
REMARK    3  A    between atoms: C_3  and  C_4
REMARK    4  A    between atoms: C_3  and  C_6
REMARK    5  A    between atoms: C_4  and  C_5
REMARK    6  A    between atoms: C_10  and  C_19
REMARK    7  A    between atoms: N_21  and  C_22
REMARK    8  A    between atoms: C_22  and  C_24
REMARK    9  A    between atoms: C_22  and  C_25
REMARK   10  A    between atoms: C_31  and  C_35
REMARK                            x       y       z     vdW  Elec       q    Type
REMARK                         _______ _______ _______ _____ _____    ______ ____
ROOT
ATOM      1  C   UNL     1       1.060  -2.367   0.734  0.00  0.00    +0.219 C 
ATOM      2  O   UNL     1       0.730  -3.179   1.572  0.00  0.00    -0.275 OA
ATOM      3  N   UNL     1       1.834  -2.745  -0.303  0.00  0.00    -0.300 N 
ATOM      4  C   UNL     1       2.341  -1.903  -1.413  0.00  0.00    +0.121 C 
ATOM      5  C   UNL     1       3.783  -2.402  -1.653  0.00  0.00    +0.100 C 
ATOM      6  C   UNL     1       3.796  -3.842  -1.113  0.00  0.00    -0.004 C 
ATOM      7  C   UNL     1       2.376  -4.095  -0.587  0.00  0.00    +0.115 C 
ATOM      8  C   UNL     1       4.805  -3.971   0.024  0.00  0.00    -0.010 C 
ATOM      9  C   UNL     1       4.841  -5.424   0.506  0.00  0.00    -0.082 C 
ATOM     10  N   UNL     1       5.216  -6.302  -0.610  0.00  0.00    +0.379 N 
ATOM     11  C   UNL     1       4.192  -6.242  -1.660  0.00  0.00    -0.082 C 
ATOM     12  C   UNL     1       4.129  -4.823  -2.233  0.00  0.00    -0.010 C 
ATOM     13  H   UNL     1       6.102  -6.003  -0.988  0.00  0.00    -0.086 HD
ATOM     14  H   UNL     1       5.298  -7.250  -0.276  0.00  0.00    -0.086 HD
ENDROOT
BRANCH   5  15
ATOM     15  C   UNL     1       4.767  -1.546  -0.896  0.00  0.00    +0.219 C 
ATOM     16  O   UNL     1       4.462  -1.081   0.181  0.00  0.00    -0.275 OA
ATOM     17  N   UNL     1       5.985  -1.299  -1.417  0.00  0.00    -0.305 N 
ATOM     18  H   UNL     1       6.229  -1.671  -2.279  0.00  0.00    +0.149 HD
BRANCH  17  19
ATOM     19  C   UNL     1       6.941  -0.468  -0.682  0.00  0.00    +0.136 C 
ATOM     20  C   UNL     1       7.707  -1.335   0.319  0.00  0.00    +0.036 C 
BRANCH  19  21
ATOM     21  C   UNL     1       7.912   0.158  -1.650  0.00  0.00    +0.128 A 
ATOM     22  H   UNL     1       8.539   1.874  -0.640  0.00  0.00    +0.167 HD
ATOM     23  N   UNL     1       8.216  -0.327  -2.818  0.00  0.00    -0.231 NA
ATOM     24  C   UNL     1       9.119   0.484  -3.428  0.00  0.00    +0.089 A 
ATOM     25  C   UNL     1       9.770   0.443  -4.663  0.00  0.00    +0.030 A 
ATOM     26  C   UNL     1      10.648   1.434  -5.002  0.00  0.00    +0.005 A 
ATOM     27  C   UNL     1      10.902   2.483  -4.132  0.00  0.00    -0.048 A 
ATOM     28  C   UNL     1      10.271   2.544  -2.907  0.00  0.00    +0.031 A 
ATOM     29  C   UNL     1       9.375   1.547  -2.546  0.00  0.00    +0.067 A 
ATOM     30  N   UNL     1       8.592   1.316  -1.432  0.00  0.00    -0.340 N 
ATOM     31  C   UNL     1      11.874   3.565  -4.526  0.00  0.00    +0.044 C 
ENDBRANCH  19  21
ENDBRANCH  17  19
ENDBRANCH   5  15
BRANCH   1  32
ATOM     32  C   UNL     1       0.605  -0.935   0.851  0.00  0.00    +0.075 C 
BRANCH  32  34
ATOM     33  C   UNL     1      -0.564   0.930  -0.330  0.00  0.00    +0.004 C 
ATOM     34  C   UNL     1      -0.220  -0.559  -0.382  0.00  0.00    +0.009 C 
ENDBRANCH  32  34
BRANCH  32  35
ATOM     35  C   UNL     1      -0.255  -0.775   2.107  0.00  0.00    +0.009 C 
ATOM     36  C   UNL     1       0.613  -0.990   3.349  0.00  0.00    +0.004 C 
ENDBRANCH  32  35
ENDBRANCH   1  32
TORSDOF 6
