REMARK  Name = ZINC20120876
REMARK  17 active torsions:
REMARK  status: ('A' for Active; 'I' for Inactive)
REMARK    1  A    between atoms: C_1  and  C_2
REMARK    2  A    between atoms: C_2  and  C_3
REMARK    3  A    between atoms: C_3  and  C_5
REMARK    4  A    between atoms: C_3  and  N_15
REMARK    5  A    between atoms: N_9  and  C_10
REMARK    6  A    between atoms: C_10  and  C_11
REMARK    7  A    between atoms: C_10  and  C_12
REMARK    8  A    between atoms: C_10  and  C_13
REMARK    9  A    between atoms: C_13  and  C_14
REMARK   10  A    between atoms: N_15  and  C_16
REMARK   11  A    between atoms: N_15  and  C_20
REMARK   12  A    between atoms: C_16  and  C_17
REMARK   13  A    between atoms: C_17  and  C_18
REMARK   14  A    between atoms: C_18  and  O_19
REMARK   15  A    between atoms: C_20  and  C_21
REMARK   16  A    between atoms: C_25  and  C_33
REMARK   17  A    between atoms: C_27  and  C_32
REMARK                            x       y       z     vdW  Elec       q    Type
REMARK                         _______ _______ _______ _____ _____    ______ ____
ROOT
ATOM      1  N   UNL     1       0.756   0.279  -3.177  0.00  0.00    +0.389 N 
ATOM      2  H   UNL     1      -0.117  -0.131  -3.476  0.00  0.00    -0.080 HD
ENDROOT
BRANCH   1   3
ATOM      3  C   UNL     1       1.075  -0.185  -1.820  0.00  0.00    +0.003 C 
BRANCH   3   4
ATOM      4  C   UNL     1      -0.194  -0.288  -1.013  0.00  0.00    +0.139 A 
ATOM      5  N   UNL     1      -1.192   0.562  -1.013  0.00  0.00    -0.115 NA
ATOM      6  N   UNL     1      -2.086   0.124  -0.195  0.00  0.00    -0.023 NA
ATOM      7  N   UNL     1      -1.685  -0.983   0.326  0.00  0.00    -0.043 NA
ATOM      8  N   UNL     1      -0.524  -1.273  -0.158  0.00  0.00    -0.225 N 
BRANCH   8   9
ATOM      9  C   UNL     1       0.283  -2.451   0.166  0.00  0.00    +0.061 C 
ATOM     10  C   UNL     1       0.408  -3.341  -1.073  0.00  0.00    +0.036 C 
ATOM     11  C   UNL     1       1.676  -2.007   0.617  0.00  0.00    +0.036 C 
BRANCH   9  12
ATOM     12  C   UNL     1      -0.391  -3.238   1.293  0.00  0.00    +0.026 C 
ATOM     13  C   UNL     1       0.453  -4.468   1.631  0.00  0.00    +0.006 C 
ENDBRANCH   9  12
ENDBRANCH   8   9
ENDBRANCH   3   4
BRANCH   3  15
ATOM     14  C   UNL     1       3.375   0.790  -1.873  0.00  0.00    +0.002 C 
ATOM     15  C   UNL     1       2.026   0.810  -1.152  0.00  0.00    -0.011 C 
ENDBRANCH   3  15
ENDBRANCH   1   3
BRANCH   1  16
ATOM     16  C   UNL     1       1.827  -0.126  -4.098  0.00  0.00    -0.075 C 
BRANCH  16  17
ATOM     17  C   UNL     1       1.870  -1.652  -4.191  0.00  0.00    +0.009 C 
BRANCH  17  18
ATOM     18  C   UNL     1       3.023  -2.075  -5.103  0.00  0.00    +0.154 C 
BRANCH  18  19
ATOM     19  O   UNL     1       3.063  -3.501  -5.190  0.00  0.00    -0.395 OA
ATOM     20  H   UNL     1       3.772  -3.841  -5.753  0.00  0.00    +0.209 HD
ENDBRANCH  18  19
ENDBRANCH  17  18
ENDBRANCH  16  17
ENDBRANCH   1  16
BRANCH   1  21
ATOM     21  C   UNL     1       0.636   1.743  -3.179  0.00  0.00    -0.037 C 
BRANCH  21  22
ATOM     22  C   UNL     1       0.121   2.203  -4.518  0.00  0.00    +0.001 A 
ATOM     23  C   UNL     1      -1.206   2.423  -4.692  0.00  0.00    +0.017 A 
ATOM     24  C   UNL     1      -1.674   2.870  -6.006  0.00  0.00    -0.001 A 
ATOM     25  C   UNL     1      -3.031   3.113  -6.246  0.00  0.00    +0.013 A 
ATOM     26  C   UNL     1      -3.435   3.530  -7.482  0.00  0.00    -0.050 A 
ATOM     27  C   UNL     1      -2.512   3.714  -8.503  0.00  0.00    +0.008 A 
ATOM     28  C   UNL     1      -1.171   3.481  -8.289  0.00  0.00    -0.026 A 
ATOM     29  C   UNL     1      -0.735   3.056  -7.037  0.00  0.00    +0.052 A 
ATOM     30  N   UNL     1       0.601   2.816  -6.795  0.00  0.00    -0.322 N 
ATOM     31  C   UNL     1       1.022   2.410  -5.585  0.00  0.00    +0.251 A 
ATOM     32  O   UNL     1       2.211   2.212  -5.405  0.00  0.00    -0.268 OA
ATOM     33  C   UNL     1      -0.180   3.684  -9.406  0.00  0.00    +0.046 C 
ATOM     34  C   UNL     1      -4.896   3.792  -7.741  0.00  0.00    +0.044 C 
ATOM     35  H   UNL     1       1.246   2.945  -7.508  0.00  0.00    +0.169 HD
ENDBRANCH  21  22
ENDBRANCH   1  21
TORSDOF 11
