REMARK  Name = ZINC12794419
REMARK  13 active torsions:
REMARK  status: ('A' for Active; 'I' for Inactive)
REMARK    1  A    between atoms: C_1  and  C_2
REMARK    2  A    between atoms: C_2  and  C_3
REMARK    3  A    between atoms: C_6  and  C_9
REMARK    4  A    between atoms: C_9  and  C_11
REMARK    5  A    between atoms: C_9  and  N_63
REMARK    6  A    between atoms: C_11  and  N_12
REMARK    7  A    between atoms: C_13  and  C_15
REMARK    8  A    between atoms: C_15  and  C_17
REMARK    9  A    between atoms: C_15  and  N_24
REMARK   10  A    between atoms: C_17  and  C_18
REMARK   11  A    between atoms: C_25  and  C_27
REMARK   12  A    between atoms: C_32  and  N_63
REMARK   13  A    between atoms: C_33  and  N_63
REMARK                            x       y       z     vdW  Elec       q    Type
REMARK                         _______ _______ _______ _____ _____    ______ ____
ROOT
ATOM      1  N   UNL     1      -5.609   3.288  -0.488  0.00  0.00    -0.315 N 
ATOM      2  C   UNL     1      -4.375   3.831  -0.472  0.00  0.00    +0.234 C 
ATOM      3  O   UNL     1      -4.229   5.012  -0.706  0.00  0.00    -0.274 OA
ATOM      4  H   UNL     1      -5.725   2.344  -0.301  0.00  0.00    +0.149 HD
ENDROOT
BRANCH   1   5
ATOM      5  C   UNL     1      -6.773   4.125  -0.787  0.00  0.00    +0.093 C 
BRANCH   5   6
ATOM      6  C   UNL     1      -8.024   3.248  -0.869  0.00  0.00    -0.021 C 
BRANCH   6  10
ATOM      7  C   UNL     1      -7.625   0.497  -4.113  0.00  0.00    -0.048 A 
ATOM      8  C   UNL     1      -7.375   0.081  -2.819  0.00  0.00    +0.004 A 
ATOM      9  C   UNL     1      -7.504   0.971  -1.769  0.00  0.00    +0.002 A 
ATOM     10  C   UNL     1      -7.883   2.277  -2.014  0.00  0.00    -0.059 A 
ATOM     11  C   UNL     1      -8.138   2.692  -3.307  0.00  0.00    +0.002 A 
ATOM     12  C   UNL     1      -8.004   1.804  -4.357  0.00  0.00    +0.004 A 
BRANCH   7  14
ATOM     13  C   UNL     1      -8.823  -1.176  -5.497  0.00  0.00    +0.009 C 
ATOM     14  C   UNL     1      -7.485  -0.473  -5.257  0.00  0.00    +0.032 C 
ENDBRANCH   7  14
ENDBRANCH   6  10
BRANCH   6  17
ATOM     15  C   UNL     1     -10.432   3.290  -1.121  0.00  0.00    -0.096 C 
ATOM     16  C   UNL     1      -9.291   5.149  -0.069  0.00  0.00    -0.096 C 
ATOM     17  N   UNL     1      -9.201   4.108  -1.114  0.00  0.00    +0.382 N 
ATOM     18  H   UNL     1      -9.097   4.562  -2.029  0.00  0.00    -0.082 HD
ENDBRANCH   6  17
ENDBRANCH   5   6
ENDBRANCH   1   5
BRANCH   2  19
ATOM     19  C   UNL     1      -3.177   2.971  -0.164  0.00  0.00    +0.163 C 
BRANCH  19  20
ATOM     20  N   UNL     1      -1.964   3.626  -0.660  0.00  0.00    -0.299 N 
ATOM     21  C   UNL     1      -1.619   4.844  -0.196  0.00  0.00    +0.251 C 
ATOM     22  O   UNL     1      -2.314   5.398   0.635  0.00  0.00    -0.270 OA
ATOM     23  H   UNL     1      -1.410   3.184  -1.322  0.00  0.00    +0.150 HD
BRANCH  21  24
ATOM     24  C   UNL     1      -0.405   5.500  -0.692  0.00  0.00    +0.074 A 
ATOM     25  C   UNL     1       0.122   6.735  -0.350  0.00  0.00    +0.021 A 
ATOM     26  C   UNL     1       1.286   7.112  -0.972  0.00  0.00    +0.008 A 
ATOM     27  C   UNL     1       1.856   6.274  -1.878  0.00  0.00    +0.046 A 
ATOM     28  S   UNL     1       0.781   4.913  -1.888  0.00  0.00    -0.092 S 
ENDBRANCH  21  24
ENDBRANCH  19  20
BRANCH  19  29
ATOM     29  C   UNL     1      -3.067   2.772   1.349  0.00  0.00    +0.067 C 
BRANCH  29  30
ATOM     30  C   UNL     1      -1.944   1.813   1.649  0.00  0.00    -0.045 A 
ATOM     31  C   UNL     1      -2.194   0.455   1.717  0.00  0.00    +0.004 A 
ATOM     32  C   UNL     1      -1.165  -0.424   1.997  0.00  0.00    +0.000 A 
ATOM     33  C   UNL     1       0.116   0.054   2.200  0.00  0.00    +0.000 A 
ATOM     34  C   UNL     1       0.367   1.411   2.127  0.00  0.00    +0.000 A 
ATOM     35  C   UNL     1      -0.663   2.291   1.852  0.00  0.00    +0.004 A 
ENDBRANCH  29  30
ENDBRANCH  19  29
ENDBRANCH   2  19
TORSDOF 10
