REMARK  Name = ZINC52551502
REMARK  6 active torsions:
REMARK  status: ('A' for Active; 'I' for Inactive)
REMARK    1  A    between atoms: C_4  and  O_20
REMARK    2  A    between atoms: C_6  and  O_7
REMARK    3  A    between atoms: O_7  and  C_8
REMARK    4  A    between atoms: C_8  and  C_9
REMARK    5  A    between atoms: O_20  and  C_21
REMARK    6  A    between atoms: C_23  and  C_28
REMARK                            x       y       z     vdW  Elec       q    Type
REMARK                         _______ _______ _______ _____ _____    ______ ____
ROOT
ATOM      1  C   UNL     1       0.152   1.446   0.930  0.00  0.00    +0.047 A 
ATOM      2  C   UNL     1       1.278   2.131   0.514  0.00  0.00    +0.027 A 
ATOM      3  C   UNL     1       2.430   1.438   0.190  0.00  0.00    +0.083 A 
ATOM      4  C   UNL     1       2.458   0.053   0.283  0.00  0.00    +0.150 A 
ATOM      5  C   UNL     1       1.329  -0.635   0.700  0.00  0.00    +0.093 A 
ATOM      6  C   UNL     1       0.175   0.062   1.024  0.00  0.00    +0.124 A 
ATOM      7 CL   UNL     1       3.843   2.301  -0.333  0.00  0.00    -0.080 Cl
ENDROOT
BRANCH   6   8
ATOM      8  O   UNL     1      -0.933  -0.610   1.434  0.00  0.00    -0.489 OA
BRANCH   8   9
ATOM      9  C   UNL     1      -2.086   0.173   1.752  0.00  0.00    +0.260 C 
BRANCH   9  10
ATOM     10  C   UNL     1      -3.224  -0.751   2.191  0.00  0.00    +0.170 C 
ATOM     11  C   UNL     1      -4.477   0.044   2.471  0.00  0.00    +0.025 A 
ATOM     12  C   UNL     1      -5.303   0.855   1.728  0.00  0.00    +0.013 A 
ATOM     13  C   UNL     1      -6.397   1.429   2.358  0.00  0.00    +0.044 A 
ATOM     14  C   UNL     1      -6.614   1.161   3.709  0.00  0.00    +0.119 A 
ATOM     15  N   UNL     1      -5.800   0.377   4.391  0.00  0.00    -0.212 NA
ATOM     16  C   UNL     1      -4.738  -0.193   3.823  0.00  0.00    +0.179 A 
ATOM     17  N   UNL     1      -3.771  -1.025   4.313  0.00  0.00    -0.158 NA
ATOM     18  N   UNL     1      -2.918  -1.372   3.490  0.00  0.00    -0.296 N 
ATOM     19  N   UNL     1      -7.707   1.732   4.349  0.00  0.00    -0.343 N 
ATOM     20  H   UNL     1      -8.311   2.309   3.857  0.00  0.00    +0.144 HD
ATOM     21  H   UNL     1      -7.867   1.552   5.289  0.00  0.00    +0.144 HD
ATOM     22  H   UNL     1      -2.167  -1.959   3.670  0.00  0.00    +0.183 HD
ENDBRANCH   9  10
ENDBRANCH   8   9
ENDBRANCH   6   8
BRANCH   4  23
ATOM     23  O   UNL     1       3.590  -0.628  -0.036  0.00  0.00    -0.454 OA
BRANCH  23  24
ATOM     24  C   UNL     1       3.568  -1.984   0.061  0.00  0.00    +0.131 A 
ATOM     25  C   UNL     1       3.192  -2.749  -1.030  0.00  0.00    +0.065 A 
ATOM     26  C   UNL     1       3.171  -4.141  -0.927  0.00  0.00    +0.057 A 
ATOM     27  C   UNL     1       3.530  -4.752   0.277  0.00  0.00    +0.039 A 
ATOM     28  C   UNL     1       3.903  -3.979   1.358  0.00  0.00    +0.046 A 
ATOM     29  C   UNL     1       3.928  -2.600   1.252  0.00  0.00    +0.066 A 
ATOM     30 CL   UNL     1       4.348  -4.740   2.853  0.00  0.00    -0.083 Cl
BRANCH  26  31
ATOM     31  C   UNL     1       2.783  -4.939  -2.051  0.00  0.00    +0.099 C 
ATOM     32  N   UNL     1       2.475  -5.572  -2.942  0.00  0.00    -0.191 NA
ENDBRANCH  26  31
ENDBRANCH  23  24
ENDBRANCH   4  23
TORSDOF 6
