REMARK  Name = ZINC67249157
REMARK  9 active torsions:
REMARK  status: ('A' for Active; 'I' for Inactive)
REMARK    1  A    between atoms: N_4  and  C_8
REMARK    2  A    between atoms: C_8  and  C_9
REMARK    3  A    between atoms: C_12  and  C_15
REMARK    4  A    between atoms: C_15  and  N_16
REMARK    5  A    between atoms: N_16  and  C_17
REMARK    6  A    between atoms: C_17  and  C_18
REMARK    7  A    between atoms: C_21  and  O_24
REMARK    8  A    between atoms: O_24  and  C_25
REMARK    9  A    between atoms: C_25  and  C_26
REMARK                            x       y       z     vdW  Elec       q    Type
REMARK                         _______ _______ _______ _____ _____    ______ ____
ROOT
ATOM      1  N   UNL     1       4.413  -1.100   6.327  0.00  0.00    +0.384 N 
ATOM      2  H   UNL     1       4.315  -0.107   6.176  0.00  0.00    -0.085 HD
ATOM      3  H   UNL     1       3.524  -1.552   6.173  0.00  0.00    -0.085 HD
ENDROOT
BRANCH   1   4
ATOM      4  C   UNL     1       5.406  -1.643   5.390  0.00  0.00    -0.046 C 
BRANCH   4   8
ATOM      5  C   UNL     1       4.121  -0.932   1.379  0.00  0.00    -0.028 A 
ATOM      6  C   UNL     1       4.903   0.004   2.030  0.00  0.00    +0.005 A 
ATOM      7  C   UNL     1       5.319  -0.226   3.328  0.00  0.00    +0.002 A 
ATOM      8  C   UNL     1       4.952  -1.391   3.975  0.00  0.00    -0.064 A 
ATOM      9  C   UNL     1       4.169  -2.326   3.324  0.00  0.00    +0.002 A 
ATOM     10  C   UNL     1       3.750  -2.095   2.028  0.00  0.00    +0.005 A 
BRANCH   5  11
ATOM     11  C   UNL     1       3.668  -0.681  -0.037  0.00  0.00    +0.160 C 
BRANCH  11  15
ATOM     12  C   UNL     1      -0.016   1.360   0.009  0.00  0.00    +0.007 A 
ATOM     13  C   UNL     1       1.197   2.062   0.002  0.00  0.00    +0.018 A 
ATOM     14  C   UNL     1       2.369   1.385  -0.013  0.00  0.00    +0.089 A 
ATOM     15  N   UNL     1       2.385   0.027  -0.021  0.00  0.00    -0.311 N 
ATOM     16  C   UNL     1       1.237  -0.675  -0.014  0.00  0.00    +0.252 A 
ATOM     17  O   UNL     1       1.268  -1.895  -0.021  0.00  0.00    -0.268 OA
ATOM     18  C   UNL     1       0.002  -0.004   0.002  0.00  0.00    +0.070 A 
ENDBRANCH  11  15
ENDBRANCH   5  11
ENDBRANCH   4   8
ENDBRANCH   1   4
BRANCH   1  19
ATOM     19  C   UNL     1       4.855  -1.345   7.706  0.00  0.00    -0.046 C 
BRANCH  19  20
ATOM     20  C   UNL     1       3.836  -0.788   8.666  0.00  0.00    -0.064 A 
ATOM     21  C   UNL     1       3.942   0.519   9.104  0.00  0.00    +0.005 A 
ATOM     22  C   UNL     1       3.010   1.032   9.985  0.00  0.00    +0.046 A 
ATOM     23  C   UNL     1       1.966   0.234  10.431  0.00  0.00    +0.121 A 
ATOM     24  C   UNL     1       1.862  -1.078   9.990  0.00  0.00    +0.046 A 
ATOM     25  C   UNL     1       2.794  -1.584   9.105  0.00  0.00    +0.005 A 
BRANCH  23  26
ATOM     26  O   UNL     1       1.048   0.735  11.298  0.00  0.00    -0.483 OA
BRANCH  26  27
ATOM     27  C   UNL     1       0.001  -0.144  11.714  0.00  0.00    +0.324 C 
BRANCH  27  28
ATOM     28  C   UNL     1      -0.914   0.581  12.667  0.00  0.00    +0.248 C 
ATOM     29  O   UNL     1      -0.692   1.737  12.960  0.00  0.00    -0.272 OA
ATOM     30  N   UNL     1      -1.980  -0.054  13.193  0.00  0.00    -0.327 N 
ATOM     31  H   UNL     1      -2.158  -0.979  12.958  0.00  0.00    +0.145 HD
ATOM     32  H   UNL     1      -2.569   0.412  13.806  0.00  0.00    +0.145 HD
ENDBRANCH  27  28
ENDBRANCH  26  27
ENDBRANCH  23  26
ENDBRANCH  19  20
ENDBRANCH   1  19
TORSDOF 9
