REMARK  Name = ZINC36066252
REMARK  8 active torsions:
REMARK  status: ('A' for Active; 'I' for Inactive)
REMARK    1  A    between atoms: C_1  and  C_2
REMARK    2  A    between atoms: C_2  and  C_3
REMARK    3  A    between atoms: C_3  and  C_5
REMARK    4  A    between atoms: C_3  and  N_6
REMARK    5  A    between atoms: C_7  and  C_32
REMARK    6  A    between atoms: C_15  and  C_21
REMARK    7  A    between atoms: N_23  and  C_24
REMARK    8  A    between atoms: N_34  and  C_35
REMARK                            x       y       z     vdW  Elec       q    Type
REMARK                         _______ _______ _______ _____ _____    ______ ____
ROOT
ATOM      1  N   UNL     1      -2.723  -0.385  -1.041  0.00  0.00    -0.284 N 
ATOM      2  C   UNL     1      -3.903   0.510  -1.258  0.00  0.00    +0.199 C 
ATOM      3  C   UNL     1      -4.302   0.161  -2.658  0.00  0.00    +0.127 C 
ATOM      4  C   UNL     1      -4.933  -1.215  -2.765  0.00  0.00    +0.009 C 
ATOM      5  C   UNL     1      -5.236  -1.373  -4.045  0.00  0.00    +0.004 C 
ATOM      6  C   UNL     1      -4.727  -0.100  -4.734  0.00  0.00    +0.155 C 
ATOM      7  O   UNL     1      -4.937   0.914  -3.665  0.00  0.00    -0.358 OA
ATOM      8  C   UNL     1      -3.163  -0.314  -4.712  0.00  0.00    +0.123 C 
ATOM      9  C   UNL     1      -2.847   0.100  -3.275  0.00  0.00    +0.128 C 
ATOM     10  C   UNL     1      -2.159  -0.707  -2.252  0.00  0.00    +0.224 C 
ATOM     11  O   UNL     1      -1.266  -1.505  -2.443  0.00  0.00    -0.275 OA
ENDROOT
BRANCH   8  12
ATOM     12  C   UNL     1      -2.811  -1.756  -4.970  0.00  0.00    +0.224 C 
ATOM     13  O   UNL     1      -2.217  -2.396  -4.128  0.00  0.00    -0.275 OA
ATOM     14  N   UNL     1      -3.155  -2.335  -6.138  0.00  0.00    -0.285 N 
ATOM     15  H   UNL     1      -3.695  -1.849  -6.780  0.00  0.00    +0.155 HD
BRANCH  14  16
ATOM     16  C   UNL     1      -2.732  -3.638  -6.423  0.00  0.00    +0.036 A 
ATOM     17  C   UNL     1      -3.539  -4.481  -7.176  0.00  0.00    +0.043 A 
ATOM     18  C   UNL     1      -3.119  -5.768  -7.458  0.00  0.00    +0.044 A 
ATOM     19  C   UNL     1      -1.896  -6.216  -6.990  0.00  0.00    +0.040 A 
ATOM     20  C   UNL     1      -1.091  -5.378  -6.239  0.00  0.00    +0.044 A 
ATOM     21  C   UNL     1      -1.504  -4.088  -5.959  0.00  0.00    +0.043 A 
ATOM     22 CL   UNL     1       0.442  -5.944  -5.653  0.00  0.00    -0.083 Cl
ATOM     23 CL   UNL     1      -4.127  -6.823  -8.398  0.00  0.00    -0.083 Cl
ENDBRANCH  14  16
ENDBRANCH   8  12
BRANCH   2  24
ATOM     24  C   UNL     1      -5.008   0.190  -0.286  0.00  0.00    +0.237 C 
ATOM     25  O   UNL     1      -5.020  -0.878   0.289  0.00  0.00    -0.274 OA
ATOM     26  N   UNL     1      -5.985   1.090  -0.055  0.00  0.00    -0.311 N 
ATOM     27  H   UNL     1      -5.975   1.944  -0.514  0.00  0.00    +0.149 HD
BRANCH  26  28
ATOM     28  C   UNL     1      -7.060   0.778   0.890  0.00  0.00    +0.073 C 
ATOM     29  C   UNL     1      -8.158  -0.009   0.172  0.00  0.00    +0.022 C 
ATOM     30  C   UNL     1      -9.280  -0.335   1.159  0.00  0.00    +0.002 C 
ATOM     31  C   UNL     1      -9.865   0.966   1.714  0.00  0.00    +0.000 C 
ATOM     32  C   UNL     1      -8.767   1.753   2.432  0.00  0.00    +0.002 C 
ATOM     33  C   UNL     1      -7.645   2.079   1.444  0.00  0.00    +0.022 C 
ENDBRANCH  26  28
ENDBRANCH   2  24
BRANCH   1  34
ATOM     34  C   UNL     1      -2.240  -0.844   0.264  0.00  0.00    +0.074 C 
ATOM     35  C   UNL     1      -2.283  -2.373   0.315  0.00  0.00    +0.028 C 
BRANCH  34  37
ATOM     36  C   UNL     1      -0.777   1.161   0.545  0.00  0.00    +0.005 C 
ATOM     37  C   UNL     1      -0.802  -0.367   0.472  0.00  0.00    +0.019 C 
ENDBRANCH  34  37
ENDBRANCH   1  34
TORSDOF 6
