REMARK  Name = ZINC35778835
REMARK  19 active torsions:
REMARK  status: ('A' for Active; 'I' for Inactive)
REMARK    1  A    between atoms: C_1  and  C_2
REMARK    2  A    between atoms: C_2  and  C_3
REMARK    3  A    between atoms: C_3  and  N_4
REMARK    4  A    between atoms: N_4  and  C_5
REMARK    5  A    between atoms: N_4  and  C_15
REMARK    6  A    between atoms: C_5  and  C_6
REMARK    7  A    between atoms: C_6  and  C_8
REMARK    8  A    between atoms: C_6  and  O_14
REMARK    9  A    between atoms: C_8  and  O_9
REMARK   10  A    between atoms: O_9  and  C_10
REMARK   11  A    between atoms: C_10  and  C_11
REMARK   12  A    between atoms: C_10  and  C_12
REMARK   13  A    between atoms: C_10  and  C_13
REMARK   14  A    between atoms: C_15  and  C_16
REMARK   15  A    between atoms: C_26  and  C_28
REMARK   16  A    between atoms: C_28  and  O_29
REMARK   17  A    between atoms: O_29  and  C_30
REMARK   18  A    between atoms: C_34  and  O_36
REMARK   19  A    between atoms: O_36  and  C_37
REMARK                            x       y       z     vdW  Elec       q    Type
REMARK                         _______ _______ _______ _____ _____    ______ ____
ROOT
ATOM      1  C   UNL     1      -3.245  -2.043  -1.718  0.00  0.00    +0.200 C 
ATOM      2  O   UNL     1      -2.559  -1.284  -2.368  0.00  0.00    -0.278 OA
ATOM      3  N   UNL     1      -4.451  -2.427  -2.182  0.00  0.00    -0.292 N 
ATOM      4  C   UNL     1      -5.294  -3.343  -1.399  0.00  0.00    +0.113 C 
ATOM      5  C   UNL     1      -6.566  -2.590  -0.981  0.00  0.00    +0.061 C 
ATOM      6  C   UNL     1      -7.061  -1.801  -2.149  0.00  0.00    -0.004 A 
ATOM      7  C   UNL     1      -6.385  -1.473  -3.283  0.00  0.00    -0.014 A 
ATOM      8  C   UNL     1      -7.076  -0.715  -4.227  0.00  0.00    +0.013 A 
ATOM      9  C   UNL     1      -8.357  -0.348  -3.993  0.00  0.00    +0.046 A 
ATOM     10  S   UNL     1      -8.660  -1.072  -2.388  0.00  0.00    -0.101 S 
ATOM     11  C   UNL     1      -4.944  -1.931  -3.474  0.00  0.00    +0.144 C 
ENDROOT
BRANCH   1  12
ATOM     12  C   UNL     1      -2.749  -2.559  -0.391  0.00  0.00    +0.019 C 
BRANCH  12  13
ATOM     13  N   UNL     1      -1.420  -1.997  -0.114  0.00  0.00    +0.387 N 
ATOM     14  H   UNL     1      -0.800  -2.204  -0.883  0.00  0.00    -0.081 HD
BRANCH  13  15
ATOM     15  C   UNL     1      -1.528  -0.542   0.050  0.00  0.00    -0.078 C 
BRANCH  15  17
ATOM     16  C   UNL     1      -0.232   1.587   0.228  0.00  0.00    +0.002 C 
ATOM     17  C   UNL     1      -0.129   0.061   0.191  0.00  0.00    -0.022 C 
ENDBRANCH  15  17
ENDBRANCH  13  15
BRANCH  13  18
ATOM     18  C   UNL     1      -0.885  -2.591   1.119  0.00  0.00    -0.044 C 
BRANCH  18  19
ATOM     19  C   UNL     1      -0.634  -4.084   0.899  0.00  0.00    +0.124 C 
BRANCH  19  20
ATOM     20  O   UNL     1       0.312  -4.257  -0.158  0.00  0.00    -0.391 OA
ATOM     21  H   UNL     1       1.193  -3.911   0.042  0.00  0.00    +0.210 HD
ENDBRANCH  19  20
BRANCH  19  22
ATOM     22  C   UNL     1      -0.081  -4.703   2.184  0.00  0.00    +0.189 C 
BRANCH  22  23
ATOM     23  O   UNL     1       0.044  -6.117   2.016  0.00  0.00    -0.372 OA
BRANCH  23  24
ATOM     24  C   UNL     1       0.554  -6.795   3.166  0.00  0.00    +0.061 C 
ATOM     25  C   UNL     1      -0.382  -6.563   4.353  0.00  0.00    +0.041 C 
ATOM     26  C   UNL     1       0.646  -8.294   2.874  0.00  0.00    +0.041 C 
ATOM     27  C   UNL     1       1.946  -6.255   3.501  0.00  0.00    +0.041 C 
ENDBRANCH  23  24
ENDBRANCH  22  23
ENDBRANCH  19  22
ENDBRANCH  18  19
ENDBRANCH  13  18
ENDBRANCH  12  13
ENDBRANCH   1  12
BRANCH  11  28
ATOM     28  C   UNL     1      -4.895  -3.053  -4.512  0.00  0.00    +0.256 C 
BRANCH  28  29
ATOM     29  O   UNL     1      -5.805  -4.090  -4.137  0.00  0.00    -0.490 OA
BRANCH  29  30
ATOM     30  C   UNL     1      -5.884  -5.169  -4.959  0.00  0.00    +0.124 A 
ATOM     31  C   UNL     1      -5.097  -5.231  -6.101  0.00  0.00    +0.046 A 
ATOM     32  C   UNL     1      -5.177  -6.327  -6.938  0.00  0.00    +0.007 A 
ATOM     33  C   UNL     1      -6.040  -7.365  -6.640  0.00  0.00    +0.046 A 
ATOM     34  C   UNL     1      -6.828  -7.308  -5.500  0.00  0.00    +0.124 A 
ATOM     35  C   UNL     1      -6.745  -6.211  -4.655  0.00  0.00    +0.091 A 
BRANCH  34  36
ATOM     36  O   UNL     1      -7.677  -8.328  -5.207  0.00  0.00    -0.495 OA
ATOM     37  C   UNL     1      -7.706  -9.429  -6.119  0.00  0.00    +0.277 C 
ENDBRANCH  34  36
ENDBRANCH  29  30
ENDBRANCH  28  29
ENDBRANCH  11  28
TORSDOF 14
