REMARK  Name = ZINC20018808
REMARK  5 active torsions:
REMARK  status: ('A' for Active; 'I' for Inactive)
REMARK    1  A    between atoms: C_4  and  C_7
REMARK    2  A    between atoms: C_7  and  C_8
REMARK    3  A    between atoms: C_7  and  N_14
REMARK    4  A    between atoms: N_17  and  C_20
REMARK    5  A    between atoms: C_20  and  C_21
REMARK                            x       y       z     vdW  Elec       q    Type
REMARK                         _______ _______ _______ _____ _____    ______ ____
ROOT
ATOM      1  N   UNL     1      -3.210  -1.641  -7.784  0.00  0.00    -0.295 NA
ATOM      2  C   UNL     1      -3.741  -0.276  -7.661  0.00  0.00    +0.067 C 
ATOM      3  C   UNL     1      -2.640   0.651  -7.140  0.00  0.00    -0.063 C 
ATOM      4  N   UNL     1      -2.160   0.157  -5.842  0.00  0.00    +0.386 N 
ATOM      5  C   UNL     1      -1.630  -1.208  -5.965  0.00  0.00    -0.063 C 
ATOM      6  C   UNL     1      -2.730  -2.135  -6.485  0.00  0.00    +0.067 C 
ATOM      7  H   UNL     1      -3.017   0.128  -5.152  0.00  0.00    -0.081 HD
ENDROOT
BRANCH   1   8
ATOM      8  C   UNL     1      -4.216  -2.548  -8.353  0.00  0.00    +0.117 C 
BRANCH   8  12
ATOM      9  C   UNL     1      -5.198  -1.280 -12.312  0.00  0.00    +0.000 A 
ATOM     10  C   UNL     1      -6.201  -1.660 -11.439  0.00  0.00    +0.000 A 
ATOM     11  C   UNL     1      -5.883  -2.070 -10.158  0.00  0.00    +0.005 A 
ATOM     12  C   UNL     1      -4.563  -2.101  -9.749  0.00  0.00    -0.026 A 
ATOM     13  C   UNL     1      -3.561  -1.715 -10.620  0.00  0.00    +0.005 A 
ATOM     14  C   UNL     1      -3.878  -1.309 -11.903  0.00  0.00    +0.000 A 
ENDBRANCH   8  12
BRANCH   8  15
ATOM     15  C   UNL     1      -3.662  -3.949  -8.397  0.00  0.00    -0.026 A 
ATOM     16  C   UNL     1      -2.380  -4.170  -8.863  0.00  0.00    +0.005 A 
ATOM     17  C   UNL     1      -1.870  -5.455  -8.899  0.00  0.00    +0.000 A 
ATOM     18  C   UNL     1      -2.646  -6.519  -8.478  0.00  0.00    +0.000 A 
ATOM     19  C   UNL     1      -3.930  -6.298  -8.018  0.00  0.00    +0.000 A 
ATOM     20  C   UNL     1      -4.438  -5.013  -7.977  0.00  0.00    +0.005 A 
ENDBRANCH   8  15
ENDBRANCH   1   8
BRANCH   4  21
ATOM     21  C   UNL     1      -1.154   1.064  -5.273  0.00  0.00    -0.001 C 
BRANCH  21  22
ATOM     22  C   UNL     1      -0.867   0.665  -3.848  0.00  0.00    +0.120 A 
ATOM     23  N   UNL     1       0.092  -0.206  -3.588  0.00  0.00    -0.202 NA
ATOM     24  C   UNL     1       0.348  -0.561  -2.331  0.00  0.00    +0.217 A 
ATOM     25  N   UNL     1      -0.361  -0.038  -1.337  0.00  0.00    -0.181 NA
ATOM     26  C   UNL     1      -1.325   0.837  -1.603  0.00  0.00    +0.222 A 
ATOM     27  N   UNL     1      -1.579   1.183  -2.863  0.00  0.00    -0.201 NA
ATOM     28  N   UNL     1      -2.064   1.383  -0.574  0.00  0.00    -0.300 N 
ATOM     29  C   UNL     1      -1.623   0.862   0.726  0.00  0.00    +0.108 C 
ATOM     30  C   UNL     1      -2.556   1.374   1.826  0.00  0.00    +0.019 C 
ATOM     31  C   UNL     1      -2.534   2.905   1.835  0.00  0.00    +0.003 C 
ATOM     32  C   UNL     1      -2.950   3.422   0.456  0.00  0.00    +0.019 C 
ATOM     33  C   UNL     1      -2.006   2.850  -0.605  0.00  0.00    +0.108 C 
ATOM     34  N   UNL     1       1.350  -1.471  -2.061  0.00  0.00    -0.327 N 
ATOM     35  H   UNL     1       1.562  -1.763  -1.022  0.00  0.00    +0.145 HD
ATOM     36  H   UNL     1       1.938  -1.903  -2.884  0.00  0.00    +0.145 HD
ENDBRANCH  21  22
ENDBRANCH   4  21
TORSDOF 5
