REMARK  Name = ZINC14378178
REMARK  3 active torsions:
REMARK  status: ('A' for Active; 'I' for Inactive)
REMARK    1  A    between atoms: C_1  and  C_2
REMARK    2  A    between atoms: N_11  and  C_15
REMARK    3  A    between atoms: C_15  and  C_16
REMARK                            x       y       z     vdW  Elec       q    Type
REMARK                         _______ _______ _______ _____ _____    ______ ____
ROOT
ATOM      1  C   UNL     1       5.656   1.587   0.600  0.00  0.00    +0.010 C 
ATOM      2  C   UNL     1       5.460   0.140   1.059  0.00  0.00    +0.018 C 
ATOM      3  C   UNL     1       5.535   0.075   2.586  0.00  0.00    +0.006 C 
ATOM      4  C   UNL     1       5.318  -1.369   3.045  0.00  0.00    +0.000 C 
ATOM      5  C   UNL     1       3.938  -1.847   2.591  0.00  0.00    +0.003 C 
ATOM      6  C   UNL     1       3.856  -1.790   1.063  0.00  0.00    +0.035 C 
ATOM      7  C   UNL     1       4.097  -0.360   0.592  0.00  0.00    +0.115 C 
ATOM      8  C   UNL     1       3.004   0.556   1.092  0.00  0.00    +0.247 C 
ATOM      9  O   UNL     1       2.721   0.801   2.246  0.00  0.00    -0.273 OA
ATOM     10  N   UNL     1       2.407   1.043  -0.015  0.00  0.00    -0.215 N 
ATOM     11  C   UNL     1       2.975   0.568  -1.131  0.00  0.00    +0.310 C 
ATOM     12  O   UNL     1       2.613   0.865  -2.252  0.00  0.00    -0.252 OA
ATOM     13  N   UNL     1       3.991  -0.276  -0.870  0.00  0.00    -0.285 N 
ATOM     14  H   UNL     1       4.545  -0.737  -1.520  0.00  0.00    +0.151 HD
ENDROOT
BRANCH  10  15
ATOM     15  C   UNL     1       1.280   1.980   0.001  0.00  0.00    +0.214 C 
BRANCH  15  16
ATOM     16  C   UNL     1      -0.014   1.209   0.009  0.00  0.00    +0.237 C 
ATOM     17  O   UNL     1       0.002  -0.004   0.002  0.00  0.00    -0.274 OA
ATOM     18  N   UNL     1      -1.191   1.867   0.018  0.00  0.00    -0.263 N 
ATOM     19  C   UNL     1      -2.385   1.155   0.020  0.00  0.00    +0.165 A 
ATOM     20  N   UNL     1      -2.572  -0.148   0.008  0.00  0.00    -0.229 NA
ATOM     21  C   UNL     1      -3.787  -0.690   0.016  0.00  0.00    +0.054 A 
ATOM     22  C   UNL     1      -4.828   0.182   0.025  0.00  0.00    +0.014 A 
ATOM     23  S   UNL     1      -4.016   1.758   0.031  0.00  0.00    -0.057 S 
ATOM     24  C   UNL     1      -6.286  -0.132   0.029  0.00  0.00    +0.044 C 
ATOM     25  C   UNL     1      -6.460  -1.612  -0.347  0.00  0.00    +0.006 C 
ATOM     26  C   UNL     1      -5.478  -2.448   0.479  0.00  0.00    +0.006 C 
ATOM     27  C   UNL     1      -4.045  -2.193   0.009  0.00  0.00    +0.056 C 
ATOM     28  H   UNL     1      -1.204   2.837   0.023  0.00  0.00    +0.157 HD
ENDBRANCH  15  16
ENDBRANCH  10  15
TORSDOF 2
