REMARK  Name = ZINC38288272
REMARK  10 active torsions:
REMARK  status: ('A' for Active; 'I' for Inactive)
REMARK    1  A    between atoms: C_1  and  C_2
REMARK    2  A    between atoms: C_3  and  N_9
REMARK    3  A    between atoms: C_10  and  C_12
REMARK    4  A    between atoms: C_15  and  C_35
REMARK    5  A    between atoms: C_16  and  C_17
REMARK    6  A    between atoms: C_16  and  C_18
REMARK    7  A    between atoms: N_20  and  O_21
REMARK    8  A    between atoms: O_21  and  C_22
REMARK    9  A    between atoms: C_22  and  C_24
REMARK   10  A    between atoms: C_28  and  N_30
REMARK                            x       y       z     vdW  Elec       q    Type
REMARK                         _______ _______ _______ _____ _____    ______ ____
ROOT
ATOM      1  C   UNL     1       0.192   0.111  -4.876  0.00  0.00    +0.058 C 
ATOM      2  C   UNL     1      -1.030   1.012  -5.234  0.00  0.00    +0.018 C 
ATOM      3  C   UNL     1      -0.897   1.257  -6.755  0.00  0.00    +0.014 C 
ATOM      4  C   UNL     1       0.387   0.474  -7.168  0.00  0.00    +0.015 C 
ATOM      5  C   UNL     1       0.311  -0.747  -6.186  0.00  0.00    -0.010 C 
ATOM      6  C   UNL     1      -0.941  -1.589  -6.438  0.00  0.00    +0.013 C 
ATOM      7  C   UNL     1       1.582  -1.599  -6.202  0.00  0.00    +0.013 C 
ATOM      8  C   UNL     1       1.542   1.273  -6.548  0.00  0.00    +0.066 C 
ATOM      9  N   UNL     1       2.417   1.976  -7.162  0.00  0.00    -0.083 NA
ATOM     10  C   UNL     1       1.438   1.035  -5.037  0.00  0.00    +0.071 C 
ATOM     11  C   UNL     1       0.513   0.137  -8.655  0.00  0.00    +0.018 C 
ENDROOT
BRANCH   1  13
ATOM     12  N   UNL     1      -0.010   0.011  -2.413  0.00  0.00    -0.285 N 
ATOM     13  C   UNL     1       0.095  -0.653  -3.581  0.00  0.00    +0.224 C 
ATOM     14  O   UNL     1       0.112  -1.866  -3.590  0.00  0.00    -0.275 OA
ATOM     15  H   UNL     1      -0.104   0.977  -2.411  0.00  0.00    +0.155 HD
BRANCH  12  18
ATOM     16  C   UNL     1      -1.263   1.190  -0.146  0.00  0.00    +0.047 C 
ATOM     17  C   UNL     1      -0.583  -0.153  -0.073  0.00  0.00    -0.011 A 
ATOM     18  C   UNL     1       0.017  -0.692  -1.204  0.00  0.00    +0.038 A 
ATOM     19  C   UNL     1       0.642  -1.929  -1.132  0.00  0.00    +0.023 A 
ATOM     20  C   UNL     1       0.667  -2.621   0.064  0.00  0.00    +0.003 A 
ATOM     21  C   UNL     1       0.069  -2.084   1.188  0.00  0.00    +0.020 A 
ATOM     22  C   UNL     1      -0.550  -0.848   1.122  0.00  0.00    +0.046 A 
ATOM     23 CL   UNL     1      -1.293  -0.173   2.538  0.00  0.00    -0.083 Cl
ENDBRANCH  12  18
ENDBRANCH   1  13
BRANCH   9  24
ATOM     24  O   UNL     1       2.379   2.078  -8.574  0.00  0.00    -0.312 OA
BRANCH  24  25
ATOM     25  C   UNL     1       3.355   2.848  -9.094  0.00  0.00    +0.366 C 
ATOM     26  O   UNL     1       4.164   3.380  -8.361  0.00  0.00    -0.243 OA
BRANCH  25  27
ATOM     27  C   UNL     1       3.440   3.044 -10.555  0.00  0.00    +0.064 A 
ATOM     28  C   UNL     1       2.507   2.438 -11.400  0.00  0.00    +0.016 A 
ATOM     29  C   UNL     1       2.592   2.626 -12.763  0.00  0.00    +0.023 A 
ATOM     30  C   UNL     1       3.600   3.413 -13.295  0.00  0.00    +0.071 A 
ATOM     31  C   UNL     1       4.528   4.017 -12.463  0.00  0.00    +0.145 A 
ATOM     32  C   UNL     1       4.450   3.842 -11.097  0.00  0.00    +0.049 A 
ATOM     33 CL   UNL     1       3.701   3.644 -15.013  0.00  0.00    -0.081 Cl
BRANCH  31  34
ATOM     34  N   UNL     1       5.602   4.856 -13.040  0.00  0.00    +0.058 N 
ATOM     35  O   UNL     1       6.413   5.383 -12.314  0.00  0.00    -0.126 OA
ATOM     36  O   UNL     1       5.669   5.014 -14.236  0.00  0.00    -0.126 OA
ENDBRANCH  31  34
ENDBRANCH  25  27
ENDBRANCH  24  25
ENDBRANCH   9  24
TORSDOF 6
