REMARK  Name = ZINC39652659
REMARK  9 active torsions:
REMARK  status: ('A' for Active; 'I' for Inactive)
REMARK    1  A    between atoms: C_1  and  C_2
REMARK    2  A    between atoms: C_2  and  O_3
REMARK    3  A    between atoms: O_3  and  C_4
REMARK    4  A    between atoms: C_9  and  C_10
REMARK    5  A    between atoms: C_10  and  C_11
REMARK    6  A    between atoms: C_11  and  N_12
REMARK    7  A    between atoms: C_13  and  C_15
REMARK    8  A    between atoms: C_26  and  C_28
REMARK    9  A    between atoms: C_30  and  C_35
REMARK                            x       y       z     vdW  Elec       q    Type
REMARK                         _______ _______ _______ _____ _____    ______ ____
ROOT
ATOM      1  C   UNL     1       5.805   1.724  -5.528  0.00  0.00    +0.100 C 
ATOM      2  C   UNL     1       4.770   2.862  -5.392  0.00  0.00    +0.121 C 
ATOM      3  N   UNL     1       5.392   3.824  -4.452  0.00  0.00    -0.296 N 
ATOM      4  C   UNL     1       6.824   3.840  -4.835  0.00  0.00    +0.115 C 
ATOM      5  C   UNL     1       7.153   2.370  -5.165  0.00  0.00    -0.004 C 
ATOM      6  C   UNL     1       7.759   1.679  -3.947  0.00  0.00    -0.010 C 
ATOM      7  C   UNL     1       9.124   2.302  -3.640  0.00  0.00    -0.082 C 
ATOM      8  N   UNL     1      10.006   2.149  -4.804  0.00  0.00    +0.379 N 
ATOM      9  C   UNL     1       9.462   2.893  -5.946  0.00  0.00    -0.082 C 
ATOM     10  C   UNL     1       8.111   2.296  -6.350  0.00  0.00    -0.010 C 
ATOM     11  C   UNL     1       4.792   4.526  -3.471  0.00  0.00    +0.247 C 
ATOM     12  O   UNL     1       3.628   4.312  -3.194  0.00  0.00    -0.270 OA
ATOM     13  H   UNL     1      10.923   2.505  -4.578  0.00  0.00    -0.086 HD
ATOM     14  H   UNL     1      10.077   1.172  -5.044  0.00  0.00    -0.086 HD
ENDROOT
BRANCH  11  15
ATOM     15  C   UNL     1       5.550   5.558  -2.730  0.00  0.00    +0.040 A 
ATOM     16  C   UNL     1       5.121   5.971  -1.468  0.00  0.00    +0.025 A 
ATOM     17  C   UNL     1       5.832   6.933  -0.780  0.00  0.00    +0.058 A 
ATOM     18  C   UNL     1       6.968   7.490  -1.340  0.00  0.00    +0.050 A 
ATOM     19  C   UNL     1       7.400   7.085  -2.592  0.00  0.00    +0.125 A 
ATOM     20  C   UNL     1       6.700   6.118  -3.288  0.00  0.00    +0.051 A 
ATOM     21  F   UNL     1       8.510   7.634  -3.133  0.00  0.00    -0.205 F 
BRANCH  17  22
ATOM     22  C   UNL     1       5.369   7.379   0.582  0.00  0.00    +0.418 C 
ATOM     23  F   UNL     1       5.961   6.576   1.562  0.00  0.00    -0.166 F 
ATOM     24  F   UNL     1       5.739   8.713   0.787  0.00  0.00    -0.166 F 
ATOM     25  F   UNL     1       3.977   7.264   0.663  0.00  0.00    -0.166 F 
ENDBRANCH  17  22
ENDBRANCH  11  15
BRANCH   1  27
ATOM     26  N   UNL     1       5.922  -0.644  -4.823  0.00  0.00    -0.315 N 
ATOM     27  C   UNL     1       5.485   0.605  -4.570  0.00  0.00    +0.218 C 
ATOM     28  O   UNL     1       4.833   0.830  -3.572  0.00  0.00    -0.275 OA
ATOM     29  H   UNL     1       6.443  -0.824  -5.621  0.00  0.00    +0.149 HD
BRANCH  26  30
ATOM     30  C   UNL     1       5.610  -1.731  -3.891  0.00  0.00    +0.109 C 
BRANCH  30  31
ATOM     31  C   UNL     1       6.219  -3.036  -4.409  0.00  0.00    +0.057 C 
BRANCH  31  37
ATOM     32  C   UNL     1       4.693  -4.832  -3.553  0.00  0.00    +0.124 A 
ATOM     33  C   UNL     1       4.403  -5.865  -2.673  0.00  0.00    +0.046 A 
ATOM     34  C   UNL     1       5.313  -6.212  -1.694  0.00  0.00    +0.004 A 
ATOM     35  C   UNL     1       6.512  -5.531  -1.590  0.00  0.00    +0.000 A 
ATOM     36  C   UNL     1       6.803  -4.502  -2.466  0.00  0.00    +0.007 A 
ATOM     37  C   UNL     1       5.899  -4.154  -3.450  0.00  0.00    -0.004 A 
BRANCH  32  38
ATOM     38  O   UNL     1       3.799  -4.489  -4.518  0.00  0.00    -0.492 OA
BRANCH  38  40
ATOM     39  C   UNL     1       1.706  -4.704  -5.706  0.00  0.00    +0.048 C 
ATOM     40  C   UNL     1       2.578  -5.230  -4.564  0.00  0.00    +0.225 C 
ENDBRANCH  38  40
ENDBRANCH  32  38
ENDBRANCH  31  37
ENDBRANCH  30  31
ENDBRANCH  26  30
ENDBRANCH   1  27
TORSDOF 8
