REMARK  Name = ZINC14972351
REMARK  13 active torsions:
REMARK  status: ('A' for Active; 'I' for Inactive)
REMARK    1  A    between atoms: C_1  and  O_2
REMARK    2  A    between atoms: O_2  and  C_3
REMARK    3  A    between atoms: C_3  and  C_5
REMARK    4  A    between atoms: C_6  and  C_34
REMARK    5  A    between atoms: N_7  and  C_10
REMARK    6  A    between atoms: C_13  and  C_22
REMARK    7  A    between atoms: C_16  and  C_17
REMARK    8  A    between atoms: C_16  and  N_62
REMARK    9  A    between atoms: N_24  and  C_25
REMARK   10  A    between atoms: C_25  and  C_26
REMARK   11  A    between atoms: C_26  and  C_27
REMARK   12  A    between atoms: C_34  and  O_36
REMARK   13  A    between atoms: O_36  and  C_37
REMARK                            x       y       z     vdW  Elec       q    Type
REMARK                         _______ _______ _______ _____ _____    ______ ____
ROOT
ATOM      1  C   UNL     1      -1.557  -5.985   2.762  0.00  0.00    +0.092 C 
ATOM      2  C   UNL     1      -1.205  -4.726   1.942  0.00  0.00    +0.019 C 
ATOM      3  C   UNL     1       0.083  -4.173   2.589  0.00  0.00    +0.022 C 
ATOM      4  C   UNL     1      -0.451  -6.087   3.834  0.00  0.00    -0.050 C 
ATOM      5  N   UNL     1       0.044  -4.716   3.951  0.00  0.00    +0.391 N 
ATOM      6  H   UNL     1      -0.595  -4.161   4.532  0.00  0.00    -0.080 HD
ENDROOT
BRANCH   1   9
ATOM      7  C   UNL     1      -4.958  -6.103   4.001  0.00  0.00    +0.203 A 
ATOM      8  C   UNL     1      -3.953  -6.628   3.191  0.00  0.00    +0.180 A 
ATOM      9  N   UNL     1      -2.868  -5.829   3.396  0.00  0.00    -0.236 N 
ATOM     10  N   UNL     1      -3.193  -4.912   4.236  0.00  0.00    -0.064 NA
ATOM     11  N   UNL     1      -4.415  -5.040   4.615  0.00  0.00    -0.122 NA
BRANCH   7  12
ATOM     12  C   UNL     1      -6.340  -6.608   4.149  0.00  0.00    +0.362 C 
ATOM     13  O   UNL     1      -6.698  -7.588   3.526  0.00  0.00    -0.243 OA
BRANCH  12  15
ATOM     14  C   UNL     1      -8.541  -6.533   5.069  0.00  0.00    +0.280 C 
ATOM     15  O   UNL     1      -7.201  -5.982   4.973  0.00  0.00    -0.463 OA
ENDBRANCH  12  15
ENDBRANCH   7  12
BRANCH   8  16
ATOM     16  C   UNL     1      -4.043  -7.803   2.303  0.00  0.00    +0.360 C 
ATOM     17  O   UNL     1      -5.084  -8.424   2.221  0.00  0.00    -0.243 OA
BRANCH  16  18
ATOM     18  O   UNL     1      -2.971  -8.187   1.583  0.00  0.00    -0.463 OA
ATOM     19  C   UNL     1      -3.132  -9.351   0.731  0.00  0.00    +0.280 C 
ENDBRANCH  16  18
ENDBRANCH   8  16
ENDBRANCH   1   9
BRANCH   3  20
ATOM     20  C   UNL     1       0.063  -2.667   2.597  0.00  0.00    +0.200 C 
ATOM     21  O   UNL     1       0.065  -2.066   3.651  0.00  0.00    -0.278 OA
ATOM     22  N   UNL     1       0.043  -1.987   1.434  0.00  0.00    -0.316 N 
ATOM     23  H   UNL     1       0.041  -2.467   0.591  0.00  0.00    +0.149 HD
BRANCH  22  24
ATOM     24  C   UNL     1       0.023  -0.522   1.442  0.00  0.00    +0.109 C 
BRANCH  24  25
ATOM     25  C   UNL     1       0.002  -0.004   0.002  0.00  0.00    +0.054 C 
BRANCH  25  26
ATOM     26  C   UNL     1      -0.018   1.503   0.010  0.00  0.00    -0.046 A 
ATOM     27  C   UNL     1      -1.225   2.177   0.020  0.00  0.00    +0.006 A 
ATOM     28  C   UNL     1      -1.245   3.559   0.032  0.00  0.00    +0.038 A 
ATOM     29  C   UNL     1      -0.056   4.268   0.025  0.00  0.00    +0.123 A 
ATOM     30  C   UNL     1       1.152   3.591   0.010  0.00  0.00    +0.038 A 
ATOM     31  C   UNL     1       1.170   2.210   0.003  0.00  0.00    +0.006 A 
ATOM     32  F   UNL     1      -0.074   5.619   0.032  0.00  0.00    -0.205 F 
ENDBRANCH  25  26
ENDBRANCH  24  25
ENDBRANCH  22  24
ENDBRANCH   3  20
BRANCH   5  33
ATOM     33  C   UNL     1       1.411  -4.693   4.562  0.00  0.00    -0.039 C 
BRANCH  33  34
ATOM     34  C   UNL     1       1.321  -4.996   6.036  0.00  0.00    -0.026 A 
ATOM     35  C   UNL     1       1.175  -4.056   7.082  0.00  0.00    +0.043 A 
ATOM     36  C   UNL     1       1.134  -4.755   8.231  0.00  0.00    +0.195 A 
ATOM     37  O   UNL     1       1.256  -6.060   7.938  0.00  0.00    -0.471 OA
ATOM     38  C   UNL     1       1.370  -6.212   6.609  0.00  0.00    +0.196 A 
ENDBRANCH  33  34
ENDBRANCH   5  33
TORSDOF 11
