REMARK  Name = ZINC24590436
REMARK  13 active torsions:
REMARK  status: ('A' for Active; 'I' for Inactive)
REMARK    1  A    between atoms: C_1  and  N_2
REMARK    2  A    between atoms: N_2  and  C_3
REMARK    3  A    between atoms: N_2  and  S_4
REMARK    4  A    between atoms: S_4  and  C_7
REMARK    5  A    between atoms: C_11  and  C_13
REMARK    6  A    between atoms: N_15  and  C_16
REMARK    7  A    between atoms: C_16  and  C_17
REMARK    8  A    between atoms: N_19  and  C_20
REMARK    9  A    between atoms: C_20  and  C_21
REMARK   10  A    between atoms: C_21  and  C_23
REMARK   11  A    between atoms: C_21  and  N_31
REMARK   12  A    between atoms: C_26  and  O_29
REMARK   13  A    between atoms: O_29  and  C_30
REMARK                            x       y       z     vdW  Elec       q    Type
REMARK                         _______ _______ _______ _____ _____    ______ ____
ROOT
ATOM      1  C   UNL     1       2.409   0.731  -0.135  0.00  0.00    +0.230 C 
ATOM      2  O   UNL     1       2.211  -0.464  -0.183  0.00  0.00    -0.274 OA
ATOM      3  N   UNL     1       3.670   1.205  -0.093  0.00  0.00    -0.315 N 
ATOM      4  H   UNL     1       3.849   2.289  -0.049  0.00  0.00    +0.149 HD
ENDROOT
BRANCH   1   5
ATOM      5  C   UNL     1       1.244   1.688  -0.122  0.00  0.00    +0.200 C 
BRANCH   5   8
ATOM      6  C   UNL     1      -1.190   1.583  -0.179  0.00  0.00    +0.245 C 
ATOM      7  O   UNL     1      -1.214   2.797  -0.134  0.00  0.00    -0.270 OA
ATOM      8  N   UNL     1      -0.009   0.931  -0.175  0.00  0.00    -0.303 N 
ATOM      9  H   UNL     1       0.013  -0.168  -0.210  0.00  0.00    +0.150 HD
BRANCH   6  14
ATOM     10  C   UNL     1      -4.855   0.773  -0.299  0.00  0.00    +0.106 A 
ATOM     11  C   UNL     1      -4.824  -0.610  -0.350  0.00  0.00    +0.028 A 
ATOM     12  C   UNL     1      -3.614  -1.281  -0.346  0.00  0.00    +0.003 A 
ATOM     13  C   UNL     1      -2.430  -0.575  -0.295  0.00  0.00    +0.013 A 
ATOM     14  C   UNL     1      -2.454   0.820  -0.238  0.00  0.00    +0.039 A 
ATOM     15  C   UNL     1      -3.679   1.491  -0.243  0.00  0.00    +0.041 A 
BRANCH  10  16
ATOM     16  S   UNL     1      -6.401   1.618  -0.305  0.00  0.00    +0.060 S 
ATOM     17  O   UNL     1      -7.367   0.701   0.189  0.00  0.00    -0.153 OA
ATOM     18  O   UNL     1      -6.174   2.884   0.300  0.00  0.00    -0.153 OA
BRANCH  16  20
ATOM     19  C   UNL     1      -7.573   0.930  -2.643  0.00  0.00    +0.131 C 
ATOM     20  N   UNL     1      -6.792   1.913  -1.887  0.00  0.00    -0.183 NA
ATOM     21  C   UNL     1      -6.357   3.155  -2.530  0.00  0.00    +0.131 C 
ENDBRANCH  16  20
ENDBRANCH  10  16
ENDBRANCH   6  14
ENDBRANCH   5   8
ENDBRANCH   1   5
BRANCH   3  22
ATOM     22  C   UNL     1       4.802   0.275  -0.105  0.00  0.00    +0.093 C 
BRANCH  22  23
ATOM     23  C   UNL     1       6.111   1.065  -0.051  0.00  0.00    -0.020 C 
BRANCH  23  24
ATOM     24  C   UNL     1       7.271   0.108   0.060  0.00  0.00    -0.059 A 
ATOM     25  C   UNL     1       8.451   0.374  -0.609  0.00  0.00    +0.005 A 
ATOM     26  C   UNL     1       9.517  -0.498  -0.504  0.00  0.00    +0.046 A 
ATOM     27  C   UNL     1       9.399  -1.648   0.264  0.00  0.00    +0.120 A 
ATOM     28  C   UNL     1       8.211  -1.915   0.930  0.00  0.00    +0.046 A 
ATOM     29  C   UNL     1       7.150  -1.036   0.827  0.00  0.00    +0.005 A 
BRANCH  27  30
ATOM     30  O   UNL     1      10.444  -2.510   0.363  0.00  0.00    -0.495 OA
ATOM     31  C   UNL     1      11.635  -2.172  -0.350  0.00  0.00    +0.277 C 
ENDBRANCH  27  30
ENDBRANCH  23  24
BRANCH  23  32
ATOM     32  N   UNL     1       6.097   1.955   1.118  0.00  0.00    +0.385 N 
ATOM     33  C   UNL     1       6.139   1.176   2.381  0.00  0.00    -0.078 C 
ATOM     34  C   UNL     1       6.642   2.210   3.420  0.00  0.00    -0.020 C 
ATOM     35  C   UNL     1       7.676   3.031   2.616  0.00  0.00    -0.020 C 
ATOM     36  C   UNL     1       7.296   2.821   1.139  0.00  0.00    -0.078 C 
ATOM     37  H   UNL     1       5.174   2.547   1.032  0.00  0.00    -0.081 HD
ENDBRANCH  23  32
ENDBRANCH  22  23
ENDBRANCH   3  22
TORSDOF 10
