REMARK  Name = ZINC39682247
REMARK  7 active torsions:
REMARK  status: ('A' for Active; 'I' for Inactive)
REMARK    1  A    between atoms: C_1  and  C_2
REMARK    2  A    between atoms: C_7  and  C_8
REMARK    3  A    between atoms: C_12  and  C_21
REMARK    4  A    between atoms: N_23  and  C_24
REMARK    5  A    between atoms: C_24  and  C_26
REMARK    6  A    between atoms: C_24  and  C_30
REMARK    7  A    between atoms: C_26  and  C_27
REMARK                            x       y       z     vdW  Elec       q    Type
REMARK                         _______ _______ _______ _____ _____    ______ ____
ROOT
ATOM      1  C   UNL     1       0.094   0.296   2.494  0.00  0.00    +0.247 C 
ATOM      2  O   UNL     1      -0.119   1.493   2.483  0.00  0.00    -0.270 OA
ATOM      3  N   UNL     1       0.267  -0.347   3.666  0.00  0.00    -0.296 N 
ATOM      4  C   UNL     1       0.633  -1.768   3.877  0.00  0.00    +0.121 C 
ATOM      5  C   UNL     1       1.612  -1.745   5.072  0.00  0.00    +0.100 C 
ATOM      6  C   UNL     1       1.279  -0.449   5.828  0.00  0.00    -0.004 C 
ATOM      7  C   UNL     1       0.140   0.208   5.035  0.00  0.00    +0.115 C 
ATOM      8  C   UNL     1       2.494   0.474   5.857  0.00  0.00    -0.010 C 
ATOM      9  C   UNL     1       2.155   1.731   6.664  0.00  0.00    -0.082 C 
ATOM     10  N   UNL     1       1.772   1.350   8.028  0.00  0.00    +0.379 N 
ATOM     11  C   UNL     1       0.548   0.539   7.998  0.00  0.00    -0.082 C 
ATOM     12  C   UNL     1       0.819  -0.768   7.247  0.00  0.00    -0.010 C 
ATOM     13  H   UNL     1       2.517   0.816   8.449  0.00  0.00    -0.086 HD
ATOM     14  H   UNL     1       1.608   2.182   8.575  0.00  0.00    -0.086 HD
ENDROOT
BRANCH   1  21
ATOM     15  C   UNL     1      -2.040   0.560   0.558  0.00  0.00    +0.044 C 
ATOM     16  C   UNL     1      -0.859  -0.334   0.281  0.00  0.00    -0.038 A 
ATOM     17  C   UNL     1      -0.784  -1.032  -0.907  0.00  0.00    +0.004 A 
ATOM     18  C   UNL     1       0.299  -1.853  -1.164  0.00  0.00    +0.000 A 
ATOM     19  C   UNL     1       1.314  -1.981  -0.232  0.00  0.00    +0.001 A 
ATOM     20  C   UNL     1       1.252  -1.288   0.959  0.00  0.00    +0.013 A 
ATOM     21  C   UNL     1       0.165  -0.454   1.222  0.00  0.00    +0.040 A 
ENDBRANCH   1  21
BRANCH   5  22
ATOM     22  C   UNL     1       1.388  -2.944   5.956  0.00  0.00    +0.219 C 
ATOM     23  O   UNL     1       0.269  -3.388   6.105  0.00  0.00    -0.275 OA
ATOM     24  N   UNL     1       2.432  -3.524   6.582  0.00  0.00    -0.308 N 
ATOM     25  H   UNL     1       3.315  -3.127   6.522  0.00  0.00    +0.149 HD
BRANCH  24  26
ATOM     26  C   UNL     1       2.232  -4.754   7.353  0.00  0.00    +0.114 C 
BRANCH  26  27
ATOM     27  C   UNL     1       2.360  -5.946   6.439  0.00  0.00    -0.027 A 
ATOM     28  C   UNL     1       3.337  -5.965   5.461  0.00  0.00    +0.005 A 
ATOM     29  C   UNL     1       3.454  -7.058   4.623  0.00  0.00    +0.000 A 
ATOM     30  C   UNL     1       2.594  -8.132   4.762  0.00  0.00    +0.000 A 
ATOM     31  C   UNL     1       1.618  -8.113   5.741  0.00  0.00    +0.000 A 
ATOM     32  C   UNL     1       1.503  -7.022   6.582  0.00  0.00    +0.005 A 
ENDBRANCH  26  27
BRANCH  26  33
ATOM     33  C   UNL     1       3.288  -4.842   8.456  0.00  0.00    +0.152 C 
BRANCH  33  34
ATOM     34  C   UNL     1       3.072  -3.729   9.448  0.00  0.00    +0.358 C 
ATOM     35  O   UNL     1       2.094  -3.007   9.351  0.00  0.00    -0.246 OA
ATOM     36  O   UNL     1       3.875  -3.550  10.348  0.00  0.00    -0.246 OA
ENDBRANCH  33  34
ENDBRANCH  26  33
ENDBRANCH  24  26
ENDBRANCH   5  22
TORSDOF 6
