REMARK  Name = ZINC38847493
REMARK  12 active torsions:
REMARK  status: ('A' for Active; 'I' for Inactive)
REMARK    1  A    between atoms: C_1  and  C_2
REMARK    2  A    between atoms: C_2  and  O_3
REMARK    3  A    between atoms: O_3  and  C_4
REMARK    4  A    between atoms: N_13  and  C_14
REMARK    5  A    between atoms: C_14  and  C_15
REMARK    6  A    between atoms: C_15  and  C_16
REMARK    7  A    between atoms: C_16  and  N_17
REMARK    8  A    between atoms: C_22  and  C_24
REMARK    9  A    between atoms: C_27  and  S_30
REMARK   10  A    between atoms: S_30  and  C_31
REMARK   11  A    between atoms: C_31  and  C_32
REMARK   12  A    between atoms: C_31  and  C_33
REMARK                            x       y       z     vdW  Elec       q    Type
REMARK                         _______ _______ _______ _____ _____    ______ ____
ROOT
ATOM      1  C   UNL     1       1.366  -0.328  -0.978  0.00  0.00    +0.147 A 
ATOM      2  C   UNL     1       0.715  -0.967   0.052  0.00  0.00    +0.048 A 
ATOM      3  C   UNL     1       0.633  -2.351   0.107  0.00  0.00    +0.005 A 
ATOM      4  C   UNL     1       1.218  -3.106  -0.893  0.00  0.00    +0.017 A 
ATOM      5  C   UNL     1       1.870  -2.477  -1.926  0.00  0.00    +0.044 A 
ATOM      6  C   UNL     1       1.971  -1.072  -2.022  0.00  0.00    +0.122 A 
ATOM      7  N   UNL     1       2.639  -0.605  -3.100  0.00  0.00    -0.221 NA
ATOM      8  C   UNL     1       3.160  -1.399  -4.005  0.00  0.00    +0.168 A 
ATOM      9  S   UNL     1       2.738  -3.019  -3.378  0.00  0.00    -0.052 S 
ATOM     10  N   UNL     1       3.864  -1.068  -5.151  0.00  0.00    -0.246 N 
ATOM     11  C   UNL     1       4.091   0.227  -5.451  0.00  0.00    +0.252 C 
ATOM     12  O   UNL     1       3.724   1.101  -4.690  0.00  0.00    -0.270 OA
ENDROOT
BRANCH  11  13
ATOM     13  C   UNL     1       4.784   0.582  -6.703  0.00  0.00    +0.037 A 
ATOM     14  C   UNL     1       4.504  -0.116  -7.882  0.00  0.00    +0.014 A 
ATOM     15  C   UNL     1       5.150   0.218  -9.044  0.00  0.00    +0.015 A 
ATOM     16  C   UNL     1       6.085   1.250  -9.052  0.00  0.00    +0.008 A 
ATOM     17  C   UNL     1       6.367   1.946  -7.878  0.00  0.00    +0.015 A 
ATOM     18  C   UNL     1       5.720   1.622  -6.714  0.00  0.00    +0.014 A 
BRANCH  16  19
ATOM     19  S   UNL     1       6.913   1.675 -10.547  0.00  0.00    -0.122 S 
BRANCH  19  20
ATOM     20  C   UNL     1       5.829   2.912 -11.313  0.00  0.00    +0.045 C 
ATOM     21  C   UNL     1       5.775   4.160 -10.429  0.00  0.00    +0.019 C 
ATOM     22  C   UNL     1       6.377   3.287 -12.691  0.00  0.00    +0.019 C 
ENDBRANCH  19  20
ENDBRANCH  16  19
ENDBRANCH  11  13
BRANCH   1  23
ATOM     23  O   UNL     1       1.424   1.030  -0.997  0.00  0.00    -0.490 OA
BRANCH  23  25
ATOM     24  C   UNL     1       0.964   3.230  -0.109  0.00  0.00    +0.048 C 
ATOM     25  C   UNL     1       0.795   1.722   0.084  0.00  0.00    +0.226 C 
ENDBRANCH  23  25
ENDBRANCH   1  23
BRANCH  10  26
ATOM     26  C   UNL     1       4.363  -2.123  -6.036  0.00  0.00    +0.117 C 
BRANCH  26  27
ATOM     27  C   UNL     1       3.197  -2.715  -6.831  0.00  0.00    +0.041 C 
BRANCH  27  28
ATOM     28  C   UNL     1       3.735  -3.712  -7.859  0.00  0.00    +0.124 C 
BRANCH  28  29
ATOM     29  N   UNL     1       2.619  -4.278  -8.621  0.00  0.00    -0.338 N 
ATOM     30  C   UNL     1       1.904  -5.400  -8.301  0.00  0.00    +0.104 A 
ATOM     31  C   UNL     1       0.977  -5.559  -9.265  0.00  0.00    +0.101 A 
ATOM     32  N   UNL     1       1.121  -4.561 -10.149  0.00  0.00    -0.352 N 
ATOM     33  C   UNL     1       2.100  -3.787  -9.767  0.00  0.00    +0.173 A 
ATOM     34  H   UNL     1       0.581  -4.432 -10.944  0.00  0.00    +0.166 HD
ENDBRANCH  28  29
ENDBRANCH  27  28
ENDBRANCH  26  27
ENDBRANCH  10  26
TORSDOF 9
