REMARK  Name = ZINC15184422
REMARK  7 active torsions:
REMARK  status: ('A' for Active; 'I' for Inactive)
REMARK    1  A    between atoms: C_7  and  C_11
REMARK    2  A    between atoms: C_14  and  S_23
REMARK    3  A    between atoms: N_15  and  C_16
REMARK    4  A    between atoms: C_16  and  C_17
REMARK    5  A    between atoms: S_23  and  C_24
REMARK    6  A    between atoms: C_24  and  C_25
REMARK    7  A    between atoms: N_27  and  C_28
REMARK                            x       y       z     vdW  Elec       q    Type
REMARK                         _______ _______ _______ _____ _____    ______ ____
ROOT
ATOM      1  C   UNL     1      -7.152  -0.182   0.228  0.00  0.00    +0.167 A 
ATOM      2  N   UNL     1      -6.156  -1.015   0.432  0.00  0.00    -0.128 NA
ATOM      3  N   UNL     1      -5.053  -0.363   0.535  0.00  0.00    -0.122 NA
ATOM      4  C   UNL     1      -5.275   0.924   0.404  0.00  0.00    +0.192 A 
ATOM      5  N   UNL     1      -6.619   1.086   0.209  0.00  0.00    -0.300 N 
ENDROOT
BRANCH   1  12
ATOM      6  C   UNL     1      -9.341  -3.428  -2.330  0.00  0.00    +0.001 A 
ATOM      7  C   UNL     1     -10.719  -3.393  -2.171  0.00  0.00    +0.002 A 
ATOM      8  C   UNL     1     -11.305  -2.478  -1.325  0.00  0.00    +0.026 A 
ATOM      9  C   UNL     1     -10.511  -1.569  -0.632  0.00  0.00    +0.047 A 
ATOM     10  C   UNL     1      -9.116  -1.608  -0.800  0.00  0.00    +0.010 A 
ATOM     11  C   UNL     1      -8.543  -2.547  -1.655  0.00  0.00    +0.011 A 
ATOM     12  C   UNL     1      -8.574  -0.540   0.058  0.00  0.00    +0.044 A 
ATOM     13  C   UNL     1      -9.638   0.055   0.657  0.00  0.00    +0.095 A 
ATOM     14  N   UNL     1     -10.792  -0.551   0.253  0.00  0.00    -0.360 N 
ATOM     15  H   UNL     1     -11.682  -0.300   0.546  0.00  0.00    +0.165 HD
ENDBRANCH   1  12
BRANCH   5  16
ATOM     16  C   UNL     1      -7.341   2.346   0.018  0.00  0.00    +0.157 C 
BRANCH  16  17
ATOM     17  C   UNL     1      -7.514   2.613  -1.479  0.00  0.00    +0.138 C 
ATOM     18  C   UNL     1      -8.323   3.915  -1.704  0.00  0.00    +0.035 C 
ATOM     19  C   UNL     1      -7.836   4.324  -3.120  0.00  0.00    +0.031 C 
ATOM     20  C   UNL     1      -6.366   3.855  -3.110  0.00  0.00    +0.160 C 
ATOM     21  O   UNL     1      -6.238   2.853  -2.094  0.00  0.00    -0.375 OA
ENDBRANCH  16  17
ENDBRANCH   5  16
BRANCH   4  22
ATOM     22  S   UNL     1      -4.067   2.205   0.474  0.00  0.00    -0.077 S 
BRANCH  22  23
ATOM     23  C   UNL     1      -2.578   1.217   0.759  0.00  0.00    +0.173 C 
BRANCH  23  24
ATOM     24  C   UNL     1      -1.381   2.128   0.855  0.00  0.00    +0.227 C 
ATOM     25  O   UNL     1      -1.522   3.328   0.743  0.00  0.00    -0.275 OA
ATOM     26  N   UNL     1      -0.155   1.611   1.067  0.00  0.00    -0.285 N 
ATOM     27  H   UNL     1      -0.031   0.649   1.087  0.00  0.00    +0.155 HD
BRANCH  26  28
ATOM     28  C   UNL     1       0.942   2.462   1.253  0.00  0.00    +0.037 A 
ATOM     29  C   UNL     1       1.018   3.659   0.554  0.00  0.00    +0.027 A 
ATOM     30  C   UNL     1       2.098   4.502   0.740  0.00  0.00    +0.051 A 
ATOM     31  C   UNL     1       3.112   4.150   1.616  0.00  0.00    +0.166 A 
ATOM     32  C   UNL     1       3.041   2.947   2.315  0.00  0.00    +0.168 A 
ATOM     33  C   UNL     1       1.956   2.106   2.132  0.00  0.00    +0.072 A 
ATOM     34  O   UNL     1       4.149   2.835   3.104  0.00  0.00    -0.453 OA
ATOM     35  C   UNL     1       4.696   4.164   3.190  0.00  0.00    +0.466 C 
ATOM     36  O   UNL     1       4.266   4.791   1.968  0.00  0.00    -0.453 OA
ENDBRANCH  26  28
ENDBRANCH  23  24
ENDBRANCH  22  23
ENDBRANCH   4  22
TORSDOF 7
