REMARK  Name = ZINC09986712
REMARK  9 active torsions:
REMARK  status: ('A' for Active; 'I' for Inactive)
REMARK    1  A    between atoms: C_1  and  C_2
REMARK    2  A    between atoms: C_2  and  C_4
REMARK    3  A    between atoms: C_2  and  N_14
REMARK    4  A    between atoms: C_7  and  S_10
REMARK    5  A    between atoms: S_10  and  N_13
REMARK    6  A    between atoms: C_15  and  C_17
REMARK    7  A    between atoms: C_20  and  C_23
REMARK    8  A    between atoms: C_23  and  S_24
REMARK    9  A    between atoms: S_24  and  C_25
REMARK                            x       y       z     vdW  Elec       q    Type
REMARK                         _______ _______ _______ _____ _____    ______ ____
ROOT
ATOM      1  N   UNL     1      -1.320   3.464   0.027  0.00  0.00    -0.305 N 
ATOM      2  C   UNL     1      -1.305   2.116   0.020  0.00  0.00    +0.245 C 
ATOM      3  O   UNL     1      -2.351   1.497   0.021  0.00  0.00    -0.270 OA
ATOM      4  H   UNL     1      -0.486   3.958   0.026  0.00  0.00    +0.150 HD
ENDROOT
BRANCH   2   5
ATOM      5  C   UNL     1      -0.017   1.391   0.010  0.00  0.00    +0.037 A 
ATOM      6  C   UNL     1       1.186   2.100   0.002  0.00  0.00    +0.013 A 
ATOM      7  C   UNL     1       2.385   1.417  -0.013  0.00  0.00    +0.005 A 
ATOM      8  C   UNL     1       2.396   0.034  -0.020  0.00  0.00    -0.037 A 
ATOM      9  C   UNL     1       1.208  -0.674  -0.013  0.00  0.00    +0.005 A 
ATOM     10  C   UNL     1       0.002  -0.004   0.002  0.00  0.00    +0.013 A 
BRANCH   8  11
ATOM     11  C   UNL     1       3.710  -0.705  -0.036  0.00  0.00    +0.109 C 
BRANCH  11  12
ATOM     12  S   UNL     1       4.221  -0.993  -1.753  0.00  0.00    -0.121 S 
BRANCH  12  13
ATOM     13  C   UNL     1       5.751  -1.854  -1.603  0.00  0.00    +0.008 A 
ATOM     14  C   UNL     1       6.269  -2.139  -0.346  0.00  0.00    +0.016 A 
ATOM     15  C   UNL     1       7.466  -2.818  -0.232  0.00  0.00    +0.021 A 
ATOM     16  C   UNL     1       8.155  -3.205  -1.369  0.00  0.00    +0.041 A 
ATOM     17  C   UNL     1       7.644  -2.918  -2.622  0.00  0.00    +0.021 A 
ATOM     18  C   UNL     1       6.444  -2.244  -2.743  0.00  0.00    +0.016 A 
ATOM     19 CL   UNL     1       9.662  -4.054  -1.222  0.00  0.00    -0.084 Cl
ENDBRANCH  12  13
ENDBRANCH  11  12
ENDBRANCH   8  11
ENDBRANCH   2   5
BRANCH   1  21
ATOM     20  C   UNL     1      -3.110   4.331  -1.397  0.00  0.00    +0.033 C 
ATOM     21  C   UNL     1      -2.597   4.183   0.037  0.00  0.00    +0.100 C 
BRANCH  21  22
ATOM     22  C   UNL     1      -2.400   5.548   0.644  0.00  0.00    -0.027 A 
ATOM     23  C   UNL     1      -1.261   6.276   0.354  0.00  0.00    +0.007 A 
ATOM     24  C   UNL     1      -1.083   7.530   0.907  0.00  0.00    +0.029 A 
ATOM     25  C   UNL     1      -2.039   8.052   1.758  0.00  0.00    +0.105 A 
ATOM     26  C   UNL     1      -3.176   7.322   2.052  0.00  0.00    +0.029 A 
ATOM     27  C   UNL     1      -3.356   6.070   1.495  0.00  0.00    +0.007 A 
BRANCH  25  28
ATOM     28  S   UNL     1      -1.809   9.648   2.469  0.00  0.00    +0.056 S 
ATOM     29  O   UNL     1      -0.926  10.353   1.607  0.00  0.00    -0.153 OA
ATOM     30  O   UNL     1      -3.102  10.136   2.799  0.00  0.00    -0.153 OA
BRANCH  28  31
ATOM     31  N   UNL     1      -1.004   9.435   3.900  0.00  0.00    -0.204 NA
ATOM     32  H   UNL     1      -0.411  10.128   4.231  0.00  0.00    +0.144 HD
ATOM     33  H   UNL     1      -1.126   8.618   4.408  0.00  0.00    +0.144 HD
ENDBRANCH  28  31
ENDBRANCH  25  28
ENDBRANCH  21  22
ENDBRANCH   1  21
TORSDOF 8
