REMARK  Name = ZINC39943240
REMARK  10 active torsions:
REMARK  status: ('A' for Active; 'I' for Inactive)
REMARK    1  A    between atoms: C_1  and  C_2
REMARK    2  A    between atoms: C_4  and  C_12
REMARK    3  A    between atoms: C_12  and  C_14
REMARK    4  A    between atoms: C_14  and  C_16
REMARK    5  A    between atoms: C_14  and  O_17
REMARK    6  A    between atoms: O_17  and  C_18
REMARK    7  A    between atoms: C_18  and  C_20
REMARK    8  A    between atoms: C_23  and  N_26
REMARK    9  A    between atoms: C_30  and  S_33
REMARK   10  A    between atoms: S_33  and  C_34
REMARK                            x       y       z     vdW  Elec       q    Type
REMARK                         _______ _______ _______ _____ _____    ______ ____
ROOT
ATOM      1  C   UNL     1       0.767  -1.775  -5.818  0.00  0.00    +0.340 C 
ATOM      2  O   UNL     1       1.847  -2.321  -5.713  0.00  0.00    -0.245 OA
ENDROOT
BRANCH   1   3
ATOM      3  C   UNL     1       0.060  -1.782  -7.112  0.00  0.00    +0.059 A 
ATOM      4  C   UNL     1      -1.181  -1.150  -7.236  0.00  0.00    +0.017 A 
ATOM      5  C   UNL     1      -1.838  -1.158  -8.445  0.00  0.00    +0.026 A 
ATOM      6  C   UNL     1      -1.268  -1.794  -9.544  0.00  0.00    +0.051 A 
ATOM      7  C   UNL     1      -0.033  -2.425  -9.424  0.00  0.00    +0.026 A 
ATOM      8  C   UNL     1       0.632  -2.415  -8.219  0.00  0.00    +0.017 A 
BRANCH   6   9
ATOM      9  N   UNL     1      -1.936  -1.801 -10.766  0.00  0.00    -0.221 N 
ATOM     10  C   UNL     1      -2.083  -2.970 -11.432  0.00  0.00    +0.130 C 
ATOM     11  S   UNL     1      -1.610  -4.542 -10.943  0.00  0.00    -0.026 S 
ATOM     12  S   UNL     1      -2.892  -2.471 -12.949  0.00  0.00    -0.070 S 
ATOM     13  C   UNL     1      -2.656  -0.654 -12.729  0.00  0.00    +0.194 C 
ATOM     14  N   UNL     1      -2.426  -0.643 -11.254  0.00  0.00    -0.212 NA
ATOM     15  H   UNL     1      -3.258  -0.365 -10.757  0.00  0.00    +0.147 HD
BRANCH  13  16
ATOM     16  S   UNL     1      -1.208  -0.053 -13.642  0.00  0.00    -0.133 S 
ATOM     17  C   UNL     1       0.170  -1.017 -12.963  0.00  0.00    +0.087 C 
ENDBRANCH  13  16
ENDBRANCH   6   9
ENDBRANCH   1   3
BRANCH   1  18
ATOM     18  O   UNL     1       0.214  -1.165  -4.751  0.00  0.00    -0.450 OA
BRANCH  18  19
ATOM     19  C   UNL     1       0.954  -1.197  -3.529  0.00  0.00    +0.244 C 
ATOM     20  C   UNL     1       1.875   0.022  -3.458  0.00  0.00    +0.061 C 
BRANCH  19  21
ATOM     21  C   UNL     1      -0.001  -1.175  -2.363  0.00  0.00    +0.202 C 
ATOM     22  O   UNL     1      -1.162  -0.865  -2.535  0.00  0.00    -0.288 OA
BRANCH  21  25
ATOM     23  C   UNL     1      -0.915  -0.158   0.509  0.00  0.00    +0.035 C 
ATOM     24  C   UNL     1      -0.355  -1.548   0.205  0.00  0.00    +0.111 C 
ATOM     25  C   UNL     1       0.455  -1.516  -1.072  0.00  0.00    +0.030 C 
ATOM     26  C   UNL     1       1.736  -1.890  -0.709  0.00  0.00    +0.007 A 
ATOM     27  C   UNL     1       2.936  -2.050  -1.441  0.00  0.00    +0.010 A 
ATOM     28  C   UNL     1       4.070  -2.437  -0.815  0.00  0.00    +0.001 A 
ATOM     29  C   UNL     1       4.119  -2.695   0.565  0.00  0.00    +0.002 A 
ATOM     30  C   UNL     1       3.030  -2.572   1.354  0.00  0.00    +0.026 A 
ATOM     31  C   UNL     1       1.753  -2.155   0.751  0.00  0.00    +0.043 A 
ATOM     32  N   UNL     1       0.570  -1.962   1.265  0.00  0.00    -0.377 N 
ATOM     33  H   UNL     1       0.339  -2.074   2.200  0.00  0.00    +0.160 HD
ENDBRANCH  21  25
ENDBRANCH  19  21
ENDBRANCH  18  19
ENDBRANCH   1  18
TORSDOF 7
