REMARK  Name = ZINC06178058
REMARK  13 active torsions:
REMARK  status: ('A' for Active; 'I' for Inactive)
REMARK    1  A    between atoms: C_1  and  C_2
REMARK    2  A    between atoms: C_4  and  C_39
REMARK    3  A    between atoms: C_9  and  C_14
REMARK    4  A    between atoms: C_14  and  C_16
REMARK    5  A    between atoms: C_14  and  N_69
REMARK    6  A    between atoms: N_20  and  C_21
REMARK    7  A    between atoms: C_21  and  C_22
REMARK    8  A    between atoms: C_22  and  O_23
REMARK    9  A    between atoms: O_23  and  C_24
REMARK   10  A    between atoms: C_25  and  C_26
REMARK   11  A    between atoms: C_25  and  N_69
REMARK   12  A    between atoms: C_32  and  C_33
REMARK   13  A    between atoms: C_32  and  N_69
REMARK                            x       y       z     vdW  Elec       q    Type
REMARK                         _______ _______ _______ _____ _____    ______ ____
ROOT
ATOM      1  C   UNL     1       4.511   0.779  -1.355  0.00  0.00    +0.039 C 
ENDROOT
BRANCH   1  10
ATOM      2  C   UNL     1       8.902   2.420   4.444  0.00  0.00    +0.044 C 
ATOM      3  C   UNL     1       7.910   2.835   3.389  0.00  0.00    -0.050 A 
ATOM      4  C   UNL     1       7.492   4.157   3.318  0.00  0.00    +0.008 A 
ATOM      5  C   UNL     1       6.587   4.558   2.360  0.00  0.00    -0.026 A 
ATOM      6  C   UNL     1       6.083   3.630   1.454  0.00  0.00    +0.052 A 
ATOM      7  C   UNL     1       6.509   2.291   1.529  0.00  0.00    -0.001 A 
ATOM      8  C   UNL     1       7.430   1.906   2.510  0.00  0.00    +0.013 A 
ATOM      9  C   UNL     1       5.969   1.320   0.575  0.00  0.00    +0.017 A 
ATOM     10  C   UNL     1       5.082   1.751  -0.355  0.00  0.00    +0.011 A 
ATOM     11  C   UNL     1       4.688   3.106  -0.388  0.00  0.00    +0.251 A 
ATOM     12  O   UNL     1       3.886   3.472  -1.230  0.00  0.00    -0.268 OA
ATOM     13  N   UNL     1       5.175   4.004   0.487  0.00  0.00    -0.322 N 
ATOM     14  H   UNL     1       4.883   4.927   0.437  0.00  0.00    +0.169 HD
ATOM     15  C   UNL     1       6.143   5.997   2.295  0.00  0.00    +0.046 C 
ENDBRANCH   1  10
BRANCH   1  16
ATOM     16  C   UNL     1       5.028   1.111  -2.731  0.00  0.00    +0.143 A 
ATOM     17  N   UNL     1       4.643   2.106  -3.493  0.00  0.00    -0.115 NA
ATOM     18  N   UNL     1       5.321   2.054  -4.588  0.00  0.00    -0.023 NA
ATOM     19  N   UNL     1       6.122   1.047  -4.548  0.00  0.00    -0.044 NA
ATOM     20  N   UNL     1       5.971   0.440  -3.419  0.00  0.00    -0.228 N 
BRANCH  20  21
ATOM     21  C   UNL     1       6.691  -0.754  -2.969  0.00  0.00    +0.175 C 
BRANCH  21  22
ATOM     22  C   UNL     1       5.921  -2.005  -3.397  0.00  0.00    +0.183 C 
BRANCH  22  23
ATOM     23  O   UNL     1       6.624  -3.169  -2.959  0.00  0.00    -0.381 OA
ATOM     24  C   UNL     1       5.986  -4.399  -3.309  0.00  0.00    +0.194 C 
ENDBRANCH  22  23
ENDBRANCH  21  22
ENDBRANCH  20  21
ENDBRANCH   1  16
BRANCH   1  25
ATOM     25  N   UNL     1       3.038   0.901  -1.351  0.00  0.00    +0.395 N 
ATOM     26  H   UNL     1       2.784   1.888  -1.478  0.00  0.00    -0.079 HD
BRANCH  25  27
ATOM     27  C   UNL     1       2.462   0.112  -2.460  0.00  0.00    -0.041 C 
BRANCH  27  28
ATOM     28  C   UNL     1       1.045   0.569  -2.694  0.00  0.00    -0.064 A 
ATOM     29  C   UNL     1       0.014   0.034  -1.944  0.00  0.00    +0.002 A 
ATOM     30  C   UNL     1      -1.285   0.457  -2.155  0.00  0.00    +0.000 A 
ATOM     31  C   UNL     1      -1.554   1.406  -3.124  0.00  0.00    +0.000 A 
ATOM     32  C   UNL     1      -0.524   1.937  -3.877  0.00  0.00    +0.000 A 
ATOM     33  C   UNL     1       0.776   1.518  -3.662  0.00  0.00    +0.002 A 
ENDBRANCH  27  28
ENDBRANCH  25  27
BRANCH  25  34
ATOM     34  C   UNL     1       2.495   0.429  -0.060  0.00  0.00    -0.040 C 
BRANCH  34  35
ATOM     35  C   UNL     1       2.904  -1.000   0.194  0.00  0.00    -0.046 A 
ATOM     36  C   UNL     1       4.012  -1.285   0.977  0.00  0.00    +0.005 A 
ATOM     37  C   UNL     1       4.353  -2.613   1.179  0.00  0.00    +0.020 A 
ATOM     38  C   UNL     1       3.576  -3.603   0.606  0.00  0.00    +0.111 A 
ATOM     39  N   UNL     1       2.529  -3.295  -0.133  0.00  0.00    -0.263 NA
ATOM     40  C   UNL     1       2.178  -2.042  -0.351  0.00  0.00    +0.112 A 
ENDBRANCH  34  35
ENDBRANCH  25  34
ENDBRANCH   1  25
TORSDOF 10
