REMARK  Name = ZINC11912024
REMARK  12 active torsions:
REMARK  status: ('A' for Active; 'I' for Inactive)
REMARK    1  A    between atoms: C_1  and  C_2
REMARK    2  A    between atoms: C_2  and  C_3
REMARK    3  A    between atoms: C_3  and  C_5
REMARK    4  A    between atoms: C_3  and  N_66
REMARK    5  A    between atoms: C_11  and  C_15
REMARK    6  A    between atoms: C_16  and  N_66
REMARK    7  A    between atoms: N_19  and  C_22
REMARK    8  A    between atoms: C_25  and  N_28
REMARK    9  A    between atoms: N_28  and  S_29
REMARK   10  A    between atoms: S_29  and  N_32
REMARK   11  A    between atoms: N_32  and  C_33
REMARK   12  A    between atoms: N_32  and  C_34
REMARK                            x       y       z     vdW  Elec       q    Type
REMARK                         _______ _______ _______ _____ _____    ______ ____
ROOT
ATOM      1  C   UNL     1      -7.509   5.717  -0.518  0.00  0.00    -0.068 C 
ATOM      2  C   UNL     1      -6.234   6.315  -1.120  0.00  0.00    +0.003 C 
ATOM      3  C   UNL     1      -5.024   5.506  -0.647  0.00  0.00    +0.103 C 
ATOM      4  N   UNL     1      -5.175   4.107  -1.066  0.00  0.00    -0.330 N 
ATOM      5  C   UNL     1      -6.367   3.498  -0.463  0.00  0.00    +0.103 C 
ATOM      6  C   UNL     1      -7.617   4.247  -0.930  0.00  0.00    +0.003 C 
ENDROOT
BRANCH   4   7
ATOM      7  C   UNL     1      -4.026   3.367  -0.765  0.00  0.00    +0.030 A 
ATOM      8  C   UNL     1      -3.967   2.016  -1.083  0.00  0.00    +0.025 A 
ATOM      9  C   UNL     1      -2.833   1.286  -0.787  0.00  0.00    +0.026 A 
ATOM     10  C   UNL     1      -1.751   1.902  -0.172  0.00  0.00    +0.049 A 
ATOM     11  C   UNL     1      -1.812   3.251   0.151  0.00  0.00    +0.026 A 
ATOM     12  C   UNL     1      -2.944   3.983  -0.150  0.00  0.00    +0.025 A 
BRANCH  10  13
ATOM     13  N   UNL     1      -0.602   1.162   0.128  0.00  0.00    -0.206 N 
ATOM     14  H   UNL     1      -0.682   0.288   0.542  0.00  0.00    +0.175 HD
BRANCH  13  15
ATOM     15  S   UNL     1       0.895   1.775  -0.229  0.00  0.00    +0.111 S 
ATOM     16  O   UNL     1       0.953   3.069   0.356  0.00  0.00    -0.138 OA
ATOM     17  O   UNL     1       1.836   0.756   0.081  0.00  0.00    -0.138 OA
BRANCH  15  18
ATOM     18  N   UNL     1       0.956   1.993  -1.869  0.00  0.00    -0.170 NA
ATOM     19  C   UNL     1       0.658   3.307  -2.445  0.00  0.00    +0.132 C 
ATOM     20  C   UNL     1       1.307   0.872  -2.744  0.00  0.00    +0.132 C 
ENDBRANCH  15  18
ENDBRANCH  13  15
ENDBRANCH  10  13
ENDBRANCH   4   7
BRANCH   1  21
ATOM     21  N   UNL     1      -8.679   6.459  -1.025  0.00  0.00    +0.388 N 
ATOM     22  H   UNL     1      -8.423   7.444  -1.160  0.00  0.00    -0.084 HD
ATOM     23  H   UNL     1      -8.974   6.055  -1.921  0.00  0.00    -0.084 HD
BRANCH  21  24
ATOM     24  C   UNL     1      -9.794   6.374  -0.063  0.00  0.00    -0.004 C 
BRANCH  24  25
ATOM     25  C   UNL     1      -9.651   7.461   0.971  0.00  0.00    +0.094 A 
ATOM     26  N   UNL     1     -10.177   7.418   2.225  0.00  0.00    -0.343 N 
ATOM     27  H   UNL     1     -10.720   6.675   2.615  0.00  0.00    +0.167 HD
ATOM     28  C   UNL     1      -9.824   8.593   2.858  0.00  0.00    +0.066 A 
ATOM     29  C   UNL     1     -10.058   9.118   4.122  0.00  0.00    +0.028 A 
ATOM     30  C   UNL     1      -9.556  10.360   4.449  0.00  0.00    +0.005 A 
ATOM     31  C   UNL     1      -8.819  11.086   3.525  0.00  0.00    -0.048 A 
ATOM     32  C   UNL     1      -8.579  10.586   2.276  0.00  0.00    +0.033 A 
ATOM     33  C   UNL     1      -9.078   9.329   1.923  0.00  0.00    +0.089 A 
ATOM     34  N   UNL     1      -9.011   8.580   0.792  0.00  0.00    -0.234 NA
ATOM     35  C   UNL     1      -8.278  12.442   3.901  0.00  0.00    +0.044 C 
ENDBRANCH  24  25
BRANCH  24  37
ATOM     36  C   UNL     1     -11.325   5.376  -1.767  0.00  0.00    +0.002 C 
ATOM     37  C   UNL     1     -11.117   6.552  -0.811  0.00  0.00    -0.012 C 
ENDBRANCH  24  37
ENDBRANCH  21  24
ENDBRANCH   1  21
TORSDOF 8
