REMARK  Name = ZINC19890763
REMARK  1 active torsions:
REMARK  status: ('A' for Active; 'I' for Inactive)
REMARK    1  A    between atoms: C_13  and  C_23
REMARK                            x       y       z     vdW  Elec       q    Type
REMARK                         _______ _______ _______ _____ _____    ______ ____
ROOT
ATOM      1  C   UNL     1      -0.017   1.366   0.010  0.00  0.00    +0.002 A 
ATOM      2  C   UNL     1       1.156   2.107   0.002  0.00  0.00    +0.001 A 
ATOM      3  C   UNL     1       2.373   1.450  -0.013  0.00  0.00    +0.017 A 
ATOM      4  C   UNL     1       2.401   0.077  -0.021  0.00  0.00    +0.041 A 
ATOM      5  C   UNL     1       1.227  -0.710  -0.013  0.00  0.00    +0.080 A 
ATOM      6  C   UNL     1       0.002  -0.004   0.002  0.00  0.00    +0.029 A 
ATOM      7  N   UNL     1       1.419  -2.047  -0.023  0.00  0.00    -0.225 NA
ATOM      8  C   UNL     1       2.616  -2.588  -0.038  0.00  0.00    +0.165 A 
ATOM      9  S   UNL     1       3.682  -1.153  -0.040  0.00  0.00    -0.052 S 
ATOM     10  N   UNL     1       2.963  -3.927  -0.048  0.00  0.00    -0.266 N 
ATOM     11  C   UNL     1       4.291  -4.295  -0.063  0.00  0.00    +0.186 C 
ATOM     12  N   UNL     1       5.205  -3.378  -0.062  0.00  0.00    -0.243 NA
ATOM     13  C   UNL     1       6.628  -3.688  -0.070  0.00  0.00    +0.175 C 
ATOM     14  C   UNL     1       6.880  -5.111  -0.498  0.00  0.00    +0.041 C 
ATOM     15  C   UNL     1       5.877  -6.016  -0.478  0.00  0.00    +0.019 C 
ATOM     16  N   UNL     1       4.624  -5.631  -0.074  0.00  0.00    -0.290 N 
ATOM     17  C   UNL     1       6.109  -7.448  -0.884  0.00  0.00    +0.052 C 
ATOM     18  C   UNL     1       7.214  -7.509  -1.941  0.00  0.00    +0.014 C 
ATOM     19  C   UNL     1       8.482  -6.875  -1.359  0.00  0.00    +0.080 C 
ATOM     20  C   UNL     1       8.171  -5.470  -0.917  0.00  0.00    +0.163 C 
ATOM     21  O   UNL     1       9.052  -4.633  -0.923  0.00  0.00    -0.292 OA
ATOM     22  H   UNL     1       2.271  -4.607  -0.045  0.00  0.00    +0.157 HD
ATOM     23  H   UNL     1       3.973  -6.296   0.200  0.00  0.00    +0.154 HD
ENDROOT
BRANCH  13  24
ATOM     24  C   UNL     1       7.184  -3.487   1.317  0.00  0.00    -0.000 A 
ATOM     25  C   UNL     1       8.429  -2.904   1.497  0.00  0.00    +0.009 A 
ATOM     26  C   UNL     1       8.899  -2.738   2.790  0.00  0.00    +0.020 A 
ATOM     27  C   UNL     1       8.117  -3.158   3.850  0.00  0.00    +0.111 A 
ATOM     28  N   UNL     1       6.938  -3.709   3.641  0.00  0.00    -0.263 NA
ATOM     29  C   UNL     1       6.456  -3.876   2.425  0.00  0.00    +0.116 A 
ENDBRANCH  13  24
TORSDOF 1
