REMARK  Name = ZINC18105623
REMARK  8 active torsions:
REMARK  status: ('A' for Active; 'I' for Inactive)
REMARK    1  A    between atoms: C_3  and  C_6
REMARK    2  A    between atoms: C_6  and  N_7
REMARK    3  A    between atoms: C_11  and  N_15
REMARK    4  A    between atoms: N_15  and  C_16
REMARK    5  A    between atoms: C_16  and  C_17
REMARK    6  A    between atoms: C_17  and  C_18
REMARK    7  A    between atoms: C_21  and  S_24
REMARK    8  A    between atoms: S_24  and  N_27
REMARK                            x       y       z     vdW  Elec       q    Type
REMARK                         _______ _______ _______ _____ _____    ______ ____
ROOT
ATOM      1  N   UNL     1       4.533   0.709   4.436  0.00  0.00    +0.387 N 
ATOM      2  H   UNL     1       4.635   1.155   5.335  0.00  0.00    -0.085 HD
ATOM      3  H   UNL     1       3.553   0.629   4.210  0.00  0.00    -0.085 HD
ENDROOT
BRANCH   1   8
ATOM      4  N   UNL     1       4.234   2.004   1.353  0.00  0.00    -0.239 N 
ATOM      5  C   UNL     1       4.082   3.139   2.045  0.00  0.00    +0.221 C 
ATOM      6  O   UNL     1       3.550   4.148   1.632  0.00  0.00    -0.275 OA
ATOM      7  C   UNL     1       4.678   2.965   3.425  0.00  0.00    +0.090 C 
ATOM      8  C   UNL     1       5.207   1.516   3.410  0.00  0.00    +0.025 C 
ATOM      9  C   UNL     1       4.848   1.022   2.025  0.00  0.00    +0.209 C 
ATOM     10  O   UNL     1       5.083  -0.085   1.592  0.00  0.00    -0.277 OA
BRANCH   4  11
ATOM     11  C   UNL     1       3.761   1.845  -0.024  0.00  0.00    +0.158 C 
BRANCH  11  14
ATOM     12  C   UNL     1      -0.016   1.351   0.009  0.00  0.00    +0.008 A 
ATOM     13  C   UNL     1       1.183   2.038   0.002  0.00  0.00    +0.013 A 
ATOM     14  C   UNL     1       2.343   1.336  -0.013  0.00  0.00    +0.008 A 
ATOM     15  S   UNL     1       1.754  -0.349  -0.017  0.00  0.00    -0.100 S 
ATOM     16  C   UNL     1       0.002  -0.004   0.002  0.00  0.00    +0.045 A 
ENDBRANCH  11  14
ENDBRANCH   4  11
ENDBRANCH   1   8
BRANCH   1  17
ATOM     17  C   UNL     1       5.136  -0.629   4.481  0.00  0.00    -0.077 C 
BRANCH  17  18
ATOM     18  C   UNL     1       4.434  -1.470   5.549  0.00  0.00    +0.016 C 
BRANCH  18  19
ATOM     19  C   UNL     1       5.053  -2.843   5.596  0.00  0.00    -0.049 A 
ATOM     20  C   UNL     1       4.554  -3.853   4.795  0.00  0.00    +0.005 A 
ATOM     21  C   UNL     1       5.122  -5.113   4.838  0.00  0.00    +0.029 A 
ATOM     22  C   UNL     1       6.190  -5.362   5.680  0.00  0.00    +0.105 A 
ATOM     23  C   UNL     1       6.689  -4.351   6.480  0.00  0.00    +0.029 A 
ATOM     24  C   UNL     1       6.124  -3.090   6.434  0.00  0.00    +0.005 A 
BRANCH  22  25
ATOM     25  S   UNL     1       6.913  -6.967   5.735  0.00  0.00    +0.056 S 
ATOM     26  O   UNL     1       7.545  -7.085   7.003  0.00  0.00    -0.153 OA
ATOM     27  O   UNL     1       5.915  -7.878   5.294  0.00  0.00    -0.153 OA
BRANCH  25  28
ATOM     28  N   UNL     1       8.118  -7.000   4.600  0.00  0.00    -0.204 NA
ATOM     29  H   UNL     1       8.300  -6.214   4.062  0.00  0.00    +0.144 HD
ATOM     30  H   UNL     1       8.643  -7.806   4.474  0.00  0.00    +0.144 HD
ENDBRANCH  25  28
ENDBRANCH  22  25
ENDBRANCH  18  19
ENDBRANCH  17  18
ENDBRANCH   1  17
TORSDOF 8
