REMARK  Name = ZINC12371029
REMARK  13 active torsions:
REMARK  status: ('A' for Active; 'I' for Inactive)
REMARK    1  A    between atoms: C_1  and  O_2
REMARK    2  A    between atoms: O_2  and  C_3
REMARK    3  A    between atoms: C_6  and  C_9
REMARK    4  A    between atoms: C_11  and  C_14
REMARK    5  A    between atoms: C_14  and  N_15
REMARK    6  A    between atoms: N_15  and  C_16
REMARK    7  A    between atoms: C_16  and  C_17
REMARK    8  A    between atoms: C_20  and  C_23
REMARK    9  A    between atoms: C_23  and  C_24
REMARK   10  A    between atoms: C_28  and  O_32
REMARK   11  A    between atoms: C_29  and  O_30
REMARK   12  A    between atoms: O_30  and  C_31
REMARK   13  A    between atoms: O_32  and  C_33
REMARK                            x       y       z     vdW  Elec       q    Type
REMARK                         _______ _______ _______ _____ _____    ______ ____
ROOT
ATOM      1  C   UNL     1       2.626   3.866   0.941  0.00  0.00    +0.075 C 
ATOM      2  N   UNL     1       2.937   2.791   1.556  0.00  0.00    -0.092 NA
ATOM      3  O   UNL     1       2.100   1.700   1.226  0.00  0.00    -0.390 OA
ATOM      4  C   UNL     1       1.417   2.032  -0.001  0.00  0.00    +0.214 C 
ATOM      5  C   UNL     1       1.438   3.579   0.043  0.00  0.00    +0.103 C 
ENDROOT
BRANCH   1   6
ATOM      6  C   UNL     1       3.321   5.195   1.085  0.00  0.00    +0.136 C 
BRANCH   6   7
ATOM      7  N   UNL     1       4.423   5.070   2.049  0.00  0.00    -0.304 NA
ATOM      8  H   UNL     1       5.128   4.310   1.682  0.00  0.00    +0.123 HD
BRANCH   7   9
ATOM      9  C   UNL     1       5.125   6.349   2.215  0.00  0.00    +0.159 C 
BRANCH   9  12
ATOM     10  C   UNL     1       8.155   5.816   4.209  0.00  0.00    +0.114 A 
ATOM     11  C   UNL     1       7.521   5.827   2.935  0.00  0.00    +0.077 A 
ATOM     12  C   UNL     1       6.245   6.182   3.209  0.00  0.00    +0.152 A 
ATOM     13  O   UNL     1       6.173   6.363   4.535  0.00  0.00    -0.358 OA
ATOM     14  N   UNL     1       7.233   6.151   5.077  0.00  0.00    -0.078 NA
BRANCH  10  18
ATOM     15  C   UNL     1      12.222   4.882   5.033  0.00  0.00    +0.120 A 
ATOM     16  C   UNL     1      11.365   5.221   6.071  0.00  0.00    +0.046 A 
ATOM     17  C   UNL     1      10.046   5.524   5.807  0.00  0.00    +0.014 A 
ATOM     18  C   UNL     1       9.574   5.490   4.496  0.00  0.00    +0.004 A 
ATOM     19  C   UNL     1      10.435   5.145   3.457  0.00  0.00    +0.014 A 
ATOM     20  C   UNL     1      11.754   4.848   3.726  0.00  0.00    +0.046 A 
BRANCH  15  22
ATOM     21  C   UNL     1      14.347   4.244   4.181  0.00  0.00    +0.277 C 
ATOM     22  O   UNL     1      13.521   4.584   5.296  0.00  0.00    -0.495 OA
ENDBRANCH  15  22
ENDBRANCH  10  18
ENDBRANCH   9  12
ENDBRANCH   7   9
ENDBRANCH   6   7
ENDBRANCH   1   6
BRANCH   4  23
ATOM     23  C   UNL     1      -0.018   1.503   0.010  0.00  0.00    +0.086 C 
BRANCH  23  24
ATOM     24  C   UNL     1       0.002  -0.004   0.002  0.00  0.00    +0.005 A 
ATOM     25  C   UNL     1      -0.104  -0.689  -1.195  0.00  0.00    +0.057 A 
ATOM     26  C   UNL     1      -0.086  -2.075  -1.208  0.00  0.00    +0.170 A 
ATOM     27  C   UNL     1       0.040  -2.779  -0.014  0.00  0.00    +0.211 A 
ATOM     28  C   UNL     1       0.148  -2.091   1.187  0.00  0.00    +0.208 A 
ATOM     29  C   UNL     1       0.133  -0.700   1.193  0.00  0.00    +0.169 A 
ATOM     30  O   UNL     1       0.031  -4.116  -0.293  0.00  0.00    -0.449 OA
ATOM     31  C   UNL     1       0.310  -4.217  -1.702  0.00  0.00    +0.467 C 
ATOM     32  O   UNL     1      -0.174  -2.970  -2.236  0.00  0.00    -0.452 OA
BRANCH  29  33
ATOM     33  O   UNL     1       0.244  -0.024   2.368  0.00  0.00    -0.491 OA
ATOM     34  C   UNL     1      -0.970   0.281   3.058  0.00  0.00    +0.277 C 
ENDBRANCH  29  33
BRANCH  28  35
ATOM     35  O   UNL     1       0.271  -2.776   2.356  0.00  0.00    -0.488 OA
ATOM     36  C   UNL     1       1.597  -3.086   2.790  0.00  0.00    +0.277 C 
ENDBRANCH  28  35
ENDBRANCH  23  24
ENDBRANCH   4  23
TORSDOF 10
