REMARK  Name = ZINC09835718
REMARK  6 active torsions:
REMARK  status: ('A' for Active; 'I' for Inactive)
REMARK    1  A    between atoms: C_1  and  C_2
REMARK    2  A    between atoms: N_16  and  C_17
REMARK    3  A    between atoms: C_20  and  C_23
REMARK    4  A    between atoms: N_25  and  C_26
REMARK    5  A    between atoms: C_26  and  C_27
REMARK    6  A    between atoms: C_27  and  C_28
REMARK                            x       y       z     vdW  Elec       q    Type
REMARK                         _______ _______ _______ _____ _____    ______ ____
ROOT
ATOM      1  C   UNL     1       1.047   6.541  -2.720  0.00  0.00    +0.042 A 
ATOM      2  C   UNL     1       0.082   7.496  -2.416  0.00  0.00    +0.024 A 
ATOM      3  C   UNL     1      -0.459   8.271  -3.416  0.00  0.00    +0.015 A 
ATOM      4  C   UNL     1      -0.047   8.091  -4.739  0.00  0.00    +0.037 A 
ATOM      5  C   UNL     1       0.918   7.126  -5.042  0.00  0.00    +0.015 A 
ATOM      6  C   UNL     1       1.460   6.358  -4.036  0.00  0.00    +0.024 A 
ENDROOT
BRANCH   1  21
ATOM      7  C   UNL     1       3.620   7.113  -1.845  0.00  0.00    +0.079 C 
ATOM      8  C   UNL     1       2.711   6.296  -0.925  0.00  0.00    +0.185 C 
ATOM      9  C   UNL     1       3.511   5.134  -0.318  0.00  0.00    +0.096 C 
ATOM     10  C   UNL     1       2.517   4.279   0.484  0.00  0.00    +0.114 C 
ATOM     11  C   UNL     1       1.798   5.181   1.462  0.00  0.00    +0.015 A 
ATOM     12  C   UNL     1       1.238   4.625   2.598  0.00  0.00    +0.009 A 
ATOM     13  C   UNL     1       0.567   5.425   3.504  0.00  0.00    +0.001 A 
ATOM     14  C   UNL     1       0.450   6.783   3.270  0.00  0.00    +0.004 A 
ATOM     15  C   UNL     1       1.012   7.342   2.141  0.00  0.00    +0.046 A 
ATOM     16  C   UNL     1       1.692   6.540   1.229  0.00  0.00    +0.128 A 
ATOM     17  O   UNL     1       2.239   7.126   0.132  0.00  0.00    -0.468 OA
ATOM     18  N   UNL     1       1.511   3.765  -0.460  0.00  0.00    -0.292 N 
ATOM     19  C   UNL     1       1.088   4.541  -1.471  0.00  0.00    +0.310 C 
ATOM     20  O   UNL     1       0.211   4.124  -2.203  0.00  0.00    -0.252 OA
ATOM     21  N   UNL     1       1.598   5.760  -1.704  0.00  0.00    -0.216 N 
ATOM     22  H   UNL     1       1.155   2.869  -0.352  0.00  0.00    +0.151 HD
ENDBRANCH   1  21
BRANCH   4  23
ATOM     23  C   UNL     1      -0.630   8.916  -5.815  0.00  0.00    +0.244 C 
ATOM     24  O   UNL     1      -0.271   8.757  -6.966  0.00  0.00    -0.270 OA
ATOM     25  N   UNL     1      -1.561   9.845  -5.522  0.00  0.00    -0.311 N 
ATOM     26  H   UNL     1      -1.848   9.972  -4.604  0.00  0.00    +0.149 HD
BRANCH  25  27
ATOM     27  C   UNL     1      -2.140  10.664  -6.590  0.00  0.00    +0.109 C 
BRANCH  27  28
ATOM     28  C   UNL     1      -3.163  11.632  -5.992  0.00  0.00    +0.054 C 
BRANCH  28  29
ATOM     29  C   UNL     1      -3.759  12.475  -7.090  0.00  0.00    -0.046 A 
ATOM     30  C   UNL     1      -3.172  13.679  -7.433  0.00  0.00    +0.004 A 
ATOM     31  C   UNL     1      -3.716  14.449  -8.444  0.00  0.00    +0.000 A 
ATOM     32  C   UNL     1      -4.852  14.021  -9.105  0.00  0.00    +0.000 A 
ATOM     33  C   UNL     1      -5.442  12.819  -8.758  0.00  0.00    +0.000 A 
ATOM     34  C   UNL     1      -4.895  12.046  -7.751  0.00  0.00    +0.004 A 
ENDBRANCH  28  29
ENDBRANCH  27  28
ENDBRANCH  25  27
ENDBRANCH   4  23
TORSDOF 5
