REMARK  Name = ZINC16515030
REMARK  8 active torsions:
REMARK  status: ('A' for Active; 'I' for Inactive)
REMARK    1  A    between atoms: C_1  and  C_2
REMARK    2  A    between atoms: C_5  and  C_8
REMARK    3  A    between atoms: C_8  and  C_9
REMARK    4  A    between atoms: C_17  and  C_20
REMARK    5  A    between atoms: C_20  and  N_21
REMARK    6  A    between atoms: N_21  and  S_22
REMARK    7  A    between atoms: S_22  and  C_25
REMARK    8  A    between atoms: C_29  and  N_31
REMARK                            x       y       z     vdW  Elec       q    Type
REMARK                         _______ _______ _______ _____ _____    ______ ____
ROOT
ATOM      1  C   UNL     1      -0.016   1.308   0.009  0.00  0.00    +0.145 A 
ATOM      2  N   UNL     1       0.002  -0.004   0.002  0.00  0.00    -0.208 NA
ATOM      3  C   UNL     1       1.174  -0.624  -0.013  0.00  0.00    +0.181 A 
ATOM      4  S   UNL     1       2.275   0.718  -0.016  0.00  0.00    +0.049 S 
ATOM      5  N   UNL     1       1.113   1.975   0.002  0.00  0.00    -0.192 NA
ATOM      6  N   UNL     1       1.447  -1.980  -0.022  0.00  0.00    -0.308 N 
ATOM      7  C   UNL     1       0.785  -2.642  -1.153  0.00  0.00    +0.107 C 
ATOM      8  C   UNL     1       0.988  -4.155  -1.049  0.00  0.00    +0.024 C 
ATOM      9  C   UNL     1       2.487  -4.466  -1.059  0.00  0.00    +0.007 C 
ATOM     10  C   UNL     1       3.161  -3.726   0.099  0.00  0.00    +0.024 C 
ATOM     11  C   UNL     1       2.895  -2.225  -0.037  0.00  0.00    +0.107 C 
ENDROOT
BRANCH   1  12
ATOM     12  C   UNL     1      -1.330   2.046   0.019  0.00  0.00    +0.112 C 
BRANCH  12  17
ATOM     13  C   UNL     1      -2.983   2.959   5.481  0.00  0.00    +0.044 C 
ATOM     14  C   UNL     1      -2.552   2.722   4.056  0.00  0.00    -0.050 A 
ATOM     15  C   UNL     1      -1.768   3.656   3.406  0.00  0.00    +0.003 A 
ATOM     16  C   UNL     1      -1.372   3.438   2.100  0.00  0.00    +0.004 A 
ATOM     17  C   UNL     1      -1.761   2.284   1.444  0.00  0.00    -0.040 A 
ATOM     18  C   UNL     1      -2.550   1.353   2.092  0.00  0.00    +0.004 A 
ATOM     19  C   UNL     1      -2.942   1.569   3.400  0.00  0.00    +0.003 A 
ENDBRANCH  12  17
ENDBRANCH   1  12
BRANCH   9  20
ATOM     20  C   UNL     1       2.698  -5.973  -0.895  0.00  0.00    +0.109 C 
BRANCH  20  21
ATOM     21  N   UNL     1       2.157  -6.672  -2.063  0.00  0.00    -0.190 NA
ATOM     22  H   UNL     1       1.560  -6.209  -2.672  0.00  0.00    +0.148 HD
BRANCH  21  23
ATOM     23  S   UNL     1       2.564  -8.252  -2.344  0.00  0.00    +0.058 S 
ATOM     24  O   UNL     1       1.869  -8.648  -3.519  0.00  0.00    -0.153 OA
ATOM     25  O   UNL     1       3.978  -8.333  -2.232  0.00  0.00    -0.153 OA
BRANCH  23  26
ATOM     26  C   UNL     1       1.899  -9.205  -1.020  0.00  0.00    +0.107 A 
ATOM     27  C   UNL     1       2.654  -9.432   0.116  0.00  0.00    +0.030 A 
ATOM     28  C   UNL     1       2.131 -10.175   1.157  0.00  0.00    +0.024 A 
ATOM     29  C   UNL     1       0.854 -10.701   1.058  0.00  0.00    +0.071 A 
ATOM     30  C   UNL     1       0.101 -10.478  -0.081  0.00  0.00    +0.146 A 
ATOM     31  C   UNL     1       0.624  -9.730  -1.119  0.00  0.00    +0.062 A 
ATOM     32 CL   UNL     1       0.199 -11.640   2.362  0.00  0.00    -0.081 Cl
BRANCH  30  33
ATOM     33  N   UNL     1      -1.264 -11.039  -0.187  0.00  0.00    +0.058 N 
ATOM     34  O   UNL     1      -1.927 -10.842  -1.189  0.00  0.00    -0.126 OA
ATOM     35  O   UNL     1      -1.724 -11.698   0.728  0.00  0.00    -0.126 OA
ENDBRANCH  30  33
ENDBRANCH  23  26
ENDBRANCH  21  23
ENDBRANCH  20  21
ENDBRANCH   9  20
TORSDOF 7
