REMARK  Name = ZINC58011374
REMARK  6 active torsions:
REMARK  status: ('A' for Active; 'I' for Inactive)
REMARK    1  A    between atoms: C_3  and  O_8
REMARK    2  A    between atoms: O_8  and  C_9
REMARK    3  A    between atoms: C_9  and  C_10
REMARK    4  A    between atoms: C_10  and  C_12
REMARK    5  A    between atoms: C_10  and  O_24
REMARK    6  A    between atoms: C_12  and  N_13
REMARK                            x       y       z     vdW  Elec       q    Type
REMARK                         _______ _______ _______ _____ _____    ______ ____
ROOT
ATOM      1  C   UNL     1       7.247   1.479  -0.186  0.00  0.00    +0.152 C 
ENDROOT
BRANCH   1   2
ATOM      2  N   UNL     1       8.397   2.387  -0.193  0.00  0.00    -0.222 N 
ATOM      3  C   UNL     1       8.918   2.944  -1.307  0.00  0.00    +0.247 C 
ATOM      4  O   UNL     1       8.541   2.795  -2.449  0.00  0.00    -0.273 OA
ATOM      5  C   UNL     1      10.070   3.790  -0.827  0.00  0.00    +0.113 C 
ATOM      6  C   UNL     1       9.864   5.264  -1.200  0.00  0.00    +0.035 C 
ATOM      7  C   UNL     1      11.295   5.778  -1.504  0.00  0.00    +0.003 C 
ATOM      8  C   UNL     1      11.955   4.565  -2.206  0.00  0.00    +0.003 C 
ATOM      9  C   UNL     1      11.391   3.338  -1.455  0.00  0.00    +0.035 C 
ATOM     10  N   UNL     1      10.079   3.608   0.625  0.00  0.00    -0.285 N 
ATOM     11  C   UNL     1       9.058   2.773   0.906  0.00  0.00    +0.309 C 
ATOM     12  O   UNL     1       8.773   2.408   2.030  0.00  0.00    -0.252 OA
ATOM     13  H   UNL     1      10.694   4.010   1.259  0.00  0.00    +0.151 HD
ENDBRANCH   1   2
BRANCH   1  14
ATOM     14  C   UNL     1       5.958   2.291  -0.043  0.00  0.00    +0.170 C 
BRANCH  14  15
ATOM     15  O   UNL     1       5.991   3.026   1.181  0.00  0.00    -0.387 OA
ATOM     16  H   UNL     1       6.069   2.473   1.970  0.00  0.00    +0.210 HD
ENDBRANCH  14  15
BRANCH  14  17
ATOM     17  C   UNL     1       4.757   1.343  -0.037  0.00  0.00    +0.261 C 
BRANCH  17  18
ATOM     18  O   UNL     1       3.548   2.105  -0.021  0.00  0.00    -0.489 OA
BRANCH  18  21
ATOM     19  C   UNL     1      -0.017   1.378   0.010  0.00  0.00    +0.005 A 
ATOM     20  C   UNL     1       1.170   2.087   0.002  0.00  0.00    +0.046 A 
ATOM     21  C   UNL     1       2.381   1.410  -0.013  0.00  0.00    +0.122 A 
ATOM     22  C   UNL     1       2.398   0.023  -0.021  0.00  0.00    +0.061 A 
ATOM     23  C   UNL     1       1.208  -0.682  -0.013  0.00  0.00    +0.021 A 
ATOM     24  C   UNL     1       0.002  -0.004   0.002  0.00  0.00    +0.015 A 
ATOM     25 BR   UNL     1       1.230  -2.573  -0.024  0.00  0.00    -0.050 Br
ENDBRANCH  18  21
ENDBRANCH  17  18
ENDBRANCH  14  17
ENDBRANCH   1  14
TORSDOF 6
