REMARK  Name = ZINC09345427
REMARK  8 active torsions:
REMARK  status: ('A' for Active; 'I' for Inactive)
REMARK    1  A    between atoms: C_1  and  O_2
REMARK    2  A    between atoms: O_2  and  C_3
REMARK    3  A    between atoms: C_6  and  C_11
REMARK    4  A    between atoms: C_8  and  O_9
REMARK    5  A    between atoms: O_9  and  C_10
REMARK    6  A    between atoms: C_22  and  C_24
REMARK    7  A    between atoms: C_34  and  S_36
REMARK    8  A    between atoms: S_36  and  C_37
REMARK                            x       y       z     vdW  Elec       q    Type
REMARK                         _______ _______ _______ _____ _____    ______ ____
ROOT
ATOM      1  C   UNL     1      -4.762  -2.789  -0.049  0.00  0.00    +0.159 C 
ATOM      2  C   UNL     1      -5.302  -2.839   1.363  0.00  0.00    +0.025 C 
ATOM      3  C   UNL     1      -6.472  -2.218   1.617  0.00  0.00    +0.058 C 
ATOM      4  C   UNL     1      -6.995  -2.285   3.006  0.00  0.00    +0.040 A 
ATOM      5  C   UNL     1      -7.998  -1.431   3.445  0.00  0.00    +0.013 A 
ATOM      6  C   UNL     1      -8.454  -1.526   4.746  0.00  0.00    +0.001 A 
ATOM      7  C   UNL     1      -7.913  -2.466   5.606  0.00  0.00    +0.004 A 
ATOM      8  C   UNL     1      -6.915  -3.320   5.176  0.00  0.00    +0.046 A 
ATOM      9  C   UNL     1      -6.449  -3.237   3.876  0.00  0.00    +0.131 A 
ATOM     10  O   UNL     1      -5.474  -4.067   3.425  0.00  0.00    -0.479 OA
ATOM     11  C   UNL     1      -4.560  -3.550   2.457  0.00  0.00    +0.234 C 
ATOM     12  N   UNL     1      -7.150  -1.557   0.647  0.00  0.00    -0.326 N 
ATOM     13  C   UNL     1      -6.752  -1.464  -0.604  0.00  0.00    +0.216 C 
ATOM     14  N   UNL     1      -5.577  -2.049  -1.021  0.00  0.00    -0.209 N 
ATOM     15  N   UNL     1      -5.447  -1.767  -2.383  0.00  0.00    -0.239 N 
ATOM     16  C   UNL     1      -6.544  -1.022  -2.728  0.00  0.00    +0.174 C 
ATOM     17  N   UNL     1      -7.299  -0.857  -1.672  0.00  0.00    -0.192 NA
ATOM     18  H   UNL     1      -7.984  -1.125   0.891  0.00  0.00    +0.169 HD
ATOM     19  H   UNL     1      -4.725  -2.044  -2.968  0.00  0.00    +0.172 HD
ENDROOT
BRANCH   1  23
ATOM     20  C   UNL     1      -0.882  -0.993   0.074  0.00  0.00    +0.162 A 
ATOM     21  C   UNL     1      -2.017  -0.203   0.158  0.00  0.00    +0.050 A 
ATOM     22  C   UNL     1      -3.270  -0.786   0.117  0.00  0.00    +0.009 A 
ATOM     23  C   UNL     1      -3.394  -2.158  -0.006  0.00  0.00    -0.017 A 
ATOM     24  C   UNL     1      -2.265  -2.952  -0.090  0.00  0.00    +0.055 A 
ATOM     25  C   UNL     1      -1.007  -2.373  -0.057  0.00  0.00    +0.162 A 
BRANCH  20  27
ATOM     26  C   UNL     1       0.402   1.001   0.248  0.00  0.00    +0.277 C 
ATOM     27  O   UNL     1       0.351  -0.421   0.113  0.00  0.00    -0.491 OA
ENDBRANCH  20  27
BRANCH  25  28
ATOM     28  O   UNL     1       0.104  -3.152  -0.145  0.00  0.00    -0.491 OA
ATOM     29  C   UNL     1      -0.099  -4.560  -0.277  0.00  0.00    +0.277 C 
ENDBRANCH  25  28
ENDBRANCH   1  23
BRANCH  11  30
ATOM     30  C   UNL     1      -3.617  -2.585   3.127  0.00  0.00    -0.003 A 
ATOM     31  C   UNL     1      -4.114  -1.587   3.945  0.00  0.00    +0.007 A 
ATOM     32  C   UNL     1      -3.249  -0.702   4.560  0.00  0.00    +0.000 A 
ATOM     33  C   UNL     1      -1.886  -0.815   4.358  0.00  0.00    +0.000 A 
ATOM     34  C   UNL     1      -1.389  -1.813   3.542  0.00  0.00    +0.000 A 
ATOM     35  C   UNL     1      -2.254  -2.701   2.930  0.00  0.00    +0.007 A 
ENDBRANCH  11  30
BRANCH  16  36
ATOM     36  S   UNL     1      -6.886  -0.392  -4.338  0.00  0.00    -0.092 S 
ATOM     37  C   UNL     1      -8.458   0.492  -4.138  0.00  0.00    +0.093 C 
ENDBRANCH  16  36
TORSDOF 5
