REMARK  Name = ZINC67638872
REMARK  8 active torsions:
REMARK  status: ('A' for Active; 'I' for Inactive)
REMARK    1  A    between atoms: C_1  and  C_2
REMARK    2  A    between atoms: N_6  and  C_7
REMARK    3  A    between atoms: C_7  and  C_8
REMARK    4  A    between atoms: C_8  and  C_10
REMARK    5  A    between atoms: C_8  and  C_11
REMARK    6  A    between atoms: C_11  and  N_12
REMARK    7  A    between atoms: C_18  and  N_21
REMARK    8  A    between atoms: N_21  and  C_22
REMARK                            x       y       z     vdW  Elec       q    Type
REMARK                         _______ _______ _______ _____ _____    ______ ____
ROOT
ATOM      1  N   UNL     1      -2.756   0.839   4.764  0.00  0.00    -0.299 N 
ATOM      2  C   UNL     1      -2.988   1.373   5.979  0.00  0.00    +0.302 C 
ATOM      3  O   UNL     1      -2.064   1.560   6.747  0.00  0.00    -0.253 OA
ATOM      4  N   UNL     1      -4.244   1.699   6.344  0.00  0.00    -0.284 N 
ATOM      5  C   UNL     1      -5.449   1.521   5.520  0.00  0.00    +0.111 C 
ATOM      6  C   UNL     1      -6.651   2.007   6.356  0.00  0.00    +0.043 C 
ATOM      7  C   UNL     1      -6.126   1.904   7.813  0.00  0.00    +0.089 C 
ATOM      8  C   UNL     1      -4.638   2.288   7.637  0.00  0.00    +0.131 C 
ATOM      9  H   UNL     1      -3.494   0.689   4.151  0.00  0.00    +0.150 HD
ENDROOT
BRANCH   7  10
ATOM     10  N   UNL     1      -6.816   2.854   8.688  0.00  0.00    -0.339 N 
ATOM     11  H   UNL     1      -7.212   3.658   8.316  0.00  0.00    +0.146 HD
BRANCH  10  12
ATOM     12  C   UNL     1      -6.904   2.603  10.060  0.00  0.00    +0.027 A 
ATOM     13  C   UNL     1      -6.333   1.456  10.595  0.00  0.00    +0.023 A 
ATOM     14  C   UNL     1      -6.422   1.211  11.952  0.00  0.00    +0.002 A 
ATOM     15  C   UNL     1      -7.079   2.107  12.776  0.00  0.00    +0.000 A 
ATOM     16  C   UNL     1      -7.649   3.249  12.246  0.00  0.00    +0.002 A 
ATOM     17  C   UNL     1      -7.559   3.503  10.891  0.00  0.00    +0.023 A 
ENDBRANCH  10  12
ENDBRANCH   7  10
BRANCH   1  18
ATOM     18  C   UNL     1      -1.391   0.484   4.367  0.00  0.00    +0.110 C 
BRANCH  18  19
ATOM     19  C   UNL     1      -1.406  -0.098   2.953  0.00  0.00    +0.023 C 
ATOM     20  C   UNL     1      -2.183  -1.416   2.951  0.00  0.00    +0.011 C 
BRANCH  19  21
ATOM     21  C   UNL     1       0.030  -0.353   2.491  0.00  0.00    +0.127 C 
BRANCH  21  27
ATOM     22  C   UNL     1      -0.018   1.503   0.010  0.00  0.00    +0.084 C 
ATOM     23  C   UNL     1       0.002  -0.004   0.002  0.00  0.00    +0.084 A 
ATOM     24  N   UNL     1       0.008  -0.759  -1.063  0.00  0.00    -0.350 N 
ATOM     25  C   UNL     1       0.028  -2.047  -0.691  0.00  0.00    +0.101 A 
ATOM     26  C   UNL     1       0.034  -2.093   0.655  0.00  0.00    +0.104 A 
ATOM     27  N   UNL     1       0.023  -0.797   1.095  0.00  0.00    -0.336 N 
ATOM     28  H   UNL     1      -0.000  -0.438  -1.978  0.00  0.00    +0.166 HD
ENDBRANCH  21  27
ENDBRANCH  19  21
ENDBRANCH  18  19
ENDBRANCH   1  18
TORSDOF 6
