REMARK  Name = ZINC39966307
REMARK  11 active torsions:
REMARK  status: ('A' for Active; 'I' for Inactive)
REMARK    1  A    between atoms: C_1  and  C_2
REMARK    2  A    between atoms: C_3  and  C_33
REMARK    3  A    between atoms: C_4  and  N_12
REMARK    4  A    between atoms: C_6  and  C_7
REMARK    5  A    between atoms: N_9  and  C_10
REMARK    6  A    between atoms: N_9  and  C_11
REMARK    7  A    between atoms: C_13  and  C_15
REMARK    8  A    between atoms: C_15  and  S_16
REMARK    9  A    between atoms: S_16  and  C_17
REMARK   10  A    between atoms: C_20  and  C_23
REMARK   11  A    between atoms: N_21  and  C_22
REMARK                            x       y       z     vdW  Elec       q    Type
REMARK                         _______ _______ _______ _____ _____    ______ ____
ROOT
ATOM      1  C   UNL     1       1.548  -5.595  -2.249  0.00  0.00    +0.173 C 
ENDROOT
BRANCH   1   3
ATOM      2  N   UNL     1       1.277  -3.288  -1.397  0.00  0.00    -0.278 N 
ATOM      3  C   UNL     1       1.321  -4.609  -1.132  0.00  0.00    +0.228 C 
ATOM      4  O   UNL     1       1.176  -5.005   0.005  0.00  0.00    -0.275 OA
ATOM      5  H   UNL     1       1.392  -2.972  -2.307  0.00  0.00    +0.155 HD
BRANCH   2   9
ATOM      6  C   UNL     1       0.676   1.213   0.742  0.00  0.00    +0.046 C 
ATOM      7  C   UNL     1       0.773  -0.290   0.721  0.00  0.00    -0.012 A 
ATOM      8  C   UNL     1       0.993  -0.994  -0.454  0.00  0.00    +0.084 A 
ATOM      9  C   UNL     1       1.068  -2.384  -0.372  0.00  0.00    +0.090 A 
ATOM     10  S   UNL     1       0.845  -2.704   1.261  0.00  0.00    -0.067 S 
ATOM     11  C   UNL     1       0.656  -1.038   1.863  0.00  0.00    +0.080 A 
BRANCH  11  12
ATOM     12  C   UNL     1       0.430  -0.582   3.236  0.00  0.00    +0.253 C 
ATOM     13  O   UNL     1       0.461   0.607   3.495  0.00  0.00    -0.269 OA
ATOM     14  N   UNL     1       0.188  -1.478   4.213  0.00  0.00    -0.303 N 
ATOM     15  C   UNL     1      -0.069  -1.020   5.580  0.00  0.00    +0.132 C 
ATOM     16  C   UNL     1       0.181  -2.911   3.907  0.00  0.00    +0.132 C 
ENDBRANCH  11  12
BRANCH   8  17
ATOM     17  C   UNL     1       1.136  -0.316  -1.707  0.00  0.00    +0.102 C 
ATOM     18  N   UNL     1       1.250   0.221  -2.702  0.00  0.00    -0.191 NA
ENDBRANCH   8  17
ENDBRANCH   2   9
ENDBRANCH   1   3
BRANCH   1  19
ATOM     19  S   UNL     1       1.554  -7.280  -1.577  0.00  0.00    -0.077 S 
BRANCH  19  20
ATOM     20  C   UNL     1       1.828  -8.300  -2.988  0.00  0.00    +0.192 A 
ATOM     21  N   UNL     1       1.992  -7.891  -4.224  0.00  0.00    -0.122 NA
ATOM     22  N   UNL     1       2.169  -8.899  -5.003  0.00  0.00    -0.128 NA
ATOM     23  C   UNL     1       2.129 -10.013  -4.310  0.00  0.00    +0.165 A 
ATOM     24  N   UNL     1       1.915  -9.665  -2.997  0.00  0.00    -0.305 N 
ATOM     25  C   UNL     1       1.801 -10.567  -1.849  0.00  0.00    +0.153 C 
BRANCH  23  26
ATOM     26  C   UNL     1       2.289 -11.384  -4.841  0.00  0.00    +0.030 A 
ATOM     27  C   UNL     1       1.453 -12.380  -4.431  0.00  0.00    +0.057 A 
ATOM     28  S   UNL     1       2.069 -13.779  -5.353  0.00  0.00    -0.101 S 
ATOM     29  C   UNL     1       3.378 -12.947  -6.215  0.00  0.00    -0.006 A 
ATOM     30  C   UNL     1       3.304 -11.666  -5.778  0.00  0.00    -0.026 A 
ATOM     31  C   UNL     1       4.275 -10.590  -6.255  0.00  0.00    +0.036 C 
ATOM     32  C   UNL     1       4.801 -10.942  -7.641  0.00  0.00    +0.005 C 
ATOM     33  C   UNL     1       6.067 -11.791  -7.539  0.00  0.00    +0.001 C 
ATOM     34  C   UNL     1       5.756 -13.115  -6.848  0.00  0.00    +0.005 C 
ATOM     35  C   UNL     1       4.330 -13.530  -7.209  0.00  0.00    +0.043 C 
ENDBRANCH  23  26
ENDBRANCH  19  20
ENDBRANCH   1  19
TORSDOF 7
