REMARK  Name = ZINC37444170
REMARK  10 active torsions:
REMARK  status: ('A' for Active; 'I' for Inactive)
REMARK    1  A    between atoms: C_1  and  C_2
REMARK    2  A    between atoms: C_2  and  O_3
REMARK    3  A    between atoms: O_3  and  C_4
REMARK    4  A    between atoms: C_9  and  C_10
REMARK    5  A    between atoms: C_10  and  N_11
REMARK    6  A    between atoms: C_24  and  C_25
REMARK    7  A    between atoms: C_24  and  C_26
REMARK    8  A    between atoms: N_28  and  C_29
REMARK    9  A    between atoms: C_34  and  C_39
REMARK   10  A    between atoms: C_36  and  C_38
REMARK                            x       y       z     vdW  Elec       q    Type
REMARK                         _______ _______ _______ _____ _____    ______ ____
ROOT
ATOM      1  N   UNL     1       3.442  -0.717  -3.165  0.00  0.00    -0.275 N 
ATOM      2  C   UNL     1       3.537   0.381  -2.380  0.00  0.00    +0.283 C 
ATOM      3  O   UNL     1       2.564   1.057  -2.106  0.00  0.00    -0.267 OA
ATOM      4  C   UNL     1       4.890   0.717  -1.870  0.00  0.00    +0.198 A 
ATOM      5  N   UNL     1       5.248   1.589  -0.973  0.00  0.00    -0.223 NA
ATOM      6  C   UNL     1       6.573   1.542  -0.813  0.00  0.00    +0.090 A 
ATOM      7  C   UNL     1       7.439   2.263   0.025  0.00  0.00    +0.030 A 
ATOM      8  C   UNL     1       8.774   1.963  -0.053  0.00  0.00    +0.002 A 
ATOM      9  C   UNL     1       9.267   0.995  -0.914  0.00  0.00    +0.002 A 
ATOM     10  C   UNL     1       8.441   0.269  -1.753  0.00  0.00    +0.028 A 
ATOM     11  C   UNL     1       7.078   0.550  -1.699  0.00  0.00    +0.069 A 
ATOM     12  N   UNL     1       6.005   0.056  -2.358  0.00  0.00    -0.317 N 
ATOM     13  C   UNL     1       5.902  -0.960  -3.407  0.00  0.00    +0.159 C 
ATOM     14  C   UNL     1       4.544  -1.662  -3.301  0.00  0.00    +0.129 C 
ATOM     15  C   UNL     1       4.554  -2.589  -2.084  0.00  0.00    +0.043 C 
ENDROOT
BRANCH  14  16
ATOM     16  C   UNL     1       4.326  -2.491  -4.541  0.00  0.00    +0.238 C 
ATOM     17  O   UNL     1       4.430  -3.698  -4.489  0.00  0.00    -0.273 OA
ATOM     18  N   UNL     1       4.015  -1.891  -5.707  0.00  0.00    -0.310 N 
ATOM     19  H   UNL     1       3.858  -0.934  -5.733  0.00  0.00    +0.149 HD
BRANCH  18  20
ATOM     20  C   UNL     1       3.915  -2.683  -6.935  0.00  0.00    +0.076 C 
ATOM     21  C   UNL     1       2.496  -3.240  -7.068  0.00  0.00    +0.022 C 
ATOM     22  C   UNL     1       2.392  -4.068  -8.350  0.00  0.00    +0.002 C 
ATOM     23  C   UNL     1       2.707  -3.181  -9.557  0.00  0.00    +0.003 C 
ATOM     24  C   UNL     1       4.125  -2.624  -9.424  0.00  0.00    -0.009 C 
ATOM     25  C   UNL     1       4.230  -1.796  -8.141  0.00  0.00    +0.009 C 
ATOM     26  C   UNL     1       5.648  -1.239  -8.008  0.00  0.00    +0.009 C 
ATOM     27  C   UNL     1       5.124  -3.781  -9.367  0.00  0.00    +0.008 C 
ENDBRANCH  18  20
ENDBRANCH  14  16
BRANCH   1  28
ATOM     28  C   UNL     1       2.196  -0.966  -3.894  0.00  0.00    +0.148 C 
BRANCH  28  34
ATOM     29  C   UNL     1       0.563  -1.506  -2.069  0.00  0.00    +0.125 A 
ATOM     30  C   UNL     1      -0.218  -2.410  -1.364  0.00  0.00    +0.046 A 
ATOM     31  C   UNL     1      -0.206  -3.748  -1.710  0.00  0.00    +0.004 A 
ATOM     32  C   UNL     1       0.583  -4.185  -2.758  0.00  0.00    +0.001 A 
ATOM     33  C   UNL     1       1.363  -3.286  -3.461  0.00  0.00    +0.009 A 
ATOM     34  C   UNL     1       1.350  -1.946  -3.123  0.00  0.00    +0.012 A 
BRANCH  29  35
ATOM     35  O   UNL     1       0.553  -0.190  -1.731  0.00  0.00    -0.492 OA
BRANCH  35  37
ATOM     36  C   UNL     1      -0.161   1.700  -0.405  0.00  0.00    +0.048 C 
ATOM     37  C   UNL     1      -0.281   0.192  -0.635  0.00  0.00    +0.225 C 
ENDBRANCH  35  37
ENDBRANCH  29  35
ENDBRANCH  28  34
ENDBRANCH   1  28
TORSDOF 6
