REMARK  Name = ZINC59385847
REMARK  9 active torsions:
REMARK  status: ('A' for Active; 'I' for Inactive)
REMARK    1  A    between atoms: C_1  and  C_2
REMARK    2  A    between atoms: C_3  and  C_17
REMARK    3  A    between atoms: C_4  and  C_10
REMARK    4  A    between atoms: C_15  and  O_16
REMARK    5  A    between atoms: N_19  and  N_20
REMARK    6  A    between atoms: C_21  and  C_22
REMARK    7  A    between atoms: C_25  and  N_28
REMARK    8  A    between atoms: N_28  and  C_29
REMARK    9  A    between atoms: N_28  and  C_30
REMARK                            x       y       z     vdW  Elec       q    Type
REMARK                         _______ _______ _______ _____ _____    ______ ____
ROOT
ATOM      1  C   UNL     1       0.566   1.310   0.469  0.00  0.00    +0.061 C 
ATOM      2  C   UNL     1       0.315  -0.148   0.181  0.00  0.00    +0.019 C 
ATOM      3  C   UNL     1      -0.954  -0.593   0.068  0.00  0.00    +0.057 C 
ATOM      4  C   UNL     1      -1.162  -2.066  -0.222  0.00  0.00    +0.145 C 
ATOM      5  N   UNL     1       0.047  -2.896  -0.358  0.00  0.00    -0.288 N 
ATOM      6  C   UNL     1       1.250  -2.305  -0.218  0.00  0.00    +0.304 C 
ATOM      7  O   UNL     1       2.254  -2.982  -0.329  0.00  0.00    -0.252 OA
ATOM      8  N   UNL     1       1.376  -0.996   0.033  0.00  0.00    -0.273 N 
ATOM      9  H   UNL     1      -0.022  -3.846  -0.544  0.00  0.00    +0.151 HD
ATOM     10  H   UNL     1       2.270  -0.630   0.119  0.00  0.00    +0.156 HD
ENDROOT
BRANCH   4  11
ATOM     11  C   UNL     1      -1.950  -2.180  -1.502  0.00  0.00    +0.019 A 
ATOM     12  C   UNL     1      -2.071  -1.088  -2.340  0.00  0.00    +0.009 A 
ATOM     13  C   UNL     1      -2.794  -1.192  -3.513  0.00  0.00    +0.001 A 
ATOM     14  C   UNL     1      -3.397  -2.389  -3.853  0.00  0.00    +0.004 A 
ATOM     15  C   UNL     1      -3.278  -3.484  -3.019  0.00  0.00    +0.046 A 
ATOM     16  C   UNL     1      -2.549  -3.384  -1.843  0.00  0.00    +0.122 A 
BRANCH  16  17
ATOM     17  O   UNL     1      -2.426  -4.461  -1.024  0.00  0.00    -0.506 OA
ATOM     18  H   UNL     1      -3.163  -4.573  -0.408  0.00  0.00    +0.292 HD
ENDBRANCH  16  17
ENDBRANCH   4  11
BRANCH   3  19
ATOM     19  C   UNL     1      -2.055   0.286   0.216  0.00  0.00    +0.263 C 
ATOM     20  O   UNL     1      -1.866   1.483   0.341  0.00  0.00    -0.269 OA
ATOM     21  N   UNL     1      -3.311  -0.201   0.218  0.00  0.00    -0.203 N 
ATOM     22  H   UNL     1      -3.467  -1.142   0.040  0.00  0.00    +0.178 HD
BRANCH  21  23
ATOM     23  N   UNL     1      -4.393   0.651   0.478  0.00  0.00    -0.187 NA
ATOM     24  C   UNL     1      -5.593   0.165   0.577  0.00  0.00    +0.138 C 
BRANCH  24  25
ATOM     25  C   UNL     1      -6.730   1.062   0.851  0.00  0.00    -0.005 A 
ATOM     26  C   UNL     1      -6.520   2.436   0.998  0.00  0.00    +0.011 A 
ATOM     27  C   UNL     1      -7.586   3.270   1.253  0.00  0.00    +0.024 A 
ATOM     28  C   UNL     1      -8.870   2.747   1.364  0.00  0.00    +0.029 A 
ATOM     29  C   UNL     1      -9.083   1.381   1.219  0.00  0.00    +0.024 A 
ATOM     30  C   UNL     1      -8.023   0.540   0.958  0.00  0.00    +0.011 A 
BRANCH  28  31
ATOM     31  N   UNL     1      -9.946   3.595   1.623  0.00  0.00    -0.336 N 
ATOM     32  C   UNL     1      -9.724   5.035   1.777  0.00  0.00    +0.129 C 
ATOM     33  C   UNL     1     -11.300   3.047   1.740  0.00  0.00    +0.129 C 
ENDBRANCH  28  31
ENDBRANCH  24  25
ENDBRANCH  21  23
ENDBRANCH   3  19
TORSDOF 6
