REMARK  Name = ZINC16817927
REMARK  11 active torsions:
REMARK  status: ('A' for Active; 'I' for Inactive)
REMARK    1  A    between atoms: C_1  and  C_2
REMARK    2  A    between atoms: C_2  and  C_34
REMARK    3  A    between atoms: C_3  and  C_4
REMARK    4  A    between atoms: N_6  and  C_7
REMARK    5  A    between atoms: C_8  and  C_18
REMARK    6  A    between atoms: C_9  and  C_12
REMARK    7  A    between atoms: C_18  and  O_20
REMARK    8  A    between atoms: O_20  and  C_21
REMARK    9  A    between atoms: C_21  and  C_22
REMARK   10  A    between atoms: C_25  and  C_31
REMARK   11  A    between atoms: C_27  and  N_28
REMARK                            x       y       z     vdW  Elec       q    Type
REMARK                         _______ _______ _______ _____ _____    ______ ____
ROOT
ATOM      1  C   UNL     1      -0.851   1.194  -3.422  0.00  0.00    +0.087 A 
ATOM      2  C   UNL     1      -1.838   1.681  -4.270  0.00  0.00    +0.095 A 
ATOM      3  C   UNL     1      -2.442   0.728  -5.182  0.00  0.00    +0.005 A 
ATOM      4  C   UNL     1      -1.987  -0.549  -5.121  0.00  0.00    +0.056 A 
ATOM      5  S   UNL     1      -0.744  -0.481  -3.848  0.00  0.00    -0.080 S 
ENDROOT
BRANCH   3   6
ATOM      6  C   UNL     1      -3.505   1.130  -6.134  0.00  0.00    -0.017 A 
ATOM      7  C   UNL     1      -4.615   1.843  -5.684  0.00  0.00    +0.008 A 
ATOM      8  C   UNL     1      -5.599   2.219  -6.575  0.00  0.00    +0.001 A 
ATOM      9  C   UNL     1      -5.491   1.879  -7.912  0.00  0.00    +0.000 A 
ATOM     10  C   UNL     1      -4.394   1.168  -8.364  0.00  0.00    +0.001 A 
ATOM     11  C   UNL     1      -3.401   0.791  -7.483  0.00  0.00    +0.008 A 
ENDBRANCH   3   6
BRANCH   1  14
ATOM     12  C   UNL     1       0.802   1.240  -1.730  0.00  0.00    +0.241 C 
ATOM     13  O   UNL     1       0.999   0.052  -1.903  0.00  0.00    -0.270 OA
ATOM     14  N   UNL     1      -0.124   1.884  -2.468  0.00  0.00    -0.276 N 
ATOM     15  H   UNL     1      -0.280   2.831  -2.330  0.00  0.00    +0.156 HD
BRANCH  12  18
ATOM     16  C   UNL     1       2.434  -0.189   0.078  0.00  0.00    +0.039 C 
ATOM     17  C   UNL     1       2.409   1.318   0.087  0.00  0.00    -0.071 C 
ATOM     18  C   UNL     1       1.579   1.974  -0.721  0.00  0.00    +0.066 C 
ATOM     19  C   UNL     1       3.322   2.082   1.010  0.00  0.00    +0.039 C 
ENDBRANCH  12  18
ENDBRANCH   1  14
BRANCH   2  20
ATOM     20  C   UNL     1      -2.247   3.085  -4.245  0.00  0.00    +0.342 C 
ATOM     21  O   UNL     1      -1.685   3.895  -4.956  0.00  0.00    -0.245 OA
BRANCH  20  22
ATOM     22  O   UNL     1      -3.248   3.481  -3.432  0.00  0.00    -0.456 OA
BRANCH  22  23
ATOM     23  C   UNL     1      -3.601   4.889  -3.458  0.00  0.00    +0.270 C 
BRANCH  23  24
ATOM     24  C   UNL     1      -4.731   5.142  -2.494  0.00  0.00    +0.020 A 
ATOM     25  C   UNL     1      -5.256   4.094  -1.757  0.00  0.00    +0.010 A 
ATOM     26  C   UNL     1      -6.289   4.319  -0.872  0.00  0.00    +0.013 A 
ATOM     27  C   UNL     1      -6.806   5.607  -0.719  0.00  0.00    +0.039 A 
ATOM     28  C   UNL     1      -6.272   6.659  -1.465  0.00  0.00    +0.046 A 
ATOM     29  C   UNL     1      -5.235   6.421  -2.343  0.00  0.00    +0.133 A 
BRANCH  27  30
ATOM     30  C   UNL     1      -7.913   5.855   0.228  0.00  0.00    +0.242 C 
ATOM     31  O   UNL     1      -8.361   6.978   0.358  0.00  0.00    -0.270 OA
ATOM     32  N   UNL     1      -8.427   4.837   0.946  0.00  0.00    -0.325 N 
ATOM     33  H   UNL     1      -8.069   3.942   0.842  0.00  0.00    +0.145 HD
ATOM     34  H   UNL     1      -9.154   5.000   1.567  0.00  0.00    +0.145 HD
ENDBRANCH  27  30
BRANCH  29  35
ATOM     35  N   UNL     1      -4.663   7.537  -3.131  0.00  0.00    +0.057 N 
ATOM     36  O   UNL     1      -5.106   8.664  -3.000  0.00  0.00    -0.126 OA
ATOM     37  O   UNL     1      -3.751   7.328  -3.910  0.00  0.00    -0.126 OA
ENDBRANCH  29  35
ENDBRANCH  23  24
ENDBRANCH  22  23
ENDBRANCH  20  22
ENDBRANCH   2  20
TORSDOF 9
