REMARK  Name = ZINC20238975
REMARK  5 active torsions:
REMARK  status: ('A' for Active; 'I' for Inactive)
REMARK    1  A    between atoms: C_1  and  C_2
REMARK    2  A    between atoms: C_5  and  N_35
REMARK    3  A    between atoms: C_7  and  C_8
REMARK    4  A    between atoms: C_11  and  C_13
REMARK    5  A    between atoms: C_23  and  C_25
REMARK                            x       y       z     vdW  Elec       q    Type
REMARK                         _______ _______ _______ _____ _____    ______ ____
ROOT
ATOM      1  C   UNL     1       1.245   2.383   4.766  0.00  0.00    +0.063 C 
ATOM      2  C   UNL     1       2.317   3.060   4.204  0.00  0.00    +0.084 C 
ATOM      3  C   UNL     1       2.766   2.796   2.811  0.00  0.00    +0.153 C 
ATOM      4  N   UNL     1       1.950   2.464   1.844  0.00  0.00    -0.283 NA
ATOM      5  N   UNL     1       4.159   2.940   2.634  0.00  0.00    -0.152 N 
ATOM      6  C   UNL     1       4.835   3.739   3.532  0.00  0.00    +0.181 C 
ATOM      7  N   UNL     1       4.354   4.318   4.602  0.00  0.00    -0.152 NA
ATOM      8  C   UNL     1       3.071   4.088   4.957  0.00  0.00    +0.273 C 
ATOM      9  O   UNL     1       2.549   4.704   5.873  0.00  0.00    -0.268 OA
ATOM     10  S   UNL     1       6.477   3.741   2.864  0.00  0.00    -0.037 S 
ATOM     11  C   UNL     1       6.181   2.610   1.511  0.00  0.00    +0.106 C 
ATOM     12  N   UNL     1       4.909   2.360   1.634  0.00  0.00    -0.169 NA
ATOM     13  H   UNL     1       0.991   2.485   1.990  0.00  0.00    +0.188 HD
ENDROOT
BRANCH  11  14
ATOM     14  C   UNL     1       7.155   2.083   0.489  0.00  0.00    +0.022 C 
ATOM     15  C   UNL     1       6.426   1.140  -0.471  0.00  0.00    +0.017 C 
ATOM     16  C   UNL     1       7.414   0.605  -1.509  0.00  0.00    -0.010 C 
ATOM     17  C   UNL     1       8.010   1.774  -2.296  0.00  0.00    +0.007 C 
ATOM     18  C   UNL     1       8.739   2.716  -1.336  0.00  0.00    -0.010 C 
ATOM     19  C   UNL     1       7.751   3.252  -0.298  0.00  0.00    +0.017 C 
ATOM     20  C   UNL     1       9.861   1.954  -0.627  0.00  0.00    +0.007 C 
ATOM     21  C   UNL     1       9.265   0.786   0.160  0.00  0.00    -0.010 C 
ATOM     22  C   UNL     1       8.536  -0.157  -0.799  0.00  0.00    +0.007 C 
ATOM     23  C   UNL     1       8.276   1.321   1.198  0.00  0.00    +0.017 C 
ENDBRANCH  11  14
BRANCH   1  27
ATOM     24  C   UNL     1       0.417  -0.366   2.665  0.00  0.00    +0.136 A 
ATOM     25  C   UNL     1      -0.615  -0.458   3.575  0.00  0.00    +0.050 A 
ATOM     26  C   UNL     1      -0.440   0.574   4.497  0.00  0.00    +0.050 A 
ATOM     27  C   UNL     1       0.701   1.264   4.114  0.00  0.00    +0.129 A 
ATOM     28  O   UNL     1       1.200   0.671   3.008  0.00  0.00    -0.455 OA
BRANCH  24  35
ATOM     29  C   UNL     1       0.885   0.769   0.044  0.00  0.00    +0.044 C 
ATOM     30  C   UNL     1       0.856  -0.725   0.240  0.00  0.00    -0.040 A 
ATOM     31  C   UNL     1       1.058  -1.567  -0.833  0.00  0.00    +0.006 A 
ATOM     32  C   UNL     1       1.032  -2.939  -0.655  0.00  0.00    +0.033 A 
ATOM     33  C   UNL     1       0.802  -3.476   0.600  0.00  0.00    +0.127 A 
ATOM     34  C   UNL     1       0.599  -2.647   1.682  0.00  0.00    +0.044 A 
ATOM     35  C   UNL     1       0.629  -1.260   1.511  0.00  0.00    +0.022 A 
BRANCH  33  36
ATOM     36  N   UNL     1       0.775  -4.945   0.780  0.00  0.00    +0.056 N 
ATOM     37  O   UNL     1       0.953  -5.674  -0.168  0.00  0.00    -0.126 OA
ATOM     38  O   UNL     1       0.575  -5.416   1.875  0.00  0.00    -0.126 OA
ENDBRANCH  33  36
ENDBRANCH  24  35
ENDBRANCH   1  27
TORSDOF 4
