REMARK  Name = ZINC01801663
REMARK  8 active torsions:
REMARK  status: ('A' for Active; 'I' for Inactive)
REMARK    1  A    between atoms: C_2  and  C_3
REMARK    2  A    between atoms: C_3  and  N_4
REMARK    3  A    between atoms: C_9  and  C_30
REMARK    4  A    between atoms: C_13  and  S_14
REMARK    5  A    between atoms: S_14  and  C_15
REMARK    6  A    between atoms: C_15  and  C_16
REMARK    7  A    between atoms: N_18  and  C_19
REMARK    8  A    between atoms: C_20  and  C_27
REMARK                            x       y       z     vdW  Elec       q    Type
REMARK                         _______ _______ _______ _____ _____    ______ ____
ROOT
ATOM      1  N   UNL     1      -2.146   1.365  -1.112  0.00  0.00    -0.283 N 
ATOM      2  C   UNL     1      -2.980   0.322  -0.950  0.00  0.00    +0.263 A 
ATOM      3  O   UNL     1      -3.056  -0.247   0.126  0.00  0.00    -0.267 OA
ATOM      4  C   UNL     1      -3.779  -0.113  -2.058  0.00  0.00    +0.073 A 
ATOM      5  C   UNL     1      -4.706  -1.167  -2.115  0.00  0.00    +0.031 A 
ATOM      6  C   UNL     1      -5.369  -1.423  -3.271  0.00  0.00    +0.022 A 
ATOM      7  S   UNL     1      -4.728  -0.180  -4.379  0.00  0.00    -0.068 S 
ATOM      8  C   UNL     1      -3.611   0.618  -3.253  0.00  0.00    +0.117 A 
ATOM      9  N   UNL     1      -2.769   1.638  -3.344  0.00  0.00    -0.216 NA
ATOM     10  C   UNL     1      -2.051   2.018  -2.306  0.00  0.00    +0.173 A 
ENDROOT
BRANCH   6  11
ATOM     11  C   UNL     1      -6.374  -2.471  -3.544  0.00  0.00    -0.011 A 
ATOM     12  C   UNL     1      -6.746  -3.365  -2.538  0.00  0.00    +0.009 A 
ATOM     13  C   UNL     1      -7.689  -4.338  -2.799  0.00  0.00    +0.001 A 
ATOM     14  C   UNL     1      -8.257  -4.436  -4.057  0.00  0.00    +0.000 A 
ATOM     15  C   UNL     1      -7.888  -3.557  -5.060  0.00  0.00    +0.001 A 
ATOM     16  C   UNL     1      -6.951  -2.576  -4.811  0.00  0.00    +0.009 A 
ENDBRANCH   6  11
BRANCH   1  17
ATOM     17  C   UNL     1      -1.328   1.812   0.018  0.00  0.00    +0.154 C 
BRANCH  17  19
ATOM     18  C   UNL     1       1.113   1.746   0.001  0.00  0.00    +0.005 C 
ATOM     19  C   UNL     1      -0.013   1.076   0.008  0.00  0.00    -0.013 C 
ENDBRANCH  17  19
ENDBRANCH   1  17
BRANCH  10  20
ATOM     20  S   UNL     1      -0.949   3.384  -2.465  0.00  0.00    -0.078 S 
BRANCH  20  21
ATOM     21  C   UNL     1      -1.242   3.825  -4.195  0.00  0.00    +0.173 C 
BRANCH  21  22
ATOM     22  C   UNL     1      -0.381   5.005  -4.566  0.00  0.00    +0.228 C 
ATOM     23  O   UNL     1       0.359   5.498  -3.741  0.00  0.00    -0.275 OA
ATOM     24  N   UNL     1      -0.432   5.511  -5.814  0.00  0.00    -0.279 N 
ATOM     25  H   UNL     1      -1.024   5.117  -6.473  0.00  0.00    +0.155 HD
BRANCH  24  26
ATOM     26  C   UNL     1       0.361   6.596  -6.155  0.00  0.00    +0.084 A 
ATOM     27  C   UNL     1       0.451   7.247  -7.373  0.00  0.00    +0.068 A 
ATOM     28  C   UNL     1       1.372   8.379  -7.470  0.00  0.00    -0.023 A 
ATOM     29  C   UNL     1       2.049   8.662  -6.343  0.00  0.00    -0.004 A 
ATOM     30  S   UNL     1       1.484   7.462  -5.162  0.00  0.00    -0.077 S 
ATOM     31  C   UNL     1       2.975   9.835  -6.521  0.00  0.00    +0.043 C 
ATOM     32  C   UNL     1       2.475  10.535  -7.804  0.00  0.00    +0.010 C 
ATOM     33  C   UNL     1       1.799   9.370  -8.554  0.00  0.00    +0.037 C 
BRANCH  27  34
ATOM     34  C   UNL     1      -0.350   6.818  -8.524  0.00  0.00    +0.244 C 
ATOM     35  O   UNL     1      -1.454   7.296  -8.710  0.00  0.00    -0.270 OA
ATOM     36  N   UNL     1       0.136   5.895  -9.377  0.00  0.00    -0.325 N 
ATOM     37  H   UNL     1       1.016   5.513  -9.230  0.00  0.00    +0.145 HD
ATOM     38  H   UNL     1      -0.394   5.611 -10.139  0.00  0.00    +0.145 HD
ENDBRANCH  27  34
ENDBRANCH  24  26
ENDBRANCH  21  22
ENDBRANCH  20  21
ENDBRANCH  10  20
TORSDOF 8
