REMARK  Name = ZINC09238827
REMARK  5 active torsions:
REMARK  status: ('A' for Active; 'I' for Inactive)
REMARK    1  A    between atoms: C_4  and  C_7
REMARK    2  A    between atoms: C_13  and  C_28
REMARK    3  A    between atoms: C_15  and  C_18
REMARK    4  A    between atoms: N_20  and  C_21
REMARK    5  A    between atoms: C_21  and  C_22
REMARK                            x       y       z     vdW  Elec       q    Type
REMARK                         _______ _______ _______ _____ _____    ______ ____
ROOT
ATOM      1  C   UNL     1      -6.602  -0.126   0.223  0.00  0.00    +0.182 A 
ATOM      2  N   UNL     1      -6.761  -0.461   1.484  0.00  0.00    -0.127 NA
ATOM      3  N   UNL     1      -5.670  -0.254   2.137  0.00  0.00    -0.121 NA
ATOM      4  C   UNL     1      -4.760   0.226   1.332  0.00  0.00    +0.210 A 
ATOM      5  N   UNL     1      -5.309   0.319   0.085  0.00  0.00    -0.221 N 
ATOM      6  N   UNL     1      -4.699   0.753  -1.048  0.00  0.00    -0.272 N 
ATOM      7  C   UNL     1      -3.537   1.607  -0.800  0.00  0.00    +0.140 C 
ATOM      8  C   UNL     1      -2.482   0.853   0.018  0.00  0.00    +0.166 C 
ATOM      9  S   UNL     1      -3.103   0.697   1.720  0.00  0.00    -0.069 S 
ATOM     10  H   UNL     1      -4.458  -0.021  -1.649  0.00  0.00    +0.167 HD
ENDROOT
BRANCH   7  11
ATOM     11  C   UNL     1      -2.940   2.024  -2.120  0.00  0.00    -0.024 A 
ATOM     12  C   UNL     1      -2.834   1.109  -3.150  0.00  0.00    +0.007 A 
ATOM     13  C   UNL     1      -2.291   1.492  -4.362  0.00  0.00    +0.020 A 
ATOM     14  C   UNL     1      -1.843   2.788  -4.540  0.00  0.00    +0.041 A 
ATOM     15  C   UNL     1      -1.944   3.703  -3.507  0.00  0.00    +0.020 A 
ATOM     16  C   UNL     1      -2.493   3.320  -2.297  0.00  0.00    +0.007 A 
ATOM     17 CL   UNL     1      -1.156   3.268  -6.060  0.00  0.00    -0.084 Cl
ENDBRANCH   7  11
BRANCH   1  21
ATOM     18  C   UNL     1      -9.530  -0.371  -2.843  0.00  0.00    +0.000 A 
ATOM     19  C   UNL     1      -9.728  -1.038  -1.647  0.00  0.00    +0.001 A 
ATOM     20  C   UNL     1      -8.781  -0.963  -0.647  0.00  0.00    +0.011 A 
ATOM     21  C   UNL     1      -7.621  -0.212  -0.844  0.00  0.00    +0.021 A 
ATOM     22  C   UNL     1      -7.430   0.462  -2.051  0.00  0.00    +0.011 A 
ATOM     23  C   UNL     1      -8.383   0.374  -3.045  0.00  0.00    +0.001 A 
ENDBRANCH   1  21
BRANCH   8  24
ATOM     24  C   UNL     1      -1.187   1.624   0.017  0.00  0.00    +0.229 C 
ATOM     25  O   UNL     1      -1.204   2.837   0.023  0.00  0.00    -0.275 OA
ATOM     26  N   UNL     1      -0.011   0.966   0.007  0.00  0.00    -0.312 N 
ATOM     27  H   UNL     1       0.002  -0.004   0.002  0.00  0.00    +0.149 HD
BRANCH  26  28
ATOM     28  C   UNL     1       1.248   1.716  -0.001  0.00  0.00    +0.135 C 
BRANCH  28  29
ATOM     29  C   UNL     1       2.424   0.737  -0.017  0.00  0.00    +0.135 C 
ATOM     30  C   UNL     1       3.761   1.502   0.100  0.00  0.00    +0.035 C 
ATOM     31  C   UNL     1       4.723   0.719  -0.821  0.00  0.00    +0.031 C 
ATOM     32  C   UNL     1       3.853  -0.425  -1.386  0.00  0.00    +0.160 C 
ATOM     33  O   UNL     1       2.497   0.060  -1.291  0.00  0.00    -0.375 OA
ENDBRANCH  28  29
ENDBRANCH  26  28
ENDBRANCH   8  24
TORSDOF 5
