REMARK  Name = ZINC21162782
REMARK  12 active torsions:
REMARK  status: ('A' for Active; 'I' for Inactive)
REMARK    1  A    between atoms: C_1  and  C_2
REMARK    2  A    between atoms: C_2  and  C_3
REMARK    3  A    between atoms: C_2  and  C_4
REMARK    4  A    between atoms: C_2  and  C_5
REMARK    5  A    between atoms: C_8  and  C_11
REMARK    6  A    between atoms: C_14  and  S_17
REMARK    7  A    between atoms: N_15  and  N_16
REMARK    8  A    between atoms: S_17  and  C_18
REMARK    9  A    between atoms: C_18  and  C_19
REMARK   10  A    between atoms: N_21  and  N_22
REMARK   11  A    between atoms: C_23  and  C_25
REMARK   12  A    between atoms: C_28  and  N_31
REMARK                            x       y       z     vdW  Elec       q    Type
REMARK                         _______ _______ _______ _____ _____    ______ ____
ROOT
ATOM      1  S   UNL     1       5.077  -6.943  -0.508  0.00  0.00    -0.075 S 
ENDROOT
BRANCH   1   5
ATOM      2  C   UNL     1       5.527 -10.777   0.095  0.00  0.00    +0.182 A 
ATOM      3  N   UNL     1       4.226 -10.656  -0.029  0.00  0.00    -0.127 NA
ATOM      4  N   UNL     1       3.917  -9.425  -0.231  0.00  0.00    -0.121 NA
ATOM      5  C   UNL     1       5.004  -8.686  -0.257  0.00  0.00    +0.209 A 
ATOM      6  N   UNL     1       6.065  -9.519  -0.047  0.00  0.00    -0.224 N 
BRANCH   2  10
ATOM      7  C   UNL     1       7.670 -14.376   0.803  0.00  0.00    -0.042 A 
ATOM      8  C   UNL     1       8.280 -13.155   1.029  0.00  0.00    +0.005 A 
ATOM      9  C   UNL     1       7.590 -11.982   0.801  0.00  0.00    +0.012 A 
ATOM     10  C   UNL     1       6.273 -12.030   0.341  0.00  0.00    +0.021 A 
ATOM     11  C   UNL     1       5.661 -13.265   0.120  0.00  0.00    +0.012 A 
ATOM     12  C   UNL     1       6.365 -14.430   0.347  0.00  0.00    +0.005 A 
BRANCH   7  14
ATOM     13  C   UNL     1       8.852 -15.714   2.523  0.00  0.00    +0.015 C 
ATOM     14  C   UNL     1       8.431 -15.652   1.054  0.00  0.00    -0.013 C 
ATOM     15  C   UNL     1       7.537 -16.851   0.728  0.00  0.00    +0.015 C 
ATOM     16  C   UNL     1       9.675 -15.688   0.164  0.00  0.00    +0.015 C 
ENDBRANCH   7  14
ENDBRANCH   2  10
BRANCH   6  17
ATOM     17  N   UNL     1       7.386  -9.176   0.009  0.00  0.00    -0.295 N 
ATOM     18  H   UNL     1       7.687  -8.126  -0.122  0.00  0.00    +0.163 HD
ATOM     19  H   UNL     1       8.148  -9.949   0.186  0.00  0.00    +0.163 HD
ENDBRANCH   6  17
ENDBRANCH   1   5
BRANCH   1  20
ATOM     20  C   UNL     1       3.315  -6.580  -0.705  0.00  0.00    +0.174 C 
BRANCH  20  21
ATOM     21  C   UNL     1       3.130  -5.103  -0.939  0.00  0.00    +0.239 C 
ATOM     22  O   UNL     1       4.094  -4.368  -0.968  0.00  0.00    -0.273 OA
ATOM     23  N   UNL     1       1.892  -4.598  -1.114  0.00  0.00    -0.233 N 
ATOM     24  H   UNL     1       1.018  -5.265  -1.087  0.00  0.00    +0.173 HD
BRANCH  23  25
ATOM     25  N   UNL     1       1.720  -3.225  -1.331  0.00  0.00    -0.230 N 
ATOM     26  C   UNL     1       0.483  -2.720  -1.506  0.00  0.00    +0.260 C 
ATOM     27  O   UNL     1      -0.484  -3.457  -1.476  0.00  0.00    -0.269 OA
ATOM     28  H   UNL     1       2.595  -2.558  -1.358  0.00  0.00    +0.173 HD
BRANCH  26  29
ATOM     29  C   UNL     1       0.301  -1.271  -1.735  0.00  0.00    +0.038 A 
ATOM     30  C   UNL     1      -0.979  -0.745  -1.917  0.00  0.00    +0.015 A 
ATOM     31  C   UNL     1      -1.142   0.608  -2.129  0.00  0.00    +0.033 A 
ATOM     32  C   UNL     1      -0.039   1.444  -2.162  0.00  0.00    +0.126 A 
ATOM     33  C   UNL     1       1.232   0.929  -1.983  0.00  0.00    +0.033 A 
ATOM     34  C   UNL     1       1.409  -0.422  -1.769  0.00  0.00    +0.015 A 
BRANCH  32  35
ATOM     35  N   UNL     1      -0.221   2.895  -2.391  0.00  0.00    +0.056 N 
ATOM     36  O   UNL     1      -1.340   3.351  -2.549  0.00  0.00    -0.126 OA
ATOM     37  O   UNL     1       0.747   3.633  -2.421  0.00  0.00    -0.126 OA
ENDBRANCH  32  35
ENDBRANCH  26  29
ENDBRANCH  23  25
ENDBRANCH  20  21
ENDBRANCH   1  20
TORSDOF 9
