REMARK  Name = ZINC44660788
REMARK  4 active torsions:
REMARK  status: ('A' for Active; 'I' for Inactive)
REMARK    1  A    between atoms: C_4  and  C_7
REMARK    2  A    between atoms: C_10  and  N_12
REMARK    3  A    between atoms: C_13  and  C_15
REMARK    4  A    between atoms: C_17  and  N_23
REMARK                            x       y       z     vdW  Elec       q    Type
REMARK                         _______ _______ _______ _____ _____    ______ ____
ROOT
ATOM      1  N   UNL     1       5.398  -1.752   1.581  0.00  0.00    -0.308 N 
ATOM      2  C   UNL     1       5.669  -2.128   2.847  0.00  0.00    +0.244 C 
ATOM      3  O   UNL     1       4.761  -2.383   3.613  0.00  0.00    -0.270 OA
ATOM      4  H   UNL     1       6.123  -1.549   0.970  0.00  0.00    +0.149 HD
ENDROOT
BRANCH   2   5
ATOM      5  C   UNL     1       7.071  -2.230   3.303  0.00  0.00    +0.040 A 
ATOM      6  C   UNL     1       7.354  -2.624   4.611  0.00  0.00    +0.037 A 
ATOM      7  C   UNL     1       8.671  -2.717   5.033  0.00  0.00    +0.045 A 
ATOM      8  C   UNL     1       9.706  -2.418   4.153  0.00  0.00    +0.080 A 
ATOM      9  C   UNL     1       9.425  -2.026   2.855  0.00  0.00    +0.062 A 
ATOM     10  C   UNL     1       8.116  -1.937   2.425  0.00  0.00    +0.034 A 
ATOM     11 CL   UNL     1      10.722  -1.653   1.763  0.00  0.00    -0.082 Cl
ATOM     12 CL   UNL     1      11.355  -2.535   4.684  0.00  0.00    -0.080 Cl
BRANCH   7  13
ATOM     13  N   UNL     1       8.959  -3.112   6.343  0.00  0.00    -0.357 N 
ATOM     14  H   UNL     1       8.238  -3.320   6.956  0.00  0.00    +0.142 HD
ATOM     15  H   UNL     1       9.881  -3.177   6.638  0.00  0.00    +0.142 HD
ENDBRANCH   7  13
ENDBRANCH   2   5
BRANCH   1  18
ATOM     16  C   UNL     1       3.711  -0.707  -0.038  0.00  0.00    +0.041 C 
ATOM     17  C   UNL     1       3.671  -2.222  -0.251  0.00  0.00    +0.033 C 
ATOM     18  C   UNL     1       4.008  -1.652   1.129  0.00  0.00    +0.081 C 
BRANCH  16  22
ATOM     19  C   UNL     1      -0.017   1.378   0.010  0.00  0.00    +0.000 A 
ATOM     20  C   UNL     1       1.171   2.086   0.002  0.00  0.00    +0.000 A 
ATOM     21  C   UNL     1       2.377   1.411  -0.013  0.00  0.00    +0.004 A 
ATOM     22  C   UNL     1       2.396   0.029  -0.020  0.00  0.00    -0.042 A 
ATOM     23  C   UNL     1       1.208  -0.679  -0.012  0.00  0.00    +0.004 A 
ATOM     24  C   UNL     1       0.002  -0.004   0.002  0.00  0.00    +0.000 A 
ENDBRANCH  16  22
ENDBRANCH   1  18
TORSDOF 4
