REMARK  Name = ZINC39687281
REMARK  9 active torsions:
REMARK  status: ('A' for Active; 'I' for Inactive)
REMARK    1  A    between atoms: C_1  and  S_2
REMARK    2  A    between atoms: S_2  and  C_3
REMARK    3  A    between atoms: C_3  and  C_4
REMARK    4  A    between atoms: C_4  and  C_5
REMARK    5  A    between atoms: C_9  and  C_18
REMARK    6  A    between atoms: N_20  and  C_21
REMARK    7  A    between atoms: C_21  and  C_23
REMARK    8  A    between atoms: C_21  and  C_30
REMARK    9  A    between atoms: C_23  and  C_24
REMARK                            x       y       z     vdW  Elec       q    Type
REMARK                         _______ _______ _______ _____ _____    ______ ____
ROOT
ATOM      1  C   UNL     1      -0.436  -5.720  -3.715  0.00  0.00    +0.219 C 
ATOM      2  O   UNL     1      -0.841  -5.465  -4.829  0.00  0.00    -0.275 OA
ATOM      3  N   UNL     1      -1.309  -6.003  -2.728  0.00  0.00    -0.303 N 
ATOM      4  H   UNL     1      -0.985  -6.206  -1.837  0.00  0.00    +0.149 HD
ENDROOT
BRANCH   1   9
ATOM      5  C   UNL     1       0.988  -7.220  -0.138  0.00  0.00    +0.216 C 
ATOM      6  O   UNL     1       1.038  -6.715   0.964  0.00  0.00    -0.276 OA
ATOM      7  N   UNL     1       1.426  -6.535  -1.213  0.00  0.00    -0.300 N 
ATOM      8  C   UNL     1       1.439  -6.978  -2.627  0.00  0.00    +0.121 C 
ATOM      9  C   UNL     1       1.045  -5.720  -3.433  0.00  0.00    +0.100 C 
ATOM     10  C   UNL     1       1.419  -4.538  -2.524  0.00  0.00    -0.004 C 
ATOM     11  C   UNL     1       1.998  -5.168  -1.249  0.00  0.00    +0.115 C 
ATOM     12  C   UNL     1       0.178  -3.719  -2.183  0.00  0.00    -0.010 C 
ATOM     13  C   UNL     1       0.585  -2.517  -1.326  0.00  0.00    -0.082 C 
ATOM     14  N   UNL     1       1.552  -1.694  -2.061  0.00  0.00    +0.379 N 
ATOM     15  C   UNL     1       2.780  -2.460  -2.303  0.00  0.00    -0.082 C 
ATOM     16  C   UNL     1       2.467  -3.660  -3.202  0.00  0.00    -0.010 C 
ATOM     17  H   UNL     1       1.152  -1.414  -2.944  0.00  0.00    -0.086 HD
ATOM     18  H   UNL     1       1.772  -0.871  -1.520  0.00  0.00    -0.086 HD
BRANCH   5  19
ATOM     19  C   UNL     1       0.435  -8.611  -0.304  0.00  0.00    +0.106 C 
BRANCH  19  20
ATOM     20  C   UNL     1       0.012  -9.159   1.060  0.00  0.00    +0.078 C 
BRANCH  20  22
ATOM     21  C   UNL     1      -1.103 -11.333   2.545  0.00  0.00    +0.084 C 
ATOM     22  S   UNL     1      -0.654 -10.834   0.860  0.00  0.00    -0.164 S 
ENDBRANCH  20  22
ENDBRANCH  19  20
ENDBRANCH   5  19
ENDBRANCH   1   9
BRANCH   3  23
ATOM     23  C   UNL     1      -2.748  -6.003  -3.002  0.00  0.00    +0.163 C 
BRANCH  23  24
ATOM     24  C   UNL     1      -3.502  -5.732  -1.725  0.00  0.00    +0.236 C 
ATOM     25  O   UNL     1      -2.973  -5.938  -0.653  0.00  0.00    -0.274 OA
ATOM     26  N   UNL     1      -4.764  -5.262  -1.774  0.00  0.00    -0.300 N 
ATOM     27  C   UNL     1      -5.383  -4.912  -3.060  0.00  0.00    +0.108 C 
ATOM     28  C   UNL     1      -6.715  -5.657  -3.186  0.00  0.00    +0.019 C 
ATOM     29  C   UNL     1      -7.585  -5.349  -1.966  0.00  0.00    +0.003 C 
ATOM     30  C   UNL     1      -6.878  -5.834  -0.698  0.00  0.00    +0.019 C 
ATOM     31  C   UNL     1      -5.550  -5.096  -0.544  0.00  0.00    +0.108 C 
ENDBRANCH  23  24
BRANCH  23  32
ATOM     32  C   UNL     1      -3.162  -7.366  -3.559  0.00  0.00    +0.067 C 
BRANCH  32  33
ATOM     33  C   UNL     1      -2.525  -7.571  -4.909  0.00  0.00    -0.045 A 
ATOM     34  C   UNL     1      -3.181  -7.157  -6.053  0.00  0.00    +0.004 A 
ATOM     35  C   UNL     1      -2.597  -7.345  -7.292  0.00  0.00    +0.000 A 
ATOM     36  C   UNL     1      -1.356  -7.946  -7.386  0.00  0.00    +0.000 A 
ATOM     37  C   UNL     1      -0.699  -8.360  -6.243  0.00  0.00    +0.000 A 
ATOM     38  C   UNL     1      -1.281  -8.168  -5.004  0.00  0.00    +0.004 A 
ENDBRANCH  32  33
ENDBRANCH  23  32
ENDBRANCH   3  23
TORSDOF 8
