REMARK  Name = ZINC44452626
REMARK  4 active torsions:
REMARK  status: ('A' for Active; 'I' for Inactive)
REMARK    1  A    between atoms: C_5  and  C_7
REMARK    2  A    between atoms: C_8  and  C_9
REMARK    3  A    between atoms: N_11  and  C_12
REMARK    4  A    between atoms: C_13  and  C_20
REMARK                            x       y       z     vdW  Elec       q    Type
REMARK                         _______ _______ _______ _____ _____    ______ ____
ROOT
ATOM      1  C   UNL     1      -1.000  -6.395  -0.024  0.00  0.00    +0.085 A 
ATOM      2  C   UNL     1      -2.074  -7.268  -0.025  0.00  0.00    +0.069 A 
ATOM      3  C   UNL     1      -1.774  -8.699  -0.034  0.00  0.00    -0.023 A 
ATOM      4  C   UNL     1      -0.460  -8.984  -0.040  0.00  0.00    -0.004 A 
ATOM      5  S   UNL     1       0.343  -7.401  -0.044  0.00  0.00    -0.077 S 
ATOM      6  C   UNL     1      -0.207 -10.467  -0.046  0.00  0.00    +0.043 C 
ATOM      7  C   UNL     1      -1.551 -11.093   0.391  0.00  0.00    +0.010 C 
ATOM      8  C   UNL     1      -2.558 -10.009  -0.042  0.00  0.00    +0.037 C 
ENDROOT
BRANCH   2   9
ATOM      9  C   UNL     1      -3.454  -6.778  -0.015  0.00  0.00    +0.254 C 
ATOM     10  O   UNL     1      -4.033  -6.568  -1.065  0.00  0.00    -0.270 OA
ATOM     11  N   UNL     1      -4.083  -6.559   1.157  0.00  0.00    -0.236 N 
ATOM     12  C   UNL     1      -5.354  -6.108   1.165  0.00  0.00    +0.304 C 
ATOM     13  O   UNL     1      -5.931  -5.899   0.117  0.00  0.00    -0.253 OA
ATOM     14  N   UNL     1      -5.983  -5.889   2.337  0.00  0.00    -0.313 N 
ATOM     15  H   UNL     1      -3.622  -6.726   1.994  0.00  0.00    +0.159 HD
ATOM     16  H   UNL     1      -5.522  -6.056   3.174  0.00  0.00    +0.146 HD
ATOM     17  H   UNL     1      -6.897  -5.565   2.343  0.00  0.00    +0.146 HD
ENDBRANCH   2   9
BRANCH   1  20
ATOM     18  C   UNL     1       0.127  -4.314  -0.024  0.00  0.00    +0.241 C 
ATOM     19  O   UNL     1       1.193  -4.902  -0.037  0.00  0.00    -0.270 OA
ATOM     20  N   UNL     1      -1.026  -5.011  -0.016  0.00  0.00    -0.276 N 
ATOM     21  H   UNL     1      -1.876  -4.543  -0.005  0.00  0.00    +0.156 HD
BRANCH  18  23
ATOM     22  C   UNL     1       1.254  -2.154  -0.022  0.00  0.00    +0.014 C 
ATOM     23  C   UNL     1       0.099  -2.852  -0.015  0.00  0.00    +0.068 C 
BRANCH  22  28
ATOM     24  C   UNL     1      -0.017   1.374   0.010  0.00  0.00    +0.001 A 
ATOM     25  C   UNL     1       1.170   2.087   0.002  0.00  0.00    +0.001 A 
ATOM     26  C   UNL     1       2.384   1.424  -0.013  0.00  0.00    +0.020 A 
ATOM     27  C   UNL     1       2.421   0.044  -0.021  0.00  0.00    +0.048 A 
ATOM     28  C   UNL     1       1.225  -0.683  -0.014  0.00  0.00    -0.007 A 
ATOM     29  C   UNL     1       0.002  -0.004   0.002  0.00  0.00    +0.009 A 
ATOM     30 CL   UNL     1       3.945  -0.787  -0.041  0.00  0.00    -0.083 Cl
ENDBRANCH  22  28
ENDBRANCH  18  23
ENDBRANCH   1  20
TORSDOF 4
