REMARK  Name = ZINC17144160
REMARK  6 active torsions:
REMARK  status: ('A' for Active; 'I' for Inactive)
REMARK    1  A    between atoms: C_1  and  C_2
REMARK    2  A    between atoms: C_15  and  C_17
REMARK    3  A    between atoms: C_20  and  S_23
REMARK    4  A    between atoms: S_23  and  N_26
REMARK    5  A    between atoms: C_28  and  C_35
REMARK    6  A    between atoms: C_31  and  C_34
REMARK                            x       y       z     vdW  Elec       q    Type
REMARK                         _______ _______ _______ _____ _____    ______ ____
ROOT
ATOM      1  C   UNL     1      -3.472  11.013  15.653  0.00  0.00    +0.073 C 
ATOM      2  C   UNL     1      -3.552  10.103  14.455  0.00  0.00    +0.076 A 
ATOM      3  N   UNL     1      -4.560   9.910  13.651  0.00  0.00    -0.244 NA
ATOM      4  C   UNL     1      -4.501   9.061  12.606  0.00  0.00    +0.080 A 
ATOM      5  C   UNL     1      -5.497   8.743  11.650  0.00  0.00    +0.031 A 
ATOM      6  C   UNL     1      -5.278   7.863  10.652  0.00  0.00    +0.031 A 
ATOM      7  C   UNL     1      -4.037   7.194  10.491  0.00  0.00    +0.081 A 
ATOM      8  C   UNL     1      -3.040   7.507  11.442  0.00  0.00    +0.057 A 
ATOM      9  C   UNL     1      -3.261   8.400  12.454  0.00  0.00    +0.055 A 
ATOM     10  S   UNL     1      -2.324   9.059  13.811  0.00  0.00    -0.071 S 
ATOM     11  S   UNL     1      -1.681   6.493  10.907  0.00  0.00    -0.051 S 
ATOM     12  C   UNL     1      -2.496   5.744   9.504  0.00  0.00    +0.166 A 
ATOM     13  N   UNL     1      -3.684   6.301   9.542  0.00  0.00    -0.225 NA
ATOM     14  N   UNL     1      -1.998   4.818   8.602  0.00  0.00    -0.261 N 
ATOM     15  C   UNL     1      -2.778   4.368   7.599  0.00  0.00    +0.250 C 
ATOM     16  O   UNL     1      -3.917   4.776   7.485  0.00  0.00    -0.270 OA
ATOM     17  H   UNL     1      -1.089   4.492   8.693  0.00  0.00    +0.157 HD
ENDROOT
BRANCH  15  18
ATOM     18  C   UNL     1      -2.247   3.380   6.637  0.00  0.00    +0.037 A 
ATOM     19  C   UNL     1      -3.052   2.912   5.596  0.00  0.00    +0.015 A 
ATOM     20  C   UNL     1      -2.551   1.989   4.702  0.00  0.00    +0.029 A 
ATOM     21  C   UNL     1      -1.253   1.526   4.835  0.00  0.00    +0.106 A 
ATOM     22  C   UNL     1      -0.452   1.981   5.867  0.00  0.00    +0.029 A 
ATOM     23  C   UNL     1      -0.939   2.909   6.765  0.00  0.00    +0.015 A 
BRANCH  21  24
ATOM     24  S   UNL     1      -0.621   0.347   3.688  0.00  0.00    +0.061 S 
ATOM     25  O   UNL     1      -1.744  -0.332   3.144  0.00  0.00    -0.153 OA
ATOM     26  O   UNL     1       0.435  -0.336   4.349  0.00  0.00    -0.153 OA
BRANCH  24  27
ATOM     27  N   UNL     1       0.069   1.195   2.444  0.00  0.00    -0.176 NA
ATOM     28  C   UNL     1      -0.726   1.581   1.270  0.00  0.00    +0.112 C 
ATOM     29  C   UNL     1      -0.013   1.086   0.008  0.00  0.00    +0.002 C 
ATOM     30  C   UNL     1       1.423   1.616  -0.003  0.00  0.00    +0.009 C 
ATOM     31  C   UNL     1       2.175   1.082   1.218  0.00  0.00    +0.002 C 
ATOM     32  C   UNL     1       1.486   1.577   2.494  0.00  0.00    +0.112 C 
ATOM     33  C   UNL     1       3.619   1.586   1.189  0.00  0.00    +0.009 C 
ATOM     34  C   UNL     1      -0.754   1.593  -1.230  0.00  0.00    +0.009 C 
ENDBRANCH  24  27
ENDBRANCH  21  24
ENDBRANCH  15  18
TORSDOF 3
