REMARK  Name = ZINC19796542
REMARK  6 active torsions:
REMARK  status: ('A' for Active; 'I' for Inactive)
REMARK    1  A    between atoms: C_1  and  C_2
REMARK    2  A    between atoms: C_9  and  C_14
REMARK    3  A    between atoms: C_20  and  C_22
REMARK    4  A    between atoms: C_22  and  C_23
REMARK    5  A    between atoms: C_23  and  C_24
REMARK    6  A    between atoms: C_23  and  C_25
REMARK                            x       y       z     vdW  Elec       q    Type
REMARK                         _______ _______ _______ _____ _____    ______ ____
ROOT
ATOM      1  C   UNL     1      -8.712   0.254   0.262  0.00  0.00    +0.062 C 
ATOM      2  C   UNL     1      -7.320   0.768   0.636  0.00  0.00    +0.256 C 
ATOM      3  C   UNL     1      -7.161   2.185   0.149  0.00  0.00    +0.258 C 
ATOM      4  O   UNL     1      -8.131   2.906   0.044  0.00  0.00    -0.271 OA
ATOM      5  N   UNL     1      -5.933   2.649  -0.171  0.00  0.00    -0.280 N 
ATOM      6  C   UNL     1      -4.833   1.785  -0.074  0.00  0.00    +0.076 A 
ATOM      7  C   UNL     1      -3.543   2.284  -0.072  0.00  0.00    +0.037 A 
ATOM      8  C   UNL     1      -2.463   1.407   0.019  0.00  0.00    +0.003 A 
ATOM      9  C   UNL     1      -2.688   0.035   0.118  0.00  0.00    +0.014 A 
ATOM     10  C   UNL     1      -3.978  -0.458   0.121  0.00  0.00    +0.048 A 
ATOM     11  C   UNL     1      -5.052   0.411   0.025  0.00  0.00    +0.143 A 
ATOM     12  O   UNL     1      -6.327  -0.064   0.030  0.00  0.00    -0.478 OA
ATOM     13  H   UNL     1      -5.808   3.691  -0.502  0.00  0.00    +0.155 HD
ENDROOT
BRANCH   8  14
ATOM     14  C   UNL     1      -1.077   1.934   0.017  0.00  0.00    +0.080 A 
ATOM     15  C   UNL     1      -0.013   1.076   0.008  0.00  0.00    +0.076 A 
ATOM     16  S   UNL     1       1.348   2.236   0.001  0.00  0.00    -0.060 S 
ATOM     17  C   UNL     1       0.368   3.730   0.018  0.00  0.00    +0.165 A 
ATOM     18  N   UNL     1      -0.858   3.240   0.027  0.00  0.00    -0.225 NA
ATOM     19  N   UNL     1       0.785   5.056   0.021  0.00  0.00    -0.265 N 
ATOM     20  C   UNL     1       2.100   5.348   0.009  0.00  0.00    +0.219 C 
ATOM     21  O   UNL     1       2.920   4.454  -0.003  0.00  0.00    -0.275 OA
ATOM     22  H   UNL     1       0.041   5.866   0.032  0.00  0.00    +0.157 HD
BRANCH  20  23
ATOM     23  C   UNL     1       2.553   6.785   0.013  0.00  0.00    +0.099 C 
BRANCH  23  24
ATOM     24  C   UNL     1       4.082   6.839  -0.002  0.00  0.00    -0.008 C 
ATOM     25  C   UNL     1       4.600   6.254  -1.317  0.00  0.00    +0.008 C 
ATOM     26  C   UNL     1       4.543   8.292   0.127  0.00  0.00    +0.008 C 
ENDBRANCH  23  24
ENDBRANCH  20  23
ENDBRANCH   8  14
TORSDOF 3
