REMARK  Name = ZINC35453060
REMARK  4 active torsions:
REMARK  status: ('A' for Active; 'I' for Inactive)
REMARK    1  A    between atoms: C_1  and  C_2
REMARK    2  A    between atoms: C_4  and  N_9
REMARK    3  A    between atoms: N_9  and  C_10
REMARK    4  A    between atoms: C_15  and  N_16
REMARK                            x       y       z     vdW  Elec       q    Type
REMARK                         _______ _______ _______ _____ _____    ______ ____
ROOT
ATOM      1  C   UNL     1       0.154  -4.167  -2.425  0.00  0.00    +0.054 A 
ATOM      2  C   UNL     1       0.164  -4.869  -1.228  0.00  0.00    +0.052 A 
ATOM      3  C   UNL     1       0.288  -6.249  -1.240  0.00  0.00    +0.078 A 
ATOM      4  C   UNL     1       0.402  -6.932  -2.449  0.00  0.00    +0.144 A 
ATOM      5  C   UNL     1       0.391  -6.232  -3.643  0.00  0.00    +0.072 A 
ATOM      6  C   UNL     1       0.262  -4.851  -3.635  0.00  0.00    +0.050 A 
ATOM      7  O   UNL     1       0.525  -8.287  -2.443  0.00  0.00    -0.481 OA
ATOM      8  C   UNL     1       1.227  -8.864  -1.338  0.00  0.00    +0.325 C 
ATOM      9  C   UNL     1       0.733  -8.255  -0.051  0.00  0.00    +0.255 C 
ATOM     10  O   UNL     1       0.724  -8.912   0.969  0.00  0.00    -0.272 OA
ATOM     11  N   UNL     1       0.299  -6.976  -0.038  0.00  0.00    -0.280 N 
ATOM     12  H   UNL     1       0.001  -6.565   0.789  0.00  0.00    +0.155 HD
ENDROOT
BRANCH   6  13
ATOM     13  N   UNL     1       0.246  -4.142  -4.844  0.00  0.00    -0.356 N 
ATOM     14  H   UNL     1       0.159  -3.176  -4.838  0.00  0.00    +0.142 HD
ATOM     15  H   UNL     1       0.321  -4.617  -5.686  0.00  0.00    +0.142 HD
ENDBRANCH   6  13
BRANCH   1  16
ATOM     16  N   UNL     1       0.028  -2.770  -2.417  0.00  0.00    -0.313 N 
ATOM     17  H   UNL     1      -0.090  -2.289  -3.252  0.00  0.00    +0.152 HD
BRANCH  16  21
ATOM     18  C   UNL     1      -1.723   0.795   0.476  0.00  0.00    +0.045 C 
ATOM     19  C   UNL     1      -0.764  -0.338   0.222  0.00  0.00    -0.035 A 
ATOM     20  C   UNL     1      -0.811  -1.027  -0.975  0.00  0.00    +0.027 A 
ATOM     21  C   UNL     1       0.074  -2.071  -1.209  0.00  0.00    +0.032 A 
ATOM     22  C   UNL     1       1.005  -2.420  -0.238  0.00  0.00    +0.024 A 
ATOM     23  C   UNL     1       1.048  -1.728   0.956  0.00  0.00    +0.017 A 
ATOM     24  C   UNL     1       0.168  -0.684   1.184  0.00  0.00    +0.021 A 
ATOM     25 BR   UNL     1       0.235   0.267   2.817  0.00  0.00    -0.050 Br
ENDBRANCH  16  21
ENDBRANCH   1  16
TORSDOF 3
