REMARK  Name = ZINC39630922
REMARK  12 active torsions:
REMARK  status: ('A' for Active; 'I' for Inactive)
REMARK    1  A    between atoms: C_1  and  C_2
REMARK    2  A    between atoms: C_2  and  C_3
REMARK    3  A    between atoms: C_2  and  C_4
REMARK    4  A    between atoms: C_2  and  C_29
REMARK    5  A    between atoms: C_4  and  N_5
REMARK    6  A    between atoms: C_6  and  C_8
REMARK    7  A    between atoms: C_19  and  C_21
REMARK    8  A    between atoms: C_25  and  O_26
REMARK    9  A    between atoms: O_26  and  C_27
REMARK   10  A    between atoms: C_29  and  N_30
REMARK   11  A    between atoms: N_30  and  C_31
REMARK   12  A    between atoms: N_30  and  C_32
REMARK                            x       y       z     vdW  Elec       q    Type
REMARK                         _______ _______ _______ _____ _____    ______ ____
ROOT
ATOM      1  C   UNL     1      -2.948  -0.029   3.852  0.00  0.00    +0.100 C 
ATOM      2  C   UNL     1      -2.915   1.509   3.991  0.00  0.00    +0.121 C 
ATOM      3  N   UNL     1      -4.330   1.928   3.845  0.00  0.00    -0.296 N 
ATOM      4  C   UNL     1      -5.098   0.891   4.577  0.00  0.00    +0.115 C 
ATOM      5  C   UNL     1      -4.380  -0.431   4.241  0.00  0.00    -0.004 C 
ATOM      6  C   UNL     1      -4.360  -1.345   5.463  0.00  0.00    -0.010 C 
ATOM      7  C   UNL     1      -5.790  -1.778   5.795  0.00  0.00    -0.082 C 
ATOM      8  N   UNL     1      -6.371  -2.480   4.643  0.00  0.00    +0.379 N 
ATOM      9  C   UNL     1      -6.473  -1.565   3.500  0.00  0.00    -0.082 C 
ATOM     10  C   UNL     1      -5.071  -1.123   3.070  0.00  0.00    -0.010 C 
ATOM     11  C   UNL     1      -4.809   3.007   3.196  0.00  0.00    +0.251 C 
ATOM     12  O   UNL     1      -4.054   3.722   2.565  0.00  0.00    -0.270 OA
ATOM     13  H   UNL     1      -5.783  -3.261   4.396  0.00  0.00    -0.086 HD
ATOM     14  H   UNL     1      -7.291  -2.817   4.886  0.00  0.00    -0.086 HD
ENDROOT
BRANCH  11  15
ATOM     15  C   UNL     1      -6.245   3.320   3.250  0.00  0.00    +0.087 A 
ATOM     16  C   UNL     1      -7.001   3.048   4.370  0.00  0.00    +0.063 A 
ATOM     17  S   UNL     1      -8.543   3.569   3.964  0.00  0.00    -0.081 S 
ATOM     18  C   UNL     1      -8.249   4.161   2.312  0.00  0.00    +0.120 A 
ATOM     19  C   UNL     1      -6.929   3.932   2.134  0.00  0.00    +0.158 A 
ATOM     20 CL   UNL     1      -9.382   4.867   1.201  0.00  0.00    -0.072 Cl
BRANCH  19  21
ATOM     21  O   UNL     1      -6.287   4.252   0.977  0.00  0.00    -0.492 OA
ATOM     22  C   UNL     1      -6.249   3.251  -0.043  0.00  0.00    +0.277 C 
ENDBRANCH  19  21
ENDBRANCH  11  15
BRANCH   1  24
ATOM     23  N   UNL     1      -2.054  -1.613   2.175  0.00  0.00    -0.315 N 
ATOM     24  C   UNL     1      -2.657  -0.435   2.430  0.00  0.00    +0.218 C 
ATOM     25  O   UNL     1      -2.966   0.299   1.515  0.00  0.00    -0.275 OA
ATOM     26  H   UNL     1      -1.807  -2.200   2.906  0.00  0.00    +0.149 HD
BRANCH  23  27
ATOM     27  C   UNL     1      -1.772  -2.006   0.792  0.00  0.00    +0.108 C 
BRANCH  27  29
ATOM     28  C   UNL     1       0.222  -3.298   1.567  0.00  0.00    +0.010 C 
ATOM     29  C   UNL     1      -1.089  -3.376   0.781  0.00  0.00    -0.034 C 
ATOM     30  C   UNL     1      -2.011  -4.411   1.428  0.00  0.00    +0.010 C 
BRANCH  29  31
ATOM     31  C   UNL     1      -0.794  -3.787  -0.662  0.00  0.00    -0.072 C 
BRANCH  31  32
ATOM     32  N   UNL     1      -0.157  -5.111  -0.674  0.00  0.00    +0.376 N 
ATOM     33  C   UNL     1      -1.193  -6.152  -0.667  0.00  0.00    -0.097 C 
ATOM     34  C   UNL     1       0.666  -5.247  -1.883  0.00  0.00    -0.097 C 
ATOM     35  H   UNL     1       0.426  -5.211   0.143  0.00  0.00    -0.083 HD
ENDBRANCH  31  32
ENDBRANCH  29  31
ENDBRANCH  27  29
ENDBRANCH  23  27
ENDBRANCH   1  24
TORSDOF 7
