REMARK  Name = ZINC05553341
REMARK  13 active torsions:
REMARK  status: ('A' for Active; 'I' for Inactive)
REMARK    1  A    between atoms: C_1  and  C_2
REMARK    2  A    between atoms: C_2  and  C_3
REMARK    3  A    between atoms: C_2  and  N_4
REMARK    4  A    between atoms: C_5  and  O_7
REMARK    5  A    between atoms: O_7  and  C_8
REMARK    6  A    between atoms: C_8  and  C_9
REMARK    7  A    between atoms: C_12  and  C_22
REMARK    8  A    between atoms: C_13  and  C_14
REMARK    9  A    between atoms: C_14  and  O_15
REMARK   10  A    between atoms: O_15  and  C_16
REMARK   11  A    between atoms: N_18  and  C_19
REMARK   12  A    between atoms: C_19  and  C_20
REMARK   13  A    between atoms: C_19  and  C_21
REMARK                            x       y       z     vdW  Elec       q    Type
REMARK                         _______ _______ _______ _____ _____    ______ ____
ROOT
ATOM      1  C   UNL     1      -1.065  -2.172   0.001  0.00  0.00    +0.018 A 
ATOM      2  C   UNL     1      -0.938  -2.974   1.100  0.00  0.00    +0.039 A 
ATOM      3  N   UNL     1      -0.759  -4.246   0.683  0.00  0.00    -0.330 N 
ATOM      4  C   UNL     1      -0.768  -4.254  -0.707  0.00  0.00    +0.057 A 
ATOM      5  C   UNL     1      -0.963  -2.982  -1.135  0.00  0.00    +0.022 A 
ATOM      6  C   UNL     1      -0.600  -5.308   1.715  0.00  0.00    +0.226 C 
ATOM      7  S   UNL     1      -0.247  -4.318   3.225  0.00  0.00    +0.048 S 
ATOM      8  O   UNL     1       1.159  -4.178   3.381  0.00  0.00    -0.255 OA
ATOM      9  C   UNL     1      -0.957  -2.734   2.612  0.00  0.00    +0.159 C 
ENDROOT
BRANCH   4  10
ATOM     10  C   UNL     1      -0.602  -5.444  -1.569  0.00  0.00    +0.000 A 
ATOM     11  C   UNL     1       0.403  -6.373  -1.293  0.00  0.00    +0.011 A 
ATOM     12  C   UNL     1       0.551  -7.484  -2.097  0.00  0.00    +0.022 A 
ATOM     13  C   UNL     1      -0.287  -7.673  -3.183  0.00  0.00    +0.059 A 
ATOM     14  C   UNL     1      -1.283  -6.751  -3.465  0.00  0.00    +0.060 A 
ATOM     15  C   UNL     1      -1.444  -5.638  -2.664  0.00  0.00    +0.031 A 
ATOM     16 CL   UNL     1      -2.329  -6.996  -4.829  0.00  0.00    -0.082 Cl
ATOM     17 CL   UNL     1      -0.090  -9.069  -4.195  0.00  0.00    -0.082 Cl
ENDBRANCH   4  10
BRANCH   1  18
ATOM     18  C   UNL     1      -1.282  -0.681   0.011  0.00  0.00    +0.271 C 
BRANCH  18  19
ATOM     19  O   UNL     1       0.002  -0.004   0.002  0.00  0.00    -0.446 OA
BRANCH  19  21
ATOM     20  N   UNL     1       1.142   2.032   0.002  0.00  0.00    -0.279 N 
ATOM     21  C   UNL     1      -0.016   1.342   0.009  0.00  0.00    +0.401 C 
ATOM     22  O   UNL     1      -1.077   1.935   0.018  0.00  0.00    -0.226 OA
ATOM     23  H   UNL     1       1.988   1.558  -0.009  0.00  0.00    +0.152 HD
BRANCH  20  25
ATOM     24  C   UNL     1       1.003   3.997   1.451  0.00  0.00    +0.027 C 
ATOM     25  C   UNL     1       1.122   3.497   0.010  0.00  0.00    +0.070 C 
ATOM     26  C   UNL     1       2.416   4.028  -0.609  0.00  0.00    +0.027 C 
ENDBRANCH  20  25
ENDBRANCH  19  21
ENDBRANCH  18  19
ENDBRANCH   1  18
BRANCH   5  27
ATOM     27  C   UNL     1      -1.049  -2.526  -2.569  0.00  0.00    +0.271 C 
BRANCH  27  28
ATOM     28  O   UNL     1       0.278  -2.183  -3.048  0.00  0.00    -0.446 OA
BRANCH  28  29
ATOM     29  C   UNL     1       0.377  -1.753  -4.321  0.00  0.00    +0.401 C 
ATOM     30  O   UNL     1      -0.619  -1.667  -5.012  0.00  0.00    -0.226 OA
ATOM     31  N   UNL     1       1.579  -1.419  -4.828  0.00  0.00    -0.279 N 
ATOM     32  H   UNL     1       2.374  -1.487  -4.276  0.00  0.00    +0.152 HD
BRANCH  31  33
ATOM     33  C   UNL     1       1.686  -0.951  -6.212  0.00  0.00    +0.070 C 
ATOM     34  C   UNL     1       1.409   0.553  -6.266  0.00  0.00    +0.027 C 
ATOM     35  C   UNL     1       3.097  -1.229  -6.737  0.00  0.00    +0.027 C 
ENDBRANCH  31  33
ENDBRANCH  28  29
ENDBRANCH  27  28
ENDBRANCH   5  27
TORSDOF 9
