REMARK  Name = ZINC63363492
REMARK  8 active torsions:
REMARK  status: ('A' for Active; 'I' for Inactive)
REMARK    1  A    between atoms: C_1  and  C_2
REMARK    2  A    between atoms: C_2  and  C_3
REMARK    3  A    between atoms: C_2  and  N_4
REMARK    4  A    between atoms: N_7  and  N_8
REMARK    5  A    between atoms: C_9  and  C_11
REMARK    6  A    between atoms: C_11  and  N_12
REMARK    7  A    between atoms: C_13  and  C_15
REMARK    8  A    between atoms: C_15  and  C_16
REMARK                            x       y       z     vdW  Elec       q    Type
REMARK                         _______ _______ _______ _____ _____    ______ ____
ROOT
ATOM      1  N   UNL     1      -7.584  -1.760   0.523  0.00  0.00    -0.307 N 
ATOM      2  C   UNL     1      -8.723  -1.195   0.970  0.00  0.00    +0.214 C 
ATOM      3  O   UNL     1      -8.698  -0.085   1.459  0.00  0.00    -0.276 OA
ATOM      4  H   UNL     1      -7.604  -2.648   0.132  0.00  0.00    +0.149 HD
ENDROOT
BRANCH   1   5
ATOM      5  C   UNL     1      -6.316  -1.035   0.628  0.00  0.00    +0.201 C 
BRANCH   5   7
ATOM      6  N   UNL     1      -3.940  -1.414   0.052  0.00  0.00    -0.232 N 
ATOM      7  C   UNL     1      -5.205  -1.881   0.061  0.00  0.00    +0.246 C 
ATOM      8  O   UNL     1      -5.449  -2.981  -0.386  0.00  0.00    -0.273 OA
ATOM      9  H   UNL     1      -3.745  -0.534   0.409  0.00  0.00    +0.173 HD
BRANCH   6  13
ATOM     10  N   UNL     1      -1.372  -0.511   0.012  0.00  0.00    -0.296 N 
ATOM     11  C   UNL     1      -1.643  -1.734  -0.485  0.00  0.00    +0.316 C 
ATOM     12  O   UNL     1      -0.747  -2.417  -0.942  0.00  0.00    -0.251 OA
ATOM     13  N   UNL     1      -2.908  -2.201  -0.475  0.00  0.00    -0.218 N 
ATOM     14  H   UNL     1      -2.087   0.033   0.377  0.00  0.00    +0.151 HD
ATOM     15  H   UNL     1      -3.103  -3.081  -0.833  0.00  0.00    +0.174 HD
BRANCH  10  17
ATOM     16  C   UNL     1      -0.019   1.526   0.010  0.00  0.00    +0.027 C 
ATOM     17  C   UNL     1       0.002  -0.004   0.002  0.00  0.00    +0.068 C 
ATOM     18  C   UNL     1       0.742  -0.511   1.242  0.00  0.00    +0.027 C 
ENDBRANCH  10  17
ENDBRANCH   6  13
ENDBRANCH   5   7
ENDBRANCH   1   5
BRANCH   2  19
ATOM     19  C   UNL     1     -10.028  -1.941   0.862  0.00  0.00    +0.102 C 
BRANCH  19  20
ATOM     20  C   UNL     1     -11.156  -1.082   1.437  0.00  0.00    -0.020 C 
ATOM     21  C   UNL     1     -10.864  -0.775   2.908  0.00  0.00    +0.011 C 
ATOM     22  C   UNL     1     -11.992   0.083   3.483  0.00  0.00    -0.010 C 
ATOM     23  C   UNL     1     -13.316  -0.674   3.373  0.00  0.00    +0.007 C 
ATOM     24  C   UNL     1     -13.608  -0.981   1.903  0.00  0.00    -0.010 C 
ATOM     25  C   UNL     1     -12.480  -1.840   1.328  0.00  0.00    +0.011 C 
ATOM     26  C   UNL     1     -13.703   0.328   1.118  0.00  0.00    +0.007 C 
ATOM     27  C   UNL     1     -12.379   1.086   1.227  0.00  0.00    -0.010 C 
ATOM     28  C   UNL     1     -12.087   1.393   2.698  0.00  0.00    +0.007 C 
ATOM     29  C   UNL     1     -11.251   0.227   0.652  0.00  0.00    +0.011 C 
ENDBRANCH  19  20
ENDBRANCH   2  19
TORSDOF 6
