REMARK  Name = ZINC34790427
REMARK  8 active torsions:
REMARK  status: ('A' for Active; 'I' for Inactive)
REMARK    1  A    between atoms: C_1  and  C_2
REMARK    2  A    between atoms: C_6  and  C_22
REMARK    3  A    between atoms: C_8  and  O_11
REMARK    4  A    between atoms: O_11  and  C_12
REMARK    5  A    between atoms: C_12  and  C_13
REMARK    6  A    between atoms: C_16  and  C_19
REMARK    7  A    between atoms: C_22  and  C_23
REMARK    8  A    between atoms: C_22  and  C_24
REMARK                            x       y       z     vdW  Elec       q    Type
REMARK                         _______ _______ _______ _____ _____    ______ ____
ROOT
ATOM      1  C   UNL     1      -2.521  -3.263   2.445  0.00  0.00    -0.022 A 
ATOM      2  C   UNL     1      -3.581  -2.374   2.399  0.00  0.00    +0.006 A 
ATOM      3  C   UNL     1      -4.875  -2.844   2.301  0.00  0.00    +0.011 A 
ATOM      4  C   UNL     1      -5.113  -4.217   2.246  0.00  0.00    +0.012 A 
ATOM      5  C   UNL     1      -4.040  -5.108   2.291  0.00  0.00    +0.011 A 
ATOM      6  C   UNL     1      -2.751  -4.626   2.385  0.00  0.00    +0.006 A 
ENDROOT
BRANCH   4   7
ATOM      7  C   UNL     1      -6.498  -4.727   2.140  0.00  0.00    +0.094 C 
ATOM      8  N   UNL     1      -6.722  -6.038   2.088  0.00  0.00    -0.387 N 
ATOM      9  N   UNL     1      -7.520  -3.875   2.098  0.00  0.00    -0.345 N 
ATOM     10  H   UNL     1      -5.978  -6.660   2.120  0.00  0.00    +0.157 HD
ATOM     11  H   UNL     1      -7.356  -2.919   2.136  0.00  0.00    +0.144 HD
ATOM     12  H   UNL     1      -8.428  -4.209   2.029  0.00  0.00    +0.144 HD
ATOM     13  H   UNL     1      -7.630  -6.373   2.019  0.00  0.00    +0.157 HD
ENDBRANCH   4   7
BRANCH   1  14
ATOM     14  C   UNL     1      -1.111  -2.744   2.553  0.00  0.00    +0.195 C 
BRANCH  14  15
ATOM     15  O   UNL     1      -0.578  -2.535   1.243  0.00  0.00    -0.372 OA
BRANCH  15  21
ATOM     16  C   UNL     1      -0.019   1.526   0.010  0.00  0.00    +0.007 C 
ATOM     17  C   UNL     1       0.002  -0.004   0.002  0.00  0.00    -0.012 C 
ATOM     18  C   UNL     1       0.718  -0.497  -1.257  0.00  0.00    +0.004 C 
ATOM     19  C   UNL     1       0.739  -2.027  -1.265  0.00  0.00    +0.006 C 
ATOM     20  C   UNL     1       1.479  -2.534  -0.026  0.00  0.00    +0.020 C 
ATOM     21  C   UNL     1       0.763  -2.041   1.233  0.00  0.00    +0.122 C 
ATOM     22  C   UNL     1       0.742  -0.511   1.242  0.00  0.00    +0.035 C 
BRANCH  20  23
ATOM     23  C   UNL     1       1.500  -4.064  -0.034  0.00  0.00    -0.012 C 
ATOM     24  C   UNL     1       2.216  -4.557  -1.293  0.00  0.00    +0.007 C 
ATOM     25  C   UNL     1       2.240  -4.571   1.205  0.00  0.00    +0.007 C 
ENDBRANCH  20  23
ENDBRANCH  15  21
ENDBRANCH  14  15
ENDBRANCH   1  14
TORSDOF 5
