REMARK  Name = ZINC46556721
REMARK  11 active torsions:
REMARK  status: ('A' for Active; 'I' for Inactive)
REMARK    1  A    between atoms: C_1  and  C_2
REMARK    2  A    between atoms: C_3  and  C_25
REMARK    3  A    between atoms: N_7  and  C_8
REMARK    4  A    between atoms: C_8  and  C_10
REMARK    5  A    between atoms: C_10  and  N_11
REMARK    6  A    between atoms: N_11  and  C_12
REMARK    7  A    between atoms: N_11  and  C_13
REMARK    8  A    between atoms: C_13  and  C_14
REMARK    9  A    between atoms: N_16  and  C_17
REMARK   10  A    between atoms: C_22  and  S_23
REMARK   11  A    between atoms: S_23  and  C_24
REMARK                            x       y       z     vdW  Elec       q    Type
REMARK                         _______ _______ _______ _____ _____    ______ ____
ROOT
ATOM      1  N   UNL     1       5.817  -2.693  -0.059  0.00  0.00    +0.389 N 
ATOM      2  C   UNL     1       5.942  -1.954   1.204  0.00  0.00    -0.095 C 
ATOM      3  H   UNL     1       5.833  -2.044  -0.832  0.00  0.00    -0.081 HD
ENDROOT
BRANCH   1   4
ATOM      4  C   UNL     1       4.550  -3.436  -0.069  0.00  0.00    +0.021 C 
BRANCH   4   5
ATOM      5  C   UNL     1       3.398  -2.464  -0.060  0.00  0.00    +0.222 C 
ATOM      6  O   UNL     1       3.613  -1.267  -0.047  0.00  0.00    -0.276 OA
BRANCH   5  13
ATOM      7  C   UNL     1      -0.019   1.504  -0.021  0.00  0.00    +0.064 C 
ATOM      8  C   UNL     1       0.001  -0.003  -0.037  0.00  0.00    +0.024 A 
ATOM      9  C   UNL     1      -1.132  -0.714  -0.046  0.00  0.00    +0.009 A 
ATOM     10  S   UNL     1      -0.518  -2.387  -0.064  0.00  0.00    -0.057 S 
ATOM     11  C   UNL     1       1.130  -2.054  -0.059  0.00  0.00    +0.163 A 
ATOM     12  N   UNL     1       1.171  -0.695  -0.049  0.00  0.00    -0.339 N 
ATOM     13  N   UNL     1       2.150  -2.915  -0.067  0.00  0.00    -0.158 NA
ATOM     14  C   UNL     1      -2.558  -0.226  -0.042  0.00  0.00    +0.053 C 
ATOM     15  H   UNL     1       2.021  -0.227  -0.047  0.00  0.00    +0.167 HD
ENDBRANCH   5  13
ENDBRANCH   4   5
ENDBRANCH   1   4
BRANCH   1  16
ATOM     16  C   UNL     1       6.938  -3.635  -0.189  0.00  0.00    +0.019 C 
BRANCH  16  17
ATOM     17  C   UNL     1       8.229  -2.866  -0.302  0.00  0.00    +0.201 C 
ATOM     18  O   UNL     1       8.217  -1.653  -0.278  0.00  0.00    -0.278 OA
ATOM     19  N   UNL     1       9.397  -3.526  -0.431  0.00  0.00    -0.286 N 
ATOM     20  H   UNL     1       9.416  -4.494  -0.370  0.00  0.00    +0.155 HD
BRANCH  19  21
ATOM     21  C   UNL     1      10.584  -2.814  -0.653  0.00  0.00    +0.047 A 
ATOM     22  C   UNL     1      10.542  -1.559  -1.239  0.00  0.00    +0.024 A 
ATOM     23  C   UNL     1      11.713  -0.858  -1.457  0.00  0.00    +0.002 A 
ATOM     24  C   UNL     1      12.930  -1.405  -1.092  0.00  0.00    +0.001 A 
ATOM     25  C   UNL     1      12.982  -2.656  -0.507  0.00  0.00    +0.016 A 
ATOM     26  C   UNL     1      11.810  -3.364  -0.279  0.00  0.00    +0.029 A 
BRANCH  26  27
ATOM     27  S   UNL     1      11.872  -4.957   0.473  0.00  0.00    -0.127 S 
ATOM     28  C   UNL     1      13.640  -5.233   0.770  0.00  0.00    +0.090 C 
ENDBRANCH  26  27
ENDBRANCH  19  21
ENDBRANCH  16  17
ENDBRANCH   1  16
TORSDOF 7
