REMARK  Name = ZINC05956709
REMARK  6 active torsions:
REMARK  status: ('A' for Active; 'I' for Inactive)
REMARK    1  A    between atoms: C_1  and  C_2
REMARK    2  A    between atoms: C_4  and  C_23
REMARK    3  A    between atoms: C_13  and  N_15
REMARK    4  A    between atoms: N_15  and  N_16
REMARK    5  A    between atoms: C_26  and  O_29
REMARK    6  A    between atoms: O_29  and  C_30
REMARK                            x       y       z     vdW  Elec       q    Type
REMARK                         _______ _______ _______ _____ _____    ______ ____
ROOT
ATOM      1  C   UNL     1       0.327  -0.819  -2.090  0.00  0.00    +0.013 C 
ATOM      2  C   UNL     1      -0.800  -0.150  -1.302  0.00  0.00    +0.055 C 
ATOM      3  C   UNL     1      -0.359   0.067   0.148  0.00  0.00    +0.060 C 
ATOM      4  C   UNL     1       0.676   1.161   0.205  0.00  0.00    +0.006 A 
ATOM      5  C   UNL     1       1.474   1.263   1.335  0.00  0.00    +0.057 A 
ATOM      6  C   UNL     1       2.433   2.256   1.427  0.00  0.00    +0.167 A 
ATOM      7  C   UNL     1       2.597   3.159   0.379  0.00  0.00    +0.170 A 
ATOM      8  C   UNL     1       1.802   3.055  -0.748  0.00  0.00    +0.095 A 
ATOM      9  C   UNL     1       0.840   2.055  -0.838  0.00  0.00    +0.130 A 
ATOM     10  O   UNL     1       0.086   1.982  -1.967  0.00  0.00    -0.472 OA
ATOM     11  C   UNL     1      -1.120   1.219  -1.917  0.00  0.00    +0.262 C 
ATOM     12  O   UNL     1       3.593   4.033   0.708  0.00  0.00    -0.452 OA
ATOM     13  C   UNL     1       4.313   3.407   1.786  0.00  0.00    +0.466 C 
ATOM     14  O   UNL     1       3.328   2.564   2.412  0.00  0.00    -0.453 OA
ENDROOT
BRANCH   3  15
ATOM     15  C   UNL     1       0.231  -1.210   0.688  0.00  0.00    -0.039 A 
ATOM     16  C   UNL     1      -0.461  -1.943   1.636  0.00  0.00    +0.008 A 
ATOM     17  C   UNL     1       0.075  -3.117   2.129  0.00  0.00    +0.046 A 
ATOM     18  C   UNL     1       1.313  -3.555   1.681  0.00  0.00    +0.120 A 
ATOM     19  C   UNL     1       2.007  -2.815   0.735  0.00  0.00    +0.046 A 
ATOM     20  C   UNL     1       1.465  -1.645   0.241  0.00  0.00    +0.008 A 
BRANCH  18  21
ATOM     21  O   UNL     1       1.845  -4.707   2.168  0.00  0.00    -0.495 OA
ATOM     22  C   UNL     1       1.074  -5.417   3.140  0.00  0.00    +0.277 C 
ENDBRANCH  18  21
ENDBRANCH   3  15
BRANCH  11  23
ATOM     23  N   UNL     1      -2.112   1.915  -1.088  0.00  0.00    -0.201 NA
ATOM     24  H   UNL     1      -2.755   1.261  -0.667  0.00  0.00    +0.148 HD
BRANCH  23  25
ATOM     25  N   UNL     1      -2.781   2.859  -1.814  0.00  0.00    -0.232 N 
ATOM     26  C   UNL     1      -3.606   3.727  -1.194  0.00  0.00    +0.311 C 
ATOM     27  O   UNL     1      -4.201   4.567  -1.840  0.00  0.00    -0.252 OA
ATOM     28  N   UNL     1      -3.771   3.662   0.142  0.00  0.00    -0.312 N 
ATOM     29  H   UNL     1      -2.662   2.906  -2.775  0.00  0.00    +0.171 HD
ATOM     30  H   UNL     1      -3.296   2.991   0.658  0.00  0.00    +0.147 HD
ATOM     31  H   UNL     1      -4.364   4.286   0.589  0.00  0.00    +0.147 HD
ENDBRANCH  23  25
ENDBRANCH  11  23
TORSDOF 4
