REMARK  Name = ZINC35664546
REMARK  11 active torsions:
REMARK  status: ('A' for Active; 'I' for Inactive)
REMARK    1  A    between atoms: C_1  and  C_2
REMARK    2  A    between atoms: C_2  and  N_3
REMARK    3  A    between atoms: C_4  and  C_24
REMARK    4  A    between atoms: C_5  and  C_19
REMARK    5  A    between atoms: C_6  and  C_11
REMARK    6  A    between atoms: C_19  and  O_21
REMARK    7  A    between atoms: O_21  and  C_22
REMARK    8  A    between atoms: C_22  and  C_23
REMARK    9  A    between atoms: C_24  and  N_25
REMARK   10  A    between atoms: C_29  and  C_32
REMARK   11  A    between atoms: C_33  and  C_35
REMARK                            x       y       z     vdW  Elec       q    Type
REMARK                         _______ _______ _______ _____ _____    ______ ____
ROOT
ATOM      1  N   UNL     1       1.119  -0.412  -0.614  0.00  0.00    -0.258 N 
ATOM      2  C   UNL     1       0.081  -0.445  -1.500  0.00  0.00    +0.041 C 
ATOM      3  C   UNL     1       0.274  -0.804  -2.788  0.00  0.00    +0.080 C 
ATOM      4  C   UNL     1       1.681  -1.171  -3.214  0.00  0.00    +0.145 C 
ATOM      5  N   UNL     1       2.730  -1.103  -2.182  0.00  0.00    -0.288 N 
ATOM      6  C   UNL     1       2.381  -0.721  -0.937  0.00  0.00    +0.307 C 
ATOM      7  O   UNL     1       3.240  -0.658  -0.079  0.00  0.00    -0.252 OA
ATOM      8  H   UNL     1       3.650  -1.326  -2.393  0.00  0.00    +0.151 HD
ENDROOT
BRANCH   4   9
ATOM      9  C   UNL     1       2.079  -0.252  -4.340  0.00  0.00    -0.003 A 
ATOM     10  C   UNL     1       2.741   0.931  -4.066  0.00  0.00    +0.007 A 
ATOM     11  C   UNL     1       3.106   1.774  -5.099  0.00  0.00    +0.002 A 
ATOM     12  C   UNL     1       2.811   1.435  -6.406  0.00  0.00    +0.021 A 
ATOM     13  C   UNL     1       2.149   0.253  -6.682  0.00  0.00    +0.060 A 
ATOM     14  C   UNL     1       1.788  -0.595  -5.648  0.00  0.00    +0.064 A 
ATOM     15 CL   UNL     1       0.964  -2.084  -5.993  0.00  0.00    -0.082 Cl
ATOM     16 CL   UNL     1       1.777  -0.173  -8.323  0.00  0.00    -0.082 Cl
ENDBRANCH   4   9
BRANCH   1  18
ATOM     17  C   UNL     1       0.986   1.504   0.899  0.00  0.00    +0.025 C 
ATOM     18  C   UNL     1       0.837  -0.013   0.767  0.00  0.00    +0.111 C 
ENDBRANCH   1  18
BRANCH   3  19
ATOM     19  C   UNL     1      -0.801  -0.839  -3.707  0.00  0.00    +0.339 C 
ATOM     20  O   UNL     1      -1.373  -1.888  -3.934  0.00  0.00    -0.245 OA
BRANCH  19  21
ATOM     21  O   UNL     1      -1.192   0.292  -4.331  0.00  0.00    -0.462 OA
BRANCH  21  22
ATOM     22  C   UNL     1      -2.213   0.166  -5.322  0.00  0.00    +0.229 C 
ATOM     23  C   UNL     1      -2.434   1.519  -6.001  0.00  0.00    +0.048 C 
ENDBRANCH  21  22
ENDBRANCH  19  21
ENDBRANCH   3  19
BRANCH   2  24
ATOM     24  C   UNL     1      -1.304  -0.072  -1.035  0.00  0.00    +0.136 C 
BRANCH  24  25
ATOM     25  N   UNL     1      -1.783  -1.075  -0.074  0.00  0.00    -0.294 NA
ATOM     26  C   UNL     1      -1.964  -2.381  -0.723  0.00  0.00    +0.104 C 
ATOM     27  C   UNL     1      -2.288  -3.436   0.340  0.00  0.00    +0.123 C 
ATOM     28  N   UNL     1      -3.439  -2.968   1.127  0.00  0.00    -0.296 N 
ATOM     29  C   UNL     1      -3.388  -1.612   1.696  0.00  0.00    +0.087 C 
ATOM     30  C   UNL     1      -3.021  -0.629   0.579  0.00  0.00    +0.107 C 
ATOM     31  C   UNL     1      -4.755  -1.247   2.278  0.00  0.00    +0.029 C 
ATOM     32  C   UNL     1      -4.511  -3.760   1.323  0.00  0.00    +0.219 C 
ATOM     33  O   UNL     1      -5.487  -3.329   1.900  0.00  0.00    -0.275 OA
BRANCH  32  34
ATOM     34  C   UNL     1      -4.499  -5.182   0.824  0.00  0.00    +0.075 C 
ATOM     35  C   UNL     1      -5.434  -5.532  -0.336  0.00  0.00    +0.013 C 
ATOM     36  C   UNL     1      -5.746  -6.030   1.076  0.00  0.00    +0.013 C 
ENDBRANCH  32  34
ENDBRANCH  24  25
ENDBRANCH   2  24
TORSDOF 8
