REMARK  Name = ZINC07080949
REMARK  6 active torsions:
REMARK  status: ('A' for Active; 'I' for Inactive)
REMARK    1  A    between atoms: C_3  and  C_6
REMARK    2  A    between atoms: C_6  and  C_7
REMARK    3  A    between atoms: C_10  and  S_18
REMARK    4  A    between atoms: N_11  and  C_12
REMARK    5  A    between atoms: S_18  and  C_19
REMARK    6  A    between atoms: C_19  and  C_20
REMARK                            x       y       z     vdW  Elec       q    Type
REMARK                         _______ _______ _______ _____ _____    ______ ____
ROOT
ATOM      1  C   UNL     1      -1.607   3.032  -1.394  0.00  0.00    +0.139 A 
ATOM      2  N   UNL     1      -2.464   2.371  -2.121  0.00  0.00    -0.133 NA
ATOM      3  N   UNL     1      -2.570   2.915  -3.281  0.00  0.00    -0.122 NA
ATOM      4  C   UNL     1      -1.781   3.961  -3.357  0.00  0.00    +0.192 A 
ATOM      5  N   UNL     1      -1.146   4.072  -2.154  0.00  0.00    -0.303 N 
ENDROOT
BRANCH   5   6
ATOM      6  C   UNL     1      -0.170   5.090  -1.759  0.00  0.00    +0.091 C 
ATOM      7  C   UNL     1      -0.814   6.475  -1.845  0.00  0.00    +0.025 C 
ATOM      8  C   UNL     1       0.205   7.539  -1.433  0.00  0.00    +0.002 C 
ATOM      9  C   UNL     1       1.412   7.479  -2.371  0.00  0.00    +0.000 C 
ATOM     10  C   UNL     1       2.057   6.094  -2.284  0.00  0.00    +0.002 C 
ATOM     11  C   UNL     1       1.038   5.030  -2.697  0.00  0.00    +0.025 C 
ENDBRANCH   5   6
BRANCH   1  12
ATOM     12  C   UNL     1      -1.206   2.714   0.023  0.00  0.00    +0.118 C 
BRANCH  12  15
ATOM     13  C   UNL     1       2.220   1.048  -0.013  0.00  0.00    +0.008 A 
ATOM     14  C   UNL     1       1.300   2.079   0.001  0.00  0.00    +0.011 A 
ATOM     15  C   UNL     1      -0.022   1.781   0.012  0.00  0.00    -0.003 A 
ATOM     16  S   UNL     1       0.002  -0.004   0.002  0.00  0.00    -0.101 S 
ATOM     17  C   UNL     1       1.773  -0.232  -0.016  0.00  0.00    +0.045 A 
ENDBRANCH  12  15
ENDBRANCH   1  12
BRANCH   4  18
ATOM     18  S   UNL     1      -1.584   5.026  -4.747  0.00  0.00    -0.078 S 
BRANCH  18  19
ATOM     19  C   UNL     1      -2.734   4.245  -5.906  0.00  0.00    +0.153 C 
BRANCH  19  20
ATOM     20  C   UNL     1      -2.733   5.008  -7.206  0.00  0.00    +0.146 A 
ATOM     21  N   UNL     1      -3.582   6.005  -7.386  0.00  0.00    -0.199 NA
ATOM     22  C   UNL     1      -3.580   6.684  -8.531  0.00  0.00    +0.217 A 
ATOM     23  N   UNL     1      -2.731   6.352  -9.497  0.00  0.00    -0.181 NA
ATOM     24  C   UNL     1      -1.883   5.346  -9.314  0.00  0.00    +0.217 A 
ATOM     25  N   UNL     1      -1.887   4.675  -8.165  0.00  0.00    -0.199 NA
ATOM     26  N   UNL     1      -0.999   4.997 -10.315  0.00  0.00    -0.327 N 
ATOM     27  N   UNL     1      -4.463   7.728  -8.716  0.00  0.00    -0.327 N 
ATOM     28  H   UNL     1      -0.381   4.262 -10.181  0.00  0.00    +0.145 HD
ATOM     29  H   UNL     1      -0.997   5.486 -11.153  0.00  0.00    +0.145 HD
ATOM     30  H   UNL     1      -4.464   8.220  -9.552  0.00  0.00    +0.145 HD
ATOM     31  H   UNL     1      -5.083   7.970  -8.010  0.00  0.00    +0.145 HD
ENDBRANCH  19  20
ENDBRANCH  18  19
ENDBRANCH   4  18
TORSDOF 6
