REMARK  Name = ZINC36892374
REMARK  10 active torsions:
REMARK  status: ('A' for Active; 'I' for Inactive)
REMARK    1  A    between atoms: C_1  and  O_2
REMARK    2  A    between atoms: O_2  and  C_3
REMARK    3  A    between atoms: C_3  and  C_5
REMARK    4  A    between atoms: C_5  and  C_7
REMARK    5  A    between atoms: C_5  and  N_18
REMARK    6  A    between atoms: C_7  and  C_8
REMARK    7  A    between atoms: C_19  and  C_21
REMARK    8  A    between atoms: C_24  and  C_27
REMARK    9  A    between atoms: C_27  and  S_28
REMARK   10  A    between atoms: S_28  and  C_29
REMARK                            x       y       z     vdW  Elec       q    Type
REMARK                         _______ _______ _______ _____ _____    ______ ____
ROOT
ATOM      1  N   UNL     1       1.354  -2.503  -2.345  0.00  0.00    -0.298 N 
ATOM      2  C   UNL     1       2.700  -2.578  -2.362  0.00  0.00    +0.245 C 
ATOM      3  O   UNL     1       3.335  -2.314  -1.360  0.00  0.00    -0.270 OA
ATOM      4  H   UNL     1       0.847  -2.713  -3.145  0.00  0.00    +0.150 HD
ENDROOT
BRANCH   2   5
ATOM      5  C   UNL     1       3.402  -2.981  -3.599  0.00  0.00    +0.037 A 
ATOM      6  C   UNL     1       2.675  -3.279  -4.752  0.00  0.00    +0.013 A 
ATOM      7  C   UNL     1       3.337  -3.653  -5.903  0.00  0.00    +0.005 A 
ATOM      8  C   UNL     1       4.718  -3.735  -5.915  0.00  0.00    -0.037 A 
ATOM      9  C   UNL     1       5.445  -3.442  -4.775  0.00  0.00    +0.005 A 
ATOM     10  C   UNL     1       4.796  -3.060  -3.619  0.00  0.00    +0.013 A 
BRANCH   8  11
ATOM     11  C   UNL     1       5.435  -4.146  -7.176  0.00  0.00    +0.112 C 
BRANCH  11  12
ATOM     12  S   UNL     1       5.815  -2.672  -8.163  0.00  0.00    -0.083 S 
BRANCH  12  13
ATOM     13  C   UNL     1       6.640  -3.311  -9.583  0.00  0.00    +0.168 A 
ATOM     14  N   UNL     1       7.123  -2.558 -10.615  0.00  0.00    -0.333 N 
ATOM     15  H   UNL     1       7.074  -1.592 -10.695  0.00  0.00    +0.168 HD
ATOM     16  C   UNL     1       7.696  -3.430 -11.526  0.00  0.00    +0.067 A 
ATOM     17  C   UNL     1       8.335  -3.263 -12.745  0.00  0.00    +0.028 A 
ATOM     18  C   UNL     1       8.808  -4.364 -13.430  0.00  0.00    +0.002 A 
ATOM     19  C   UNL     1       8.648  -5.639 -12.906  0.00  0.00    +0.002 A 
ATOM     20  C   UNL     1       8.016  -5.823 -11.697  0.00  0.00    +0.030 A 
ATOM     21  C   UNL     1       7.531  -4.718 -10.991  0.00  0.00    +0.090 A 
ATOM     22  N   UNL     1       6.886  -4.579  -9.804  0.00  0.00    -0.222 NA
ENDBRANCH  12  13
ENDBRANCH  11  12
ENDBRANCH   8  11
ENDBRANCH   2   5
BRANCH   1  23
ATOM     23  C   UNL     1       0.657  -2.104  -1.120  0.00  0.00    +0.186 C 
BRANCH  23  24
ATOM     24  C   UNL     1       0.598  -0.600  -1.043  0.00  0.00    +0.328 C 
ATOM     25  O   UNL     1       1.088   0.070  -1.921  0.00  0.00    -0.249 OA
BRANCH  24  27
ATOM     26  C   UNL     1      -0.017   1.425   0.010  0.00  0.00    +0.280 C 
ATOM     27  O   UNL     1       0.002  -0.004   0.002  0.00  0.00    -0.467 OA
ENDBRANCH  24  27
ENDBRANCH  23  24
BRANCH  23  28
ATOM     28  C   UNL     1      -0.764  -2.670  -1.133  0.00  0.00    +0.071 C 
BRANCH  28  29
ATOM     29  C   UNL     1      -0.705  -4.175  -1.086  0.00  0.00    -0.020 A 
ATOM     30  C   UNL     1      -0.739  -5.009  -2.138  0.00  0.00    +0.087 A 
ATOM     31  N   UNL     1      -0.665  -6.306  -1.708  0.00  0.00    -0.360 N 
ATOM     32  H   UNL     1      -0.671  -7.085  -2.285  0.00  0.00    +0.165 HD
ATOM     33  C   UNL     1      -0.579  -6.339  -0.334  0.00  0.00    +0.047 A 
ATOM     34  C   UNL     1      -0.594  -5.006   0.115  0.00  0.00    +0.003 A 
ATOM     35  C   UNL     1      -0.513  -4.730   1.481  0.00  0.00    +0.010 A 
ATOM     36  C   UNL     1      -0.416  -5.758   2.376  0.00  0.00    +0.001 A 
ATOM     37  C   UNL     1      -0.396  -7.075   1.938  0.00  0.00    +0.002 A 
ATOM     38  C   UNL     1      -0.484  -7.370   0.595  0.00  0.00    +0.026 A 
ENDBRANCH  28  29
ENDBRANCH  23  28
ENDBRANCH   1  23
TORSDOF 9
