REMARK  Name = ZINC36161491
REMARK  17 active torsions:
REMARK  status: ('A' for Active; 'I' for Inactive)
REMARK    1  A    between atoms: C_1  and  C_2
REMARK    2  A    between atoms: C_2  and  C_3
REMARK    3  A    between atoms: C_3  and  C_4
REMARK    4  A    between atoms: C_4  and  O_6
REMARK    5  A    between atoms: O_6  and  C_7
REMARK    6  A    between atoms: C_7  and  C_8
REMARK    7  A    between atoms: C_8  and  C_10
REMARK    8  A    between atoms: C_8  and  O_35
REMARK    9  A    between atoms: C_10  and  N_11
REMARK   10  A    between atoms: N_11  and  C_12
REMARK   11  A    between atoms: N_11  and  C_17
REMARK   12  A    between atoms: C_12  and  C_13
REMARK   13  A    between atoms: C_13  and  C_14
REMARK   14  A    between atoms: C_14  and  C_15
REMARK   15  A    between atoms: C_14  and  C_16
REMARK   16  A    between atoms: C_17  and  C_18
REMARK   17  A    between atoms: C_30  and  C_34
REMARK                            x       y       z     vdW  Elec       q    Type
REMARK                         _______ _______ _______ _____ _____    ______ ____
ROOT
ATOM      1  N   UNL     1       2.894  -6.874   4.558  0.00  0.00    +0.386 N 
ATOM      2  H   UNL     1       3.547  -6.123   4.390  0.00  0.00    -0.081 HD
ENDROOT
BRANCH   1   3
ATOM      3  C   UNL     1       1.711  -6.694   3.706  0.00  0.00    -0.043 C 
BRANCH   3   4
ATOM      4  C   UNL     1       1.126  -5.299   3.934  0.00  0.00    +0.136 C 
BRANCH   4   5
ATOM      5  O   UNL     1       0.588  -5.218   5.255  0.00  0.00    -0.390 OA
ATOM      6  H   UNL     1      -0.117  -5.856   5.432  0.00  0.00    +0.210 HD
ENDBRANCH   4   5
BRANCH   4   7
ATOM      7  C   UNL     1       0.015  -5.039   2.914  0.00  0.00    +0.261 C 
BRANCH   7   8
ATOM      8  O   UNL     1      -0.452  -3.696   3.050  0.00  0.00    -0.462 OA
BRANCH   8   9
ATOM      9  C   UNL     1      -1.434  -3.305   2.222  0.00  0.00    +0.307 C 
ATOM     10  O   UNL     1      -1.881  -4.078   1.409  0.00  0.00    -0.251 OA
BRANCH   9  11
ATOM     11  C   UNL     1      -1.977  -1.902   2.307  0.00  0.00    +0.120 C 
BRANCH  11  13
ATOM     12  C   UNL     1      -3.631  -0.293   1.348  0.00  0.00    +0.004 C 
ATOM     13  C   UNL     1      -3.079  -1.718   1.262  0.00  0.00    +0.008 C 
ENDBRANCH  11  13
ENDBRANCH   9  11
ENDBRANCH   8   9
ENDBRANCH   7   8
ENDBRANCH   4   7
ENDBRANCH   3   4
ENDBRANCH   1   3
BRANCH   1  14
ATOM     14  C   UNL     1       2.487  -6.862   5.970  0.00  0.00    -0.078 C 
BRANCH  14  15
ATOM     15  C   UNL     1       1.383  -7.898   6.191  0.00  0.00    -0.016 C 
BRANCH  15  16
ATOM     16  C   UNL     1       0.880  -7.808   7.633  0.00  0.00    -0.019 C 
ATOM     17  C   UNL     1      -0.307  -8.755   7.819  0.00  0.00    +0.007 C 
ATOM     18  C   UNL     1       2.005  -8.205   8.591  0.00  0.00    +0.007 C 
ENDBRANCH  15  16
ENDBRANCH  14  15
ENDBRANCH   1  14
BRANCH   1  19
ATOM     19  C   UNL     1       3.534  -8.158   4.244  0.00  0.00    -0.003 C 
BRANCH  19  20
ATOM     20  C   UNL     1       4.834  -8.270   4.997  0.00  0.00    +0.094 A 
ATOM     21  N   UNL     1       5.569  -9.407   4.895  0.00  0.00    -0.312 N 
ATOM     22  H   UNL     1       5.246 -10.133   4.338  0.00  0.00    +0.170 HD
ATOM     23  C   UNL     1       6.736  -9.549   5.551  0.00  0.00    +0.260 A 
ATOM     24  O   UNL     1       7.384 -10.576   5.448  0.00  0.00    -0.267 OA
ATOM     25  C   UNL     1       7.204  -8.471   6.372  0.00  0.00    +0.075 A 
ATOM     26  C   UNL     1       8.428  -8.402   7.169  0.00  0.00    -0.023 A 
ATOM     27  C   UNL     1       8.643  -7.264   7.863  0.00  0.00    -0.004 A 
ATOM     28  S   UNL     1       7.247  -6.233   7.499  0.00  0.00    -0.073 S 
ATOM     29  C   UNL     1       6.377  -7.337   6.416  0.00  0.00    +0.116 A 
ATOM     30  N   UNL     1       5.237  -7.269   5.734  0.00  0.00    -0.229 NA
ATOM     31  C   UNL     1       9.810  -6.947   8.747  0.00  0.00    +0.046 C 
ATOM     32  C   UNL     1      10.556  -8.254   9.051  0.00  0.00    -0.009 C 
ATOM     33  C   UNL     1      10.767  -9.015   7.739  0.00  0.00    +0.008 C 
ATOM     34  C   UNL     1       9.429  -9.552   7.229  0.00  0.00    +0.037 C 
ATOM     35  C   UNL     1      11.911  -7.935   9.687  0.00  0.00    +0.008 C 
ENDBRANCH  19  20
ENDBRANCH   1  19
TORSDOF 13
