REMARK  Name = ZINC13729559
REMARK  11 active torsions:
REMARK  status: ('A' for Active; 'I' for Inactive)
REMARK    1  A    between atoms: C_4  and  N_7
REMARK    2  A    between atoms: C_8  and  O_12
REMARK    3  A    between atoms: O_12  and  C_13
REMARK    4  A    between atoms: C_17  and  C_19
REMARK    5  A    between atoms: C_19  and  N_57
REMARK    6  A    between atoms: C_20  and  C_21
REMARK    7  A    between atoms: C_20  and  N_57
REMARK    8  A    between atoms: C_21  and  C_22
REMARK    9  A    between atoms: C_22  and  S_23
REMARK   10  A    between atoms: S_23  and  C_24
REMARK   11  A    between atoms: N_28  and  C_29
REMARK                            x       y       z     vdW  Elec       q    Type
REMARK                         _______ _______ _______ _____ _____    ______ ____
ROOT
ATOM      1  C   UNL     1       2.264   4.093  -0.024  0.00  0.00    -0.047 C 
ENDROOT
BRANCH   1   6
ATOM      2  C   UNL     1       2.631   7.644   1.214  0.00  0.00    +0.132 A 
ATOM      3  C   UNL     1       2.836   8.330   0.025  0.00  0.00    +0.046 A 
ATOM      4  C   UNL     1       2.855   7.642  -1.173  0.00  0.00    +0.004 A 
ATOM      5  C   UNL     1       2.675   6.271  -1.187  0.00  0.00    +0.002 A 
ATOM      6  C   UNL     1       2.465   5.586  -0.004  0.00  0.00    -0.061 A 
ATOM      7  C   UNL     1       2.446   6.270   1.197  0.00  0.00    +0.048 A 
BRANCH   2   8
ATOM      8  O   UNL     1       2.612   8.319   2.394  0.00  0.00    -0.423 OA
BRANCH   8  10
ATOM      9  N   UNL     1       2.750  10.506   3.418  0.00  0.00    -0.162 N 
ATOM     10  C   UNL     1       2.662   9.672   2.354  0.00  0.00    +0.347 A 
ATOM     11  N   UNL     1       2.639  10.421   1.276  0.00  0.00    -0.070 NA
ATOM     12  N   UNL     1       2.699  11.665   1.590  0.00  0.00    -0.019 NA
ATOM     13  N   UNL     1       2.771  11.801   2.870  0.00  0.00    -0.036 NA
BRANCH   9  17
ATOM     14  C   UNL     1       2.921   9.458   7.449  0.00  0.00    +0.000 A 
ATOM     15  C   UNL     1       3.628  10.554   6.991  0.00  0.00    +0.002 A 
ATOM     16  C   UNL     1       3.574  10.903   5.656  0.00  0.00    +0.028 A 
ATOM     17  C   UNL     1       2.808  10.153   4.774  0.00  0.00    +0.072 A 
ATOM     18  C   UNL     1       2.094   9.056   5.238  0.00  0.00    +0.028 A 
ATOM     19  C   UNL     1       2.157   8.709   6.574  0.00  0.00    +0.002 A 
ENDBRANCH   9  17
ENDBRANCH   8  10
ENDBRANCH   2   8
ENDBRANCH   1   6
BRANCH   1  20
ATOM     20  N   UNL     1       0.825   3.801  -0.159  0.00  0.00    +0.382 N 
ATOM     21  H   UNL     1       0.477   4.211  -1.033  0.00  0.00    -0.085 HD
ATOM     22  H   UNL     1       0.320   4.210   0.636  0.00  0.00    -0.085 HD
BRANCH  20  23
ATOM     23  C   UNL     1       0.598   2.343  -0.181  0.00  0.00    -0.081 C 
BRANCH  23  24
ATOM     24  C   UNL     1      -0.901   2.071  -0.322  0.00  0.00    -0.008 C 
BRANCH  24  25
ATOM     25  C   UNL     1      -1.145   0.561  -0.345  0.00  0.00    +0.075 C 
BRANCH  25  26
ATOM     26  S   UNL     1      -2.918   0.239  -0.512  0.00  0.00    -0.084 S 
BRANCH  26  27
ATOM     27  C   UNL     1      -2.911  -1.523  -0.512  0.00  0.00    +0.214 A 
ATOM     28  N   UNL     1      -1.854  -2.301  -0.413  0.00  0.00    -0.101 NA
ATOM     29  N   UNL     1      -2.201  -3.537  -0.446  0.00  0.00    -0.022 NA
ATOM     30  N   UNL     1      -3.480  -3.642  -0.566  0.00  0.00    -0.038 NA
ATOM     31  N   UNL     1      -3.994  -2.334  -0.609  0.00  0.00    -0.187 N 
BRANCH  31  32
ATOM     32  C   UNL     1      -5.338  -1.951  -0.727  0.00  0.00    +0.070 A 
ATOM     33  C   UNL     1      -5.798  -0.818  -0.071  0.00  0.00    +0.028 A 
ATOM     34  C   UNL     1      -7.121  -0.439  -0.194  0.00  0.00    +0.002 A 
ATOM     35  C   UNL     1      -7.989  -1.194  -0.962  0.00  0.00    +0.000 A 
ATOM     36  C   UNL     1      -7.534  -2.327  -1.612  0.00  0.00    +0.002 A 
ATOM     37  C   UNL     1      -6.211  -2.707  -1.497  0.00  0.00    +0.028 A 
ENDBRANCH  31  32
ENDBRANCH  26  27
ENDBRANCH  25  26
ENDBRANCH  24  25
ENDBRANCH  23  24
ENDBRANCH  20  23
ENDBRANCH   1  20
TORSDOF 11
