REMARK  Name = ZINC39674381
REMARK  8 active torsions:
REMARK  status: ('A' for Active; 'I' for Inactive)
REMARK    1  A    between atoms: C_1  and  C_2
REMARK    2  A    between atoms: C_4  and  C_9
REMARK    3  A    between atoms: C_5  and  C_8
REMARK    4  A    between atoms: C_9  and  C_11
REMARK    5  A    between atoms: C_9  and  N_12
REMARK    6  A    between atoms: C_13  and  C_15
REMARK    7  A    between atoms: C_26  and  C_28
REMARK    8  A    between atoms: N_32  and  C_33
REMARK                            x       y       z     vdW  Elec       q    Type
REMARK                         _______ _______ _______ _____ _____    ______ ____
ROOT
ATOM      1  C   UNL     1      -2.861  -1.872  -4.924  0.00  0.00    +0.100 C 
ATOM      2  C   UNL     1      -3.961  -2.874  -4.508  0.00  0.00    +0.121 C 
ATOM      3  N   UNL     1      -4.908  -2.885  -5.647  0.00  0.00    -0.295 N 
ATOM      4  C   UNL     1      -4.041  -2.822  -6.848  0.00  0.00    +0.115 C 
ATOM      5  C   UNL     1      -2.916  -1.841  -6.461  0.00  0.00    -0.004 C 
ATOM      6  C   UNL     1      -1.587  -2.306  -7.047  0.00  0.00    -0.010 C 
ATOM      7  C   UNL     1      -1.646  -2.211  -8.574  0.00  0.00    -0.082 C 
ATOM      8  N   UNL     1      -1.919  -0.824  -8.970  0.00  0.00    +0.379 N 
ATOM      9  C   UNL     1      -3.242  -0.416  -8.480  0.00  0.00    -0.082 C 
ATOM     10  C   UNL     1      -3.250  -0.435  -6.949  0.00  0.00    -0.010 C 
ATOM     11  C   UNL     1      -6.254  -2.940  -5.602  0.00  0.00    +0.263 C 
ATOM     12  O   UNL     1      -6.890  -3.121  -6.624  0.00  0.00    -0.268 OA
ATOM     13  H   UNL     1      -1.215  -0.219  -8.576  0.00  0.00    -0.086 HD
ATOM     14  H   UNL     1      -1.897  -0.753  -9.976  0.00  0.00    -0.086 HD
ENDROOT
BRANCH  11  15
ATOM     15  C   UNL     1      -6.952  -2.783  -4.322  0.00  0.00    +0.104 A 
ATOM     16  C   UNL     1      -6.425  -2.244  -3.168  0.00  0.00    +0.032 A 
ATOM     17  C   UNL     1      -7.431  -2.288  -2.197  0.00  0.00    +0.020 A 
ATOM     18  C   UNL     1      -8.531  -2.840  -2.764  0.00  0.00    +0.086 A 
ATOM     19  N   UNL     1      -8.255  -3.141  -4.056  0.00  0.00    -0.346 N 
ATOM     20  C   UNL     1      -9.186  -3.748  -5.010  0.00  0.00    +0.149 C 
ENDBRANCH  11  15
BRANCH   1  22
ATOM     21  N   UNL     1      -0.540  -1.460  -4.176  0.00  0.00    -0.309 N 
ATOM     22  C   UNL     1      -1.511  -2.351  -4.457  0.00  0.00    +0.219 C 
ATOM     23  O   UNL     1      -1.298  -3.538  -4.334  0.00  0.00    -0.275 OA
ATOM     24  H   UNL     1      -0.710  -0.510  -4.274  0.00  0.00    +0.149 HD
BRANCH  21  25
ATOM     25  C   UNL     1       0.773  -1.925  -3.722  0.00  0.00    +0.100 C 
ATOM     26  C   UNL     1       1.641  -2.267  -4.935  0.00  0.00    +0.033 C 
BRANCH  25  29
ATOM     27  C   UNL     1       2.623   0.659  -4.543  0.00  0.00    +0.039 C 
ATOM     28  C   UNL     1       1.702   0.600  -3.322  0.00  0.00    +0.154 C 
ATOM     29  C   UNL     1       1.440  -0.840  -2.916  0.00  0.00    -0.001 C 
ATOM     30  C   UNL     1       1.937  -0.921  -1.680  0.00  0.00    +0.063 C 
ATOM     31  N   UNL     1       2.457   0.265  -1.294  0.00  0.00    -0.159 NA
ATOM     32  N   UNL     1       2.369   1.166  -2.138  0.00  0.00    -0.180 NA
ATOM     33  C   UNL     1       1.921  -2.166  -0.831  0.00  0.00    +0.067 C 
ENDBRANCH  25  29
ENDBRANCH  21  25
ENDBRANCH   1  22
TORSDOF 4
