REMARK  Name = ZINC08342700
REMARK  6 active torsions:
REMARK  status: ('A' for Active; 'I' for Inactive)
REMARK    1  A    between atoms: C_6  and  C_7
REMARK    2  A    between atoms: C_10  and  C_12
REMARK    3  A    between atoms: C_12  and  N_13
REMARK    4  A    between atoms: C_14  and  C_16
REMARK    5  A    between atoms: C_16  and  N_17
REMARK    6  A    between atoms: C_18  and  C_20
REMARK                            x       y       z     vdW  Elec       q    Type
REMARK                         _______ _______ _______ _____ _____    ______ ____
ROOT
ATOM      1  N   UNL     1       8.213  -3.671   4.476  0.00  0.00    -0.307 N 
ATOM      2  C   UNL     1       7.042  -3.337   3.897  0.00  0.00    +0.231 C 
ATOM      3  O   UNL     1       6.159  -4.162   3.796  0.00  0.00    -0.274 OA
ATOM      4  H   UNL     1       8.919  -3.011   4.556  0.00  0.00    +0.149 HD
ENDROOT
BRANCH   1   5
ATOM      5  C   UNL     1       8.418  -5.030   4.983  0.00  0.00    +0.178 C 
BRANCH   5   9
ATOM      6  C   UNL     1      11.958  -5.492   5.761  0.00  0.00    +0.135 A 
ATOM      7  C   UNL     1      11.508  -5.118   6.988  0.00  0.00    +0.050 A 
ATOM      8  C   UNL     1      10.122  -4.894   6.862  0.00  0.00    +0.047 A 
ATOM      9  C   UNL     1       9.798  -5.141   5.577  0.00  0.00    +0.123 A 
ATOM     10  O   UNL     1      10.909  -5.507   4.916  0.00  0.00    -0.458 OA
BRANCH   6  16
ATOM     11  C   UNL     1      14.351  -5.776   6.391  0.00  0.00    +0.013 A 
ATOM     12  C   UNL     1      15.652  -6.097   6.063  0.00  0.00    +0.021 A 
ATOM     13  C   UNL     1      15.971  -6.465   4.766  0.00  0.00    +0.041 A 
ATOM     14  C   UNL     1      14.988  -6.516   3.793  0.00  0.00    +0.021 A 
ATOM     15  C   UNL     1      13.683  -6.202   4.110  0.00  0.00    +0.013 A 
ATOM     16  C   UNL     1      13.354  -5.831   5.415  0.00  0.00    +0.017 A 
ATOM     17 CL   UNL     1      17.612  -6.862   4.360  0.00  0.00    -0.084 Cl
ENDBRANCH   6  16
ENDBRANCH   5   9
ENDBRANCH   1   5
BRANCH   2  18
ATOM     18  C   UNL     1       6.831  -1.939   3.375  0.00  0.00    +0.200 C 
BRANCH  18  19
ATOM     19  N   UNL     1       5.489  -1.831   2.797  0.00  0.00    -0.303 N 
ATOM     20  C   UNL     1       5.076  -0.664   2.265  0.00  0.00    +0.245 C 
ATOM     21  O   UNL     1       5.817   0.300   2.265  0.00  0.00    -0.270 OA
ATOM     22  H   UNL     1       4.898  -2.600   2.797  0.00  0.00    +0.150 HD
BRANCH  20  23
ATOM     23  C   UNL     1       3.724  -0.555   1.683  0.00  0.00    +0.040 A 
ATOM     24  C   UNL     1       2.871  -1.662   1.682  0.00  0.00    +0.017 A 
ATOM     25  C   UNL     1       1.609  -1.558   1.138  0.00  0.00    +0.050 A 
ATOM     26  C   UNL     1       1.181  -0.356   0.590  0.00  0.00    +0.166 A 
ATOM     27  C   UNL     1       2.028   0.752   0.588  0.00  0.00    +0.167 A 
ATOM     28  C   UNL     1       3.294   0.654   1.131  0.00  0.00    +0.062 A 
ATOM     29  O   UNL     1       1.376   1.797  -0.001  0.00  0.00    -0.453 OA
ATOM     30  C   UNL     1      -0.017   1.435   0.010  0.00  0.00    +0.466 C 
ATOM     31  O   UNL     1       0.002  -0.004   0.002  0.00  0.00    -0.453 OA
ENDBRANCH  20  23
ENDBRANCH  18  19
ENDBRANCH   2  18
TORSDOF 6
