REMARK  Name = ZINC12601952
REMARK  8 active torsions:
REMARK  status: ('A' for Active; 'I' for Inactive)
REMARK    1  A    between atoms: C_1  and  C_2
REMARK    2  A    between atoms: C_3  and  C_11
REMARK    3  A    between atoms: C_4  and  C_10
REMARK    4  A    between atoms: C_11  and  C_12
REMARK    5  A    between atoms: C_12  and  C_13
REMARK    6  A    between atoms: N_15  and  C_16
REMARK    7  A    between atoms: C_16  and  C_18
REMARK    8  A    between atoms: C_16  and  C_19
REMARK                            x       y       z     vdW  Elec       q    Type
REMARK                         _______ _______ _______ _____ _____    ______ ____
ROOT
ATOM      1  C   UNL     1       2.989  -2.592  -3.702  0.00  0.00    +0.214 C 
ATOM      2  O   UNL     1       3.063  -1.979  -4.746  0.00  0.00    -0.276 OA
ATOM      3  N   UNL     1       2.890  -1.926  -2.534  0.00  0.00    -0.312 N 
ATOM      4  H   UNL     1       2.831  -2.417  -1.700  0.00  0.00    +0.149 HD
ENDROOT
BRANCH   3   5
ATOM      5  C   UNL     1       2.870  -0.461  -2.526  0.00  0.00    +0.076 C 
ATOM      6  C   UNL     1       4.305   0.068  -2.537  0.00  0.00    +0.028 C 
BRANCH   5   7
ATOM      7  C   UNL     1       2.154   0.032  -1.268  0.00  0.00    -0.010 C 
ATOM      8  C   UNL     1       0.718  -0.497  -1.257  0.00  0.00    +0.012 C 
ATOM      9  C   UNL     1       0.002  -0.004   0.002  0.00  0.00    -0.010 C 
ATOM     10  C   UNL     1      -0.019   1.526   0.010  0.00  0.00    +0.007 C 
ATOM     11  C   UNL     1       1.417   2.055  -0.000  0.00  0.00    -0.010 C 
ATOM     12  C   UNL     1       2.133   1.562  -1.259  0.00  0.00    +0.012 C 
ATOM     13  C   UNL     1       2.157   1.548   1.239  0.00  0.00    +0.007 C 
ATOM     14  C   UNL     1       2.178   0.019   1.231  0.00  0.00    -0.010 C 
ATOM     15  C   UNL     1       0.742  -0.511   1.242  0.00  0.00    +0.007 C 
ATOM     16  C   UNL     1       2.894  -0.475  -0.028  0.00  0.00    +0.012 C 
ENDBRANCH   5   7
ENDBRANCH   3   5
BRANCH   1  17
ATOM     17  C   UNL     1       3.010  -4.099  -3.710  0.00  0.00    +0.100 C 
BRANCH  17  18
ATOM     18  C   UNL     1       3.129  -4.600  -5.151  0.00  0.00    +0.048 C 
BRANCH  18  21
ATOM     19  C   UNL     1       0.668  -6.095  -5.353  0.00  0.00    +0.063 C 
ATOM     20  C   UNL     1       1.990  -6.811  -5.254  0.00  0.00    +0.020 A 
ATOM     21  C   UNL     1       3.149  -6.106  -5.159  0.00  0.00    -0.007 A 
ATOM     22  C   UNL     1       4.362  -6.800  -5.075  0.00  0.00    +0.046 A 
ATOM     23  N   UNL     1       4.364  -8.117  -5.078  0.00  0.00    -0.228 NA
ATOM     24  C   UNL     1       3.223  -8.803  -5.171  0.00  0.00    +0.178 A 
ATOM     25  S   UNL     1       3.267 -10.515  -5.179  0.00  0.00    -0.011 S 
ATOM     26  N   UNL     1       2.039  -8.170  -5.259  0.00  0.00    -0.337 N 
ATOM     27  H   UNL     1       1.219  -8.684  -5.326  0.00  0.00    +0.168 HD
ATOM     28  C   UNL     1       5.660  -6.042  -4.976  0.00  0.00    +0.066 C 
ENDBRANCH  18  21
ENDBRANCH  17  18
ENDBRANCH   1  17
TORSDOF 5
