REMARK  Name = ZINC10100358
REMARK  15 active torsions:
REMARK  status: ('A' for Active; 'I' for Inactive)
REMARK    1  A    between atoms: C_1  and  C_2
REMARK    2  A    between atoms: C_2  and  O_3
REMARK    3  A    between atoms: O_3  and  C_4
REMARK    4  A    between atoms: N_13  and  C_14
REMARK    5  A    between atoms: C_14  and  C_15
REMARK    6  A    between atoms: C_15  and  N_66
REMARK    7  A    between atoms: C_16  and  N_66
REMARK    8  A    between atoms: C_17  and  N_66
REMARK    9  A    between atoms: C_18  and  C_20
REMARK   10  A    between atoms: C_23  and  S_26
REMARK   11  A    between atoms: S_26  and  N_29
REMARK   12  A    between atoms: N_29  and  C_30
REMARK   13  A    between atoms: N_29  and  C_31
REMARK   14  A    between atoms: C_31  and  C_32
REMARK   15  A    between atoms: C_31  and  C_33
REMARK                            x       y       z     vdW  Elec       q    Type
REMARK                         _______ _______ _______ _____ _____    ______ ____
ROOT
ATOM      1  C   UNL     1      -6.253   3.841   9.029  0.00  0.00    +0.147 A 
ATOM      2  C   UNL     1      -6.849   4.513  10.071  0.00  0.00    +0.048 A 
ATOM      3  C   UNL     1      -6.487   5.812  10.395  0.00  0.00    +0.005 A 
ATOM      4  C   UNL     1      -5.505   6.447   9.657  0.00  0.00    +0.017 A 
ATOM      5  C   UNL     1      -4.903   5.785   8.614  0.00  0.00    +0.044 A 
ATOM      6  C   UNL     1      -5.243   4.463   8.252  0.00  0.00    +0.122 A 
ATOM      7  N   UNL     1      -4.565   3.952   7.201  0.00  0.00    -0.221 NA
ATOM      8  C   UNL     1      -3.643   4.629   6.559  0.00  0.00    +0.168 A 
ATOM      9  S   UNL     1      -3.640   6.189   7.432  0.00  0.00    -0.052 S 
ATOM     10  N   UNL     1      -2.871   4.237   5.478  0.00  0.00    -0.248 N 
ATOM     11  C   UNL     1      -3.021   3.005   4.954  0.00  0.00    +0.252 C 
ATOM     12  O   UNL     1      -3.915   2.281   5.349  0.00  0.00    -0.270 OA
ENDROOT
BRANCH  11  13
ATOM     13  C   UNL     1      -2.100   2.533   3.899  0.00  0.00    +0.037 A 
ATOM     14  C   UNL     1      -1.769   1.179   3.812  0.00  0.00    +0.015 A 
ATOM     15  C   UNL     1      -0.908   0.745   2.825  0.00  0.00    +0.029 A 
ATOM     16  C   UNL     1      -0.373   1.648   1.923  0.00  0.00    +0.106 A 
ATOM     17  C   UNL     1      -0.693   2.991   2.008  0.00  0.00    +0.029 A 
ATOM     18  C   UNL     1      -1.556   3.438   2.986  0.00  0.00    +0.015 A 
BRANCH  16  19
ATOM     19  S   UNL     1       0.726   1.085   0.666  0.00  0.00    +0.061 S 
ATOM     20  O   UNL     1       1.297  -0.127   1.140  0.00  0.00    -0.153 OA
ATOM     21  O   UNL     1       1.516   2.203   0.287  0.00  0.00    -0.153 OA
BRANCH  19  22
ATOM     22  N   UNL     1      -0.198   0.690  -0.650  0.00  0.00    -0.177 NA
ATOM     23  C   UNL     1      -0.718  -0.672  -0.799  0.00  0.00    +0.132 C 
BRANCH  22  24
ATOM     24  C   UNL     1      -0.495   1.702  -1.667  0.00  0.00    +0.073 C 
ATOM     25  C   UNL     1       0.053   1.243  -3.019  0.00  0.00    +0.025 C 
ATOM     26  C   UNL     1      -2.009   1.894  -1.768  0.00  0.00    +0.025 C 
ENDBRANCH  22  24
ENDBRANCH  19  22
ENDBRANCH  16  19
ENDBRANCH  11  13
BRANCH   1  27
ATOM     27  O   UNL     1      -6.634   2.569   8.742  0.00  0.00    -0.490 OA
BRANCH  27  29
ATOM     28  C   UNL     1      -7.950   0.572   9.092  0.00  0.00    +0.048 C 
ATOM     29  C   UNL     1      -7.656   1.998   9.562  0.00  0.00    +0.226 C 
ENDBRANCH  27  29
ENDBRANCH   1  27
BRANCH  10  30
ATOM     30  C   UNL     1      -1.891   5.163   4.903  0.00  0.00    +0.097 C 
BRANCH  30  31
ATOM     31  C   UNL     1      -2.613   6.195   4.035  0.00  0.00    -0.060 C 
BRANCH  31  34
ATOM     32  C   UNL     1      -0.761   6.605   2.530  0.00  0.00    -0.097 C 
ATOM     33  C   UNL     1      -2.330   8.380   3.031  0.00  0.00    -0.097 C 
ATOM     34  N   UNL     1      -1.629   7.196   3.570  0.00  0.00    +0.377 N 
ATOM     35  H   UNL     1      -1.047   7.486   4.365  0.00  0.00    -0.083 HD
ENDBRANCH  31  34
ENDBRANCH  30  31
ENDBRANCH  10  30
TORSDOF 9
