REMARK  Name = ZINC24272749
REMARK  11 active torsions:
REMARK  status: ('A' for Active; 'I' for Inactive)
REMARK    1  A    between atoms: C_1  and  C_2
REMARK    2  A    between atoms: C_6  and  C_36
REMARK    3  A    between atoms: C_7  and  O_8
REMARK    4  A    between atoms: O_8  and  C_9
REMARK    5  A    between atoms: C_9  and  C_10
REMARK    6  A    between atoms: C_13  and  S_16
REMARK    7  A    between atoms: N_14  and  N_15
REMARK    8  A    between atoms: S_16  and  C_17
REMARK    9  A    between atoms: C_17  and  C_19
REMARK   10  A    between atoms: C_17  and  C_20
REMARK   11  A    between atoms: N_25  and  C_26
REMARK                            x       y       z     vdW  Elec       q    Type
REMARK                         _______ _______ _______ _____ _____    ______ ____
ROOT
ATOM      1  C   UNL     1      -8.606   0.679   2.110  0.00  0.00    +0.137 C 
ATOM      2  C   UNL     1      -9.476   1.544   1.195  0.00  0.00    +0.029 C 
ENDROOT
BRANCH   1   3
ATOM      3  C   UNL     1      -7.192   1.201   2.099  0.00  0.00    +0.234 C 
ATOM      4  O   UNL     1      -6.796   1.898   3.008  0.00  0.00    -0.274 OA
ATOM      5  N   UNL     1      -6.368   0.892   1.079  0.00  0.00    -0.239 N 
ATOM      6  C   UNL     1      -5.103   1.358   1.069  0.00  0.00    +0.306 C 
ATOM      7  O   UNL     1      -4.707   2.057   1.980  0.00  0.00    -0.252 OA
ATOM      8  N   UNL     1      -4.279   1.049   0.049  0.00  0.00    -0.294 N 
ATOM      9  H   UNL     1      -6.727   0.259   0.254  0.00  0.00    +0.159 HD
ATOM     10  H   UNL     1      -4.638   0.417  -0.776  0.00  0.00    +0.151 HD
BRANCH   8  11
ATOM     11  C   UNL     1      -2.904   1.556   0.038  0.00  0.00    +0.037 C 
ATOM     12  C   UNL     1      -2.188   1.063  -1.221  0.00  0.00    +0.029 C 
ATOM     13  C   UNL     1      -0.753   1.593  -1.232  0.00  0.00    -0.008 C 
ATOM     14  C   UNL     1      -0.013   1.086   0.008  0.00  0.00    +0.007 C 
ATOM     15  C   UNL     1      -0.729   1.579   1.267  0.00  0.00    -0.008 C 
ATOM     16  C   UNL     1      -2.164   1.050   1.278  0.00  0.00    +0.029 C 
ATOM     17  C   UNL     1      -0.750   3.109   1.275  0.00  0.00    +0.007 C 
ATOM     18  C   UNL     1      -1.490   3.616   0.036  0.00  0.00    -0.008 C 
ATOM     19  C   UNL     1      -0.773   3.123  -1.223  0.00  0.00    +0.007 C 
ATOM     20  C   UNL     1      -2.925   3.086   0.047  0.00  0.00    +0.029 C 
ENDBRANCH   8  11
ENDBRANCH   1   3
BRANCH   1  21
ATOM     21  S   UNL     1      -9.258   0.739   3.797  0.00  0.00    -0.072 S 
BRANCH  21  25
ATOM     22  C   UNL     1     -12.795  -0.907   3.853  0.00  0.00    +0.189 A 
ATOM     23  N   UNL     1     -12.452  -1.018   2.601  0.00  0.00    -0.128 NA
ATOM     24  N   UNL     1     -11.288  -0.506   2.415  0.00  0.00    -0.121 NA
ATOM     25  C   UNL     1     -10.817  -0.045   3.550  0.00  0.00    +0.209 A 
ATOM     26  N   UNL     1     -11.765  -0.284   4.503  0.00  0.00    -0.225 N 
BRANCH  26  27
ATOM     27  N   UNL     1     -11.700   0.034   5.830  0.00  0.00    -0.295 N 
ATOM     28  H   UNL     1     -10.809   0.539   6.231  0.00  0.00    +0.163 HD
ATOM     29  H   UNL     1     -12.539  -0.214   6.497  0.00  0.00    +0.163 HD
ENDBRANCH  26  27
BRANCH  22  30
ATOM     30  C   UNL     1     -14.086  -1.378   4.471  0.00  0.00    +0.306 C 
BRANCH  30  31
ATOM     31  O   UNL     1     -15.055  -0.330   4.407  0.00  0.00    -0.484 OA
BRANCH  31  38
ATOM     32  C   UNL     1     -16.998  -1.412   2.665  0.00  0.00    +0.047 C 
ATOM     33  C   UNL     1     -17.279  -1.125   4.117  0.00  0.00    -0.009 A 
ATOM     34  C   UNL     1     -18.525  -1.397   4.648  0.00  0.00    +0.007 A 
ATOM     35  C   UNL     1     -18.785  -1.129   5.979  0.00  0.00    +0.001 A 
ATOM     36  C   UNL     1     -17.796  -0.593   6.784  0.00  0.00    +0.007 A 
ATOM     37  C   UNL     1     -16.547  -0.325   6.260  0.00  0.00    -0.009 A 
ATOM     38  C   UNL     1     -16.284  -0.593   4.925  0.00  0.00    +0.127 A 
ATOM     39  C   UNL     1     -15.470   0.259   7.138  0.00  0.00    +0.047 C 
ENDBRANCH  31  38
ENDBRANCH  30  31
ENDBRANCH  22  30
ENDBRANCH  21  25
ENDBRANCH   1  21
TORSDOF 8
