REMARK  Name = ZINC44149364
REMARK  12 active torsions:
REMARK  status: ('A' for Active; 'I' for Inactive)
REMARK    1  A    between atoms: C_1  and  C_2
REMARK    2  A    between atoms: C_2  and  C_4
REMARK    3  A    between atoms: C_2  and  N_13
REMARK    4  A    between atoms: C_4  and  C_5
REMARK    5  A    between atoms: C_5  and  C_6
REMARK    6  A    between atoms: C_9  and  O_12
REMARK    7  A    between atoms: N_16  and  C_17
REMARK    8  A    between atoms: C_20  and  C_23
REMARK    9  A    between atoms: C_23  and  C_24
REMARK   10  A    between atoms: N_26  and  C_27
REMARK   11  A    between atoms: C_27  and  C_28
REMARK   12  A    between atoms: C_27  and  C_29
REMARK                            x       y       z     vdW  Elec       q    Type
REMARK                         _______ _______ _______ _____ _____    ______ ____
ROOT
ATOM      1  N   UNL     1       0.711  -0.484   1.191  0.00  0.00    -0.297 N 
ATOM      2  C   UNL     1       2.054  -0.602   1.173  0.00  0.00    +0.304 C 
ATOM      3  O   UNL     1       2.676  -0.306   0.172  0.00  0.00    -0.253 OA
ATOM      4  N   UNL     1       2.706  -1.046   2.266  0.00  0.00    -0.269 N 
ATOM      5  H   UNL     1       0.214  -0.719   1.990  0.00  0.00    +0.151 HD
ATOM      6  H   UNL     1       2.217  -1.218   3.086  0.00  0.00    +0.156 HD
ENDROOT
BRANCH   4   7
ATOM      7  C   UNL     1       4.088  -1.260   2.217  0.00  0.00    +0.035 A 
ATOM      8  C   UNL     1       4.655  -2.310   2.927  0.00  0.00    +0.023 A 
ATOM      9  C   UNL     1       6.019  -2.519   2.876  0.00  0.00    +0.006 A 
ATOM     10  C   UNL     1       6.820  -1.685   2.119  0.00  0.00    -0.039 A 
ATOM     11  C   UNL     1       6.259  -0.638   1.411  0.00  0.00    +0.006 A 
ATOM     12  C   UNL     1       4.894  -0.427   1.453  0.00  0.00    +0.023 A 
BRANCH  10  13
ATOM     13  C   UNL     1       8.308  -1.916   2.066  0.00  0.00    +0.130 C 
BRANCH  13  14
ATOM     14  C   UNL     1       8.632  -2.846   0.925  0.00  0.00    +0.218 C 
ATOM     15  O   UNL     1       7.742  -3.279   0.224  0.00  0.00    -0.275 OA
ATOM     16  N   UNL     1       9.911  -3.197   0.684  0.00  0.00    -0.313 N 
ATOM     17  H   UNL     1      10.623  -2.851   1.244  0.00  0.00    +0.149 HD
BRANCH  16  18
ATOM     18  C   UNL     1      10.225  -4.101  -0.425  0.00  0.00    +0.067 C 
ATOM     19  C   UNL     1      11.666  -3.865  -0.883  0.00  0.00    +0.027 C 
ATOM     20  C   UNL     1      10.069  -5.551   0.038  0.00  0.00    +0.027 C 
ENDBRANCH  16  18
ENDBRANCH  13  14
ENDBRANCH  10  13
ENDBRANCH   4   7
BRANCH   1  22
ATOM     21  C   UNL     1      -0.011   1.530   0.005  0.00  0.00    +0.028 C 
ATOM     22  C   UNL     1       0.002  -0.001   0.004  0.00  0.00    +0.072 C 
BRANCH  22  23
ATOM     23  C   UNL     1      -1.436  -0.522   0.021  0.00  0.00    +0.026 C 
BRANCH  23  24
ATOM     24  C   UNL     1      -1.427  -2.047  -0.106  0.00  0.00    +0.037 C 
BRANCH  24  25
ATOM     25  C   UNL     1      -2.843  -2.561  -0.090  0.00  0.00    -0.047 A 
ATOM     26  C   UNL     1      -3.444  -2.890   1.111  0.00  0.00    +0.007 A 
ATOM     27  C   UNL     1      -4.742  -3.362   1.129  0.00  0.00    +0.045 A 
ATOM     28  C   UNL     1      -5.443  -3.505  -0.059  0.00  0.00    +0.117 A 
ATOM     29  C   UNL     1      -4.839  -3.174  -1.263  0.00  0.00    +0.045 A 
ATOM     30  C   UNL     1      -3.542  -2.697  -1.275  0.00  0.00    +0.007 A 
BRANCH  28  31
ATOM     31  O   UNL     1      -6.721  -3.970  -0.045  0.00  0.00    -0.507 OA
ATOM     32  H   UNL     1      -7.390  -3.277   0.037  0.00  0.00    +0.292 HD
ENDBRANCH  28  31
ENDBRANCH  24  25
ENDBRANCH  23  24
ENDBRANCH  22  23
ENDBRANCH   1  22
TORSDOF 9
