REMARK  Name = ZINC39689157
REMARK  9 active torsions:
REMARK  status: ('A' for Active; 'I' for Inactive)
REMARK    1  A    between atoms: C_1  and  C_2
REMARK    2  A    between atoms: C_2  and  C_3
REMARK    3  A    between atoms: C_3  and  C_4
REMARK    4  A    between atoms: C_3  and  C_6
REMARK    5  A    between atoms: C_4  and  C_5
REMARK    6  A    between atoms: C_10  and  C_19
REMARK    7  A    between atoms: N_21  and  C_22
REMARK    8  A    between atoms: C_22  and  C_23
REMARK    9  A    between atoms: N_26  and  C_29
REMARK                            x       y       z     vdW  Elec       q    Type
REMARK                         _______ _______ _______ _____ _____    ______ ____
ROOT
ATOM      1  C   UNL     1       1.065  -2.353   0.749  0.00  0.00    +0.219 C 
ATOM      2  O   UNL     1       0.735  -3.164   1.588  0.00  0.00    -0.275 OA
ATOM      3  N   UNL     1       1.833  -2.735  -0.291  0.00  0.00    -0.300 N 
ATOM      4  C   UNL     1       2.339  -1.895  -1.403  0.00  0.00    +0.121 C 
ATOM      5  C   UNL     1       3.779  -2.399  -1.649  0.00  0.00    +0.100 C 
ATOM      6  C   UNL     1       3.788  -3.839  -1.109  0.00  0.00    -0.004 C 
ATOM      7  C   UNL     1       2.369  -4.087  -0.577  0.00  0.00    +0.115 C 
ATOM      8  C   UNL     1       4.801  -3.972   0.025  0.00  0.00    -0.010 C 
ATOM      9  C   UNL     1       4.833  -5.425   0.506  0.00  0.00    -0.082 C 
ATOM     10  N   UNL     1       5.200  -6.304  -0.610  0.00  0.00    +0.379 N 
ATOM     11  C   UNL     1       4.173  -6.241  -1.657  0.00  0.00    -0.082 C 
ATOM     12  C   UNL     1       4.112  -4.822  -2.230  0.00  0.00    -0.010 C 
ATOM     13  H   UNL     1       6.086  -6.009  -0.992  0.00  0.00    -0.086 HD
ATOM     14  H   UNL     1       5.280  -7.253  -0.276  0.00  0.00    -0.086 HD
ENDROOT
BRANCH   5  15
ATOM     15  C   UNL     1       4.769  -1.548  -0.897  0.00  0.00    +0.218 C 
ATOM     16  O   UNL     1       4.470  -1.080   0.182  0.00  0.00    -0.275 OA
ATOM     17  N   UNL     1       5.986  -1.306  -1.422  0.00  0.00    -0.315 N 
ATOM     18  H   UNL     1       6.225  -1.680  -2.285  0.00  0.00    +0.149 HD
BRANCH  17  19
ATOM     19  C   UNL     1       6.948  -0.478  -0.691  0.00  0.00    +0.107 C 
BRANCH  19  20
ATOM     20  C   UNL     1       8.241  -0.362  -1.501  0.00  0.00    +0.003 C 
ATOM     21  C   UNL     1       8.903  -1.738  -1.609  0.00  0.00    -0.014 C 
ATOM     22  C   UNL     1      10.234  -1.601  -2.352  0.00  0.00    -0.078 C 
ATOM     23  N   UNL     1      11.117  -0.687  -1.617  0.00  0.00    +0.382 N 
ATOM     24  C   UNL     1      10.520   0.654  -1.572  0.00  0.00    -0.078 C 
ATOM     25  C   UNL     1       9.200   0.603  -0.799  0.00  0.00    -0.014 C 
ATOM     26  H   UNL     1      11.245  -1.028  -0.676  0.00  0.00    -0.081 HD
BRANCH  23  27
ATOM     27  C   UNL     1      12.420  -0.619  -2.291  0.00  0.00    -0.069 C 
ATOM     28  C   UNL     1      13.096  -2.005  -2.276  0.00  0.00    -0.015 C 
ATOM     29  C   UNL     1      14.600  -1.692  -2.073  0.00  0.00    -0.002 C 
ATOM     30  C   UNL     1      14.571  -0.502  -1.081  0.00  0.00    -0.002 C 
ATOM     31  C   UNL     1      13.357   0.337  -1.532  0.00  0.00    -0.015 C 
ENDBRANCH  23  27
ENDBRANCH  19  20
ENDBRANCH  17  19
ENDBRANCH   5  15
BRANCH   1  32
ATOM     32  C   UNL     1       0.616  -0.920   0.868  0.00  0.00    +0.075 C 
BRANCH  32  34
ATOM     33  C   UNL     1      -0.550   0.950  -0.309  0.00  0.00    +0.004 C 
ATOM     34  C   UNL     1      -0.212  -0.541  -0.362  0.00  0.00    +0.009 C 
ENDBRANCH  32  34
BRANCH  32  35
ATOM     35  C   UNL     1      -0.237  -0.756   2.127  0.00  0.00    +0.009 C 
ATOM     36  C   UNL     1       0.634  -0.973   3.365  0.00  0.00    +0.004 C 
ENDBRANCH  32  35
ENDBRANCH   1  32
TORSDOF 7
