REMARK  Name = ZINC63448210
REMARK  3 active torsions:
REMARK  status: ('A' for Active; 'I' for Inactive)
REMARK    1  A    between atoms: C_1  and  C_2
REMARK    2  A    between atoms: N_4  and  C_29
REMARK    3  A    between atoms: C_9  and  C_21
REMARK                            x       y       z     vdW  Elec       q    Type
REMARK                         _______ _______ _______ _____ _____    ______ ____
ROOT
ATOM      1  C   UNL     1      -0.018   1.503   0.010  0.00  0.00    +0.063 C 
ATOM      2  C   UNL     1       0.002  -0.004   0.002  0.00  0.00    +0.041 C 
ATOM      3  N   UNL     1       0.008  -0.732  -1.040  0.00  0.00    -0.187 NA
ATOM      4  N   UNL     1       0.028  -2.103  -0.785  0.00  0.00    -0.203 N 
ATOM      5  C   UNL     1       0.030  -2.306   0.675  0.00  0.00    +0.191 C 
ATOM      6  C   UNL     1       0.026  -0.884   1.233  0.00  0.00    +0.084 C 
ATOM      7  C   UNL     1      -1.191  -0.588   2.102  0.00  0.00    +0.053 C 
ATOM      8  C   UNL     1      -1.399  -1.760   3.068  0.00  0.00    +0.144 C 
ATOM      9  C   UNL     1      -1.773  -2.950   2.219  0.00  0.00    +0.103 C 
ATOM     10  N   UNL     1      -2.756  -3.738   2.549  0.00  0.00    -0.152 NA
ATOM     11  C   UNL     1      -3.554  -3.487   3.593  0.00  0.00    +0.331 C 
ATOM     12  O   UNL     1      -4.376  -4.321   3.925  0.00  0.00    -0.250 OA
ATOM     13  N   UNL     1      -3.473  -2.339   4.286  0.00  0.00    -0.238 N 
ATOM     14  C   UNL     1      -2.479  -1.459   4.061  0.00  0.00    +0.231 C 
ATOM     15  O   UNL     1      -2.457  -0.410   4.669  0.00  0.00    -0.275 OA
ATOM     16  N   UNL     1      -1.106  -3.115   1.067  0.00  0.00    -0.313 N 
ATOM     17  H   UNL     1      -4.141  -2.140   4.961  0.00  0.00    +0.159 HD
ATOM     18  H   UNL     1      -1.388  -3.831   0.477  0.00  0.00    +0.149 HD
ENDROOT
BRANCH   7  19
ATOM     19  C   UNL     1      -0.958   0.680   2.883  0.00  0.00    -0.006 A 
ATOM     20  C   UNL     1       0.110   0.768   3.758  0.00  0.00    +0.046 A 
ATOM     21  C   UNL     1       0.323   1.932   4.474  0.00  0.00    +0.020 A 
ATOM     22  C   UNL     1      -0.531   3.007   4.317  0.00  0.00    +0.003 A 
ATOM     23  C   UNL     1      -1.599   2.920   3.443  0.00  0.00    +0.020 A 
ATOM     24  C   UNL     1      -1.809   1.758   2.721  0.00  0.00    +0.046 A 
ATOM     25 CL   UNL     1      -3.146   1.651   1.619  0.00  0.00    -0.083 Cl
ATOM     26 CL   UNL     1       1.183  -0.583   3.956  0.00  0.00    -0.083 Cl
ENDBRANCH   7  19
BRANCH   4  27
ATOM     27  C   UNL     1       0.043  -3.112  -1.750  0.00  0.00    +0.054 A 
ATOM     28  C   UNL     1       0.057  -4.446  -1.362  0.00  0.00    +0.025 A 
ATOM     29  C   UNL     1       0.072  -5.442  -2.318  0.00  0.00    +0.002 A 
ATOM     30  C   UNL     1       0.074  -5.112  -3.662  0.00  0.00    +0.000 A 
ATOM     31  C   UNL     1       0.061  -3.785  -4.051  0.00  0.00    +0.002 A 
ATOM     32  C   UNL     1       0.039  -2.784  -3.100  0.00  0.00    +0.025 A 
ENDBRANCH   4  27
TORSDOF 2
