REMARK  Name = ZINC36493988
REMARK  14 active torsions:
REMARK  status: ('A' for Active; 'I' for Inactive)
REMARK    1  A    between atoms: C_1  and  C_2
REMARK    2  A    between atoms: C_2  and  C_3
REMARK    3  A    between atoms: C_2  and  C_4
REMARK    4  A    between atoms: C_2  and  N_5
REMARK    5  A    between atoms: C_6  and  C_8
REMARK    6  A    between atoms: C_8  and  C_10
REMARK    7  A    between atoms: C_8  and  N_17
REMARK    8  A    between atoms: C_14  and  O_16
REMARK    9  A    between atoms: N_17  and  C_18
REMARK   10  A    between atoms: C_18  and  C_19
REMARK   11  A    between atoms: C_24  and  C_26
REMARK   12  A    between atoms: C_32  and  O_34
REMARK   13  A    between atoms: O_34  and  C_35
REMARK   14  A    between atoms: C_35  and  C_36
REMARK                            x       y       z     vdW  Elec       q    Type
REMARK                         _______ _______ _______ _____ _____    ______ ____
ROOT
ATOM      1  N   UNL     1       4.551   0.676  -2.941  0.00  0.00    -0.277 N 
ATOM      2  C   UNL     1       5.512   1.573  -3.236  0.00  0.00    +0.237 C 
ATOM      3  O   UNL     1       5.303   2.437  -4.061  0.00  0.00    -0.274 OA
ENDROOT
BRANCH   2   4
ATOM      4  C   UNL     1       6.847   1.502  -2.541  0.00  0.00    +0.165 C 
ATOM      5  C   UNL     1       7.782   0.534  -3.297  0.00  0.00    +0.033 C 
ATOM      6  C   UNL     1       9.162   1.239  -3.202  0.00  0.00    +0.021 C 
ATOM      7  C   UNL     1       8.756   2.731  -3.296  0.00  0.00    +0.112 C 
ATOM      8  N   UNL     1       7.486   2.826  -2.547  0.00  0.00    -0.256 N 
ATOM      9  C   UNL     1       6.993   3.939  -1.969  0.00  0.00    +0.404 C 
ATOM     10  O   UNL     1       5.932   3.897  -1.378  0.00  0.00    -0.226 OA
BRANCH   9  11
ATOM     11  O   UNL     1       7.676   5.097  -2.046  0.00  0.00    -0.445 OA
BRANCH  11  12
ATOM     12  C   UNL     1       7.094   6.236  -1.410  0.00  0.00    +0.269 C 
BRANCH  12  13
ATOM     13  C   UNL     1       7.993   7.431  -1.599  0.00  0.00    -0.010 A 
ATOM     14  C   UNL     1       8.984   7.703  -0.675  0.00  0.00    +0.007 A 
ATOM     15  C   UNL     1       9.808   8.799  -0.849  0.00  0.00    +0.000 A 
ATOM     16  C   UNL     1       9.642   9.622  -1.947  0.00  0.00    +0.000 A 
ATOM     17  C   UNL     1       8.651   9.349  -2.872  0.00  0.00    +0.000 A 
ATOM     18  C   UNL     1       7.830   8.251  -2.700  0.00  0.00    +0.007 A 
ENDBRANCH  12  13
ENDBRANCH  11  12
ENDBRANCH   9  11
ENDBRANCH   2   4
BRANCH   1  19
ATOM     19  C   UNL     1       3.303   0.660  -3.710  0.00  0.00    +0.193 C 
BRANCH  19  20
ATOM     20  C   UNL     1       3.412  -0.349  -4.824  0.00  0.00    -0.015 A 
ATOM     21  C   UNL     1       3.916  -1.611  -4.566  0.00  0.00    +0.006 A 
ATOM     22  C   UNL     1       4.017  -2.539  -5.586  0.00  0.00    +0.004 A 
ATOM     23  C   UNL     1       3.615  -2.207  -6.865  0.00  0.00    +0.045 A 
ATOM     24  C   UNL     1       3.109  -0.942  -7.126  0.00  0.00    +0.117 A 
ATOM     25  C   UNL     1       3.003  -0.015  -6.100  0.00  0.00    +0.051 A 
BRANCH  24  26
ATOM     26  O   UNL     1       2.713  -0.614  -8.384  0.00  0.00    -0.507 OA
ATOM     27  H   UNL     1       1.783  -0.807  -8.567  0.00  0.00    +0.292 HD
ENDBRANCH  24  26
ENDBRANCH  19  20
BRANCH  19  29
ATOM     28  N   UNL     1       0.907   0.205  -3.296  0.00  0.00    -0.309 N 
ATOM     29  C   UNL     1       2.159   0.286  -2.803  0.00  0.00    +0.238 C 
ATOM     30  O   UNL     1       2.365   0.058  -1.630  0.00  0.00    -0.273 OA
ATOM     31  H   UNL     1       0.755   0.292  -4.250  0.00  0.00    +0.149 HD
BRANCH  28  33
ATOM     32  C   UNL     1      -0.375   1.193  -1.462  0.00  0.00    +0.031 C 
ATOM     33  C   UNL     1      -0.224  -0.014  -2.390  0.00  0.00    +0.026 C 
ATOM     34  C   UNL     1       0.028  -1.271  -1.555  0.00  0.00    +0.031 C 
ATOM     35  C   UNL     1      -1.504  -0.192  -3.208  0.00  0.00    +0.031 C 
ENDBRANCH  28  33
ENDBRANCH  19  29
ENDBRANCH   1  19
BRANCH   1  36
ATOM     36  C   UNL     1       4.752  -0.284  -1.853  0.00  0.00    +0.183 C 
BRANCH  36  37
ATOM     37  C   UNL     1       4.631   0.426  -0.529  0.00  0.00    +0.122 A 
ATOM     38  C   UNL     1       3.985  -0.037   0.556  0.00  0.00    +0.046 A 
ATOM     39  C   UNL     1       4.123   0.943   1.565  0.00  0.00    +0.041 A 
ATOM     40  C   UNL     1       4.846   1.947   1.036  0.00  0.00    +0.195 A 
ATOM     41  O   UNL     1       5.155   1.626  -0.230  0.00  0.00    -0.466 OA
ENDBRANCH  36  37
ENDBRANCH   1  36
TORSDOF 11
