REMARK  Name = ZINC58421106
REMARK  10 active torsions:
REMARK  status: ('A' for Active; 'I' for Inactive)
REMARK    1  A    between atoms: C_1  and  C_2
REMARK    2  A    between atoms: C_2  and  C_4
REMARK    3  A    between atoms: C_2  and  N_11
REMARK    4  A    between atoms: N_6  and  C_7
REMARK    5  A    between atoms: C_7  and  C_8
REMARK    6  A    between atoms: C_7  and  C_9
REMARK    7  A    between atoms: C_7  and  C_10
REMARK    8  A    between atoms: C_12  and  C_14
REMARK    9  A    between atoms: C_18  and  C_23
REMARK   10  A    between atoms: C_23  and  C_24
REMARK                            x       y       z     vdW  Elec       q    Type
REMARK                         _______ _______ _______ _____ _____    ______ ____
ROOT
ATOM      1  C   UNL     1      -3.442  -1.177   1.191  0.00  0.00    +0.169 C 
ATOM      2  C   UNL     1      -4.390  -0.044   0.797  0.00  0.00    +0.101 C 
ATOM      3  S   UNL     1      -4.411   1.174   2.151  0.00  0.00    -0.145 S 
ATOM      4  C   UNL     1      -5.025   0.180   3.546  0.00  0.00    +0.136 C 
ATOM      5  C   UNL     1      -4.337  -1.154   3.532  0.00  0.00    +0.227 C 
ATOM      6  O   UNL     1      -4.336  -1.780   4.571  0.00  0.00    -0.275 OA
ATOM      7  N   UNL     1      -3.734  -1.709   2.503  0.00  0.00    -0.302 N 
ATOM      8  H   UNL     1      -3.439  -2.622   2.648  0.00  0.00    +0.150 HD
ENDROOT
BRANCH   1  10
ATOM      9  N   UNL     1      -1.372  -0.511   0.012  0.00  0.00    -0.303 N 
ATOM     10  C   UNL     1      -2.029  -0.655   1.181  0.00  0.00    +0.235 C 
ATOM     11  O   UNL     1      -1.481  -0.365   2.224  0.00  0.00    -0.274 OA
ATOM     12  H   UNL     1      -1.810  -0.743  -0.822  0.00  0.00    +0.149 HD
BRANCH   9  14
ATOM     13  C   UNL     1      -0.019   1.526   0.010  0.00  0.00    +0.038 C 
ATOM     14  C   UNL     1       0.002  -0.004   0.002  0.00  0.00    +0.156 C 
BRANCH  14  15
ATOM     15  C   UNL     1       0.707  -0.490  -1.238  0.00  0.00    +0.233 C 
ATOM     16  O   UNL     1       0.120  -1.191  -2.034  0.00  0.00    -0.274 OA
ATOM     17  N   UNL     1       1.991  -0.146  -1.462  0.00  0.00    -0.309 N 
ATOM     18  H   UNL     1       2.461   0.415  -0.825  0.00  0.00    +0.149 HD
BRANCH  17  19
ATOM     19  C   UNL     1       2.677  -0.618  -2.667  0.00  0.00    +0.026 C 
ATOM     20  C   UNL     1       1.937  -0.111  -3.906  0.00  0.00    +0.031 C 
ATOM     21  C   UNL     1       4.112  -0.089  -2.678  0.00  0.00    +0.031 C 
ATOM     22  C   UNL     1       2.698  -2.148  -2.675  0.00  0.00    +0.031 C 
ENDBRANCH  17  19
ENDBRANCH  14  15
ENDBRANCH   9  14
ENDBRANCH   1  10
BRANCH   4  23
ATOM     23  C   UNL     1      -4.724   0.902   4.861  0.00  0.00    +0.061 C 
BRANCH  23  24
ATOM     24  C   UNL     1      -5.504   2.191   4.916  0.00  0.00    -0.011 A 
ATOM     25  C   UNL     1      -4.915   3.373   4.508  0.00  0.00    +0.006 A 
ATOM     26  C   UNL     1      -5.630   4.555   4.559  0.00  0.00    +0.000 A 
ATOM     27  C   UNL     1      -6.934   4.556   5.018  0.00  0.00    +0.003 A 
ATOM     28  C   UNL     1      -7.525   3.375   5.426  0.00  0.00    +0.038 A 
ATOM     29  C   UNL     1      -6.811   2.190   5.370  0.00  0.00    +0.127 A 
ATOM     30  F   UNL     1      -7.389   1.034   5.764  0.00  0.00    -0.205 F 
ENDBRANCH  23  24
ENDBRANCH   4  23
TORSDOF 6
