REMARK  Name = ZINC39636074
REMARK  7 active torsions:
REMARK  status: ('A' for Active; 'I' for Inactive)
REMARK    1  A    between atoms: C_1  and  C_2
REMARK    2  A    between atoms: C_8  and  N_10
REMARK    3  A    between atoms: C_11  and  C_13
REMARK    4  A    between atoms: C_24  and  C_26
REMARK    5  A    between atoms: C_32  and  O_34
REMARK    6  A    between atoms: O_34  and  C_35
REMARK    7  A    between atoms: C_35  and  C_36
REMARK                            x       y       z     vdW  Elec       q    Type
REMARK                         _______ _______ _______ _____ _____    ______ ____
ROOT
ATOM      1  C   UNL     1       0.033   0.579   4.842  0.00  0.00    +0.100 C 
ATOM      2  C   UNL     1      -0.380   2.060   4.681  0.00  0.00    +0.121 C 
ATOM      3  N   UNL     1      -0.172   2.654   6.023  0.00  0.00    -0.300 N 
ATOM      4  C   UNL     1       1.081   2.031   6.512  0.00  0.00    +0.115 C 
ATOM      5  C   UNL     1       0.992   0.565   6.044  0.00  0.00    -0.004 C 
ATOM      6  C   UNL     1       2.368   0.063   5.616  0.00  0.00    -0.010 C 
ATOM      7  C   UNL     1       3.287   0.002   6.840  0.00  0.00    -0.082 C 
ATOM      8  N   UNL     1       2.707  -0.897   7.845  0.00  0.00    +0.379 N 
ATOM      9  C   UNL     1       1.426  -0.358   8.319  0.00  0.00    -0.082 C 
ATOM     10  C   UNL     1       0.429  -0.312   7.159  0.00  0.00    -0.010 C 
ATOM     11  C   UNL     1      -0.948   3.557   6.655  0.00  0.00    +0.219 C 
ATOM     12  O   UNL     1      -0.642   3.950   7.761  0.00  0.00    -0.275 OA
ATOM     13  H   UNL     1       2.557  -1.806   7.435  0.00  0.00    -0.086 HD
ATOM     14  H   UNL     1       3.343  -0.983   8.624  0.00  0.00    -0.086 HD
ENDROOT
BRANCH  11  15
ATOM     15  C   UNL     1      -2.195   4.077   5.989  0.00  0.00    +0.078 C 
ATOM     16  C   UNL     1      -1.822   4.765   4.674  0.00  0.00    +0.032 C 
ATOM     17  C   UNL     1      -3.095   5.261   3.982  0.00  0.00    +0.112 C 
ATOM     18  N   UNL     1      -3.840   6.114   4.919  0.00  0.00    -0.267 N 
ATOM     19  C   UNL     1      -4.172   5.582   6.248  0.00  0.00    +0.112 C 
ATOM     20  C   UNL     1      -2.886   5.081   6.914  0.00  0.00    +0.032 C 
ATOM     21  C   UNL     1      -4.212   7.361   4.566  0.00  0.00    +0.403 C 
ATOM     22  O   UNL     1      -3.931   7.789   3.465  0.00  0.00    -0.226 OA
BRANCH  21  23
ATOM     23  O   UNL     1      -4.894   8.131   5.435  0.00  0.00    -0.445 OA
BRANCH  23  24
ATOM     24  C   UNL     1      -5.255   9.441   4.994  0.00  0.00    +0.269 C 
BRANCH  24  25
ATOM     25  C   UNL     1      -6.007  10.150   6.091  0.00  0.00    -0.010 A 
ATOM     26  C   UNL     1      -7.383  10.042   6.168  0.00  0.00    +0.007 A 
ATOM     27  C   UNL     1      -8.072  10.692   7.174  0.00  0.00    +0.000 A 
ATOM     28  C   UNL     1      -7.386  11.451   8.104  0.00  0.00    +0.000 A 
ATOM     29  C   UNL     1      -6.010  11.558   8.028  0.00  0.00    +0.000 A 
ATOM     30  C   UNL     1      -5.320  10.904   7.024  0.00  0.00    +0.007 A 
ENDBRANCH  24  25
ENDBRANCH  23  24
ENDBRANCH  21  23
ENDBRANCH  11  15
BRANCH   1  32
ATOM     31  N   UNL     1       0.639  -1.199   3.233  0.00  0.00    -0.312 N 
ATOM     32  C   UNL     1       0.738   0.093   3.602  0.00  0.00    +0.218 C 
ATOM     33  O   UNL     1       1.395   0.865   2.936  0.00  0.00    -0.275 OA
ATOM     34  H   UNL     1       0.113  -1.817   3.766  0.00  0.00    +0.149 HD
BRANCH  31  41
ATOM     35  C   UNL     1      -0.841  -2.546   1.139  0.00  0.00    +0.009 C 
ATOM     36  C   UNL     1       0.605  -2.908   1.483  0.00  0.00    +0.006 C 
ATOM     37  C   UNL     1       0.616  -4.012   2.542  0.00  0.00    +0.005 C 
ATOM     38  C   UNL     1       2.062  -4.374   2.887  0.00  0.00    +0.000 C 
ATOM     39  C   UNL     1       2.781  -3.138   3.431  0.00  0.00    +0.002 C 
ATOM     40  C   UNL     1       2.770  -2.034   2.373  0.00  0.00    +0.022 C 
ATOM     41  C   UNL     1       1.324  -1.672   2.028  0.00  0.00    +0.076 C 
ENDBRANCH  31  41
ENDBRANCH   1  32
TORSDOF 6
