REMARK  Name = ZINC35128100
REMARK  6 active torsions:
REMARK  status: ('A' for Active; 'I' for Inactive)
REMARK    1  A    between atoms: C_1  and  C_2
REMARK    2  A    between atoms: C_9  and  C_11
REMARK    3  A    between atoms: C_11  and  S_12
REMARK    4  A    between atoms: S_12  and  C_13
REMARK    5  A    between atoms: C_16  and  C_24
REMARK    6  A    between atoms: N_17  and  C_18
REMARK                            x       y       z     vdW  Elec       q    Type
REMARK                         _______ _______ _______ _____ _____    ______ ____
ROOT
ATOM      1  C   UNL     1       0.218  -6.736  -3.365  0.00  0.00    +0.197 A 
ATOM      2  N   UNL     1       0.703  -7.297  -2.281  0.00  0.00    -0.122 NA
ATOM      3  N   UNL     1       0.728  -8.575  -2.416  0.00  0.00    -0.127 NA
ATOM      4  C   UNL     1       0.259  -8.912  -3.597  0.00  0.00    +0.176 A 
ATOM      5  N   UNL     1      -0.088  -7.743  -4.242  0.00  0.00    -0.270 N 
ENDROOT
BRANCH   5   6
ATOM      6  C   UNL     1      -0.637  -7.613  -5.525  0.00  0.00    +0.051 A 
ATOM      7  C   UNL     1      -1.905  -8.109  -5.793  0.00  0.00    +0.026 A 
ATOM      8  C   UNL     1      -2.443  -7.979  -7.059  0.00  0.00    +0.002 A 
ATOM      9  C   UNL     1      -1.719  -7.354  -8.058  0.00  0.00    +0.000 A 
ATOM     10  C   UNL     1      -0.456  -6.859  -7.794  0.00  0.00    +0.002 A 
ATOM     11  C   UNL     1       0.085  -6.982  -6.529  0.00  0.00    +0.026 A 
ENDBRANCH   5   6
BRANCH   4  12
ATOM     12  C   UNL     1       0.125 -10.278  -4.129  0.00  0.00    +0.057 A 
ATOM     13  C   UNL     1       0.173 -11.475  -3.460  0.00  0.00    +0.019 A 
ATOM     14  C   UNL     1       0.019 -12.639  -4.178  0.00  0.00    +0.008 A 
ATOM     15  C   UNL     1      -0.174 -12.569  -5.520  0.00  0.00    +0.046 A 
ATOM     16  S   UNL     1      -0.150 -10.808  -5.811  0.00  0.00    -0.094 S 
ENDBRANCH   4  12
BRANCH   1  17
ATOM     17  S   UNL     1      -0.003  -5.009  -3.638  0.00  0.00    -0.076 S 
BRANCH  17  18
ATOM     18  C   UNL     1       0.594  -4.243  -2.107  0.00  0.00    +0.173 C 
BRANCH  18  26
ATOM     19  C   UNL     1      -0.019   1.526   0.010  0.00  0.00    -0.012 C 
ATOM     20  C   UNL     1       0.002  -0.004   0.002  0.00  0.00    -0.057 C 
ATOM     21  C   UNL     1       0.720  -0.498  -1.258  0.00  0.00    +0.092 C 
ATOM     22  N   UNL     1       0.843  -1.962  -1.181  0.00  0.00    -0.304 N 
ATOM     23  C   UNL     1       1.396  -2.547   0.050  0.00  0.00    +0.089 C 
ATOM     24  C   UNL     1       0.647  -1.956   1.248  0.00  0.00    -0.063 C 
ATOM     25  N   UNL     1       0.713  -0.491   1.191  0.00  0.00    +0.383 N 
ATOM     26  C   UNL     1       0.459  -2.745  -2.209  0.00  0.00    +0.226 C 
ATOM     27  O   UNL     1       0.004  -2.245  -3.216  0.00  0.00    -0.275 OA
ATOM     28  H   UNL     1       1.678  -0.200   1.147  0.00  0.00    -0.085 HD
ATOM     29  H   UNL     1       0.285  -0.103   2.019  0.00  0.00    -0.085 HD
ENDBRANCH  18  26
ENDBRANCH  17  18
ENDBRANCH   1  17
TORSDOF 5
