REMARK  Name = ZINC04028429
REMARK  6 active torsions:
REMARK  status: ('A' for Active; 'I' for Inactive)
REMARK    1  A    between atoms: C_1  and  O_2
REMARK    2  A    between atoms: O_2  and  C_3
REMARK    3  A    between atoms: C_6  and  C_10
REMARK    4  A    between atoms: C_7  and  O_9
REMARK    5  A    between atoms: C_10  and  C_12
REMARK    6  A    between atoms: C_13  and  C_14
REMARK                            x       y       z     vdW  Elec       q    Type
REMARK                         _______ _______ _______ _____ _____    ______ ____
ROOT
ATOM      1  C   UNL     1       1.149   1.768   0.001  0.00  0.00    +0.052 C 
ATOM      2  C   UNL     1      -0.013   1.076   0.008  0.00  0.00    +0.015 C 
ENDROOT
BRANCH   2   3
ATOM      3  C   UNL     1      -1.294   1.793   0.018  0.00  0.00    +0.019 A 
ATOM      4  C   UNL     1      -1.318   3.192   0.031  0.00  0.00    +0.031 A 
ATOM      5  C   UNL     1      -2.525   3.857   0.036  0.00  0.00    +0.042 A 
ATOM      6  C   UNL     1      -3.716   3.146   0.041  0.00  0.00    +0.029 A 
ATOM      7  C   UNL     1      -3.707   1.764   0.034  0.00  0.00    +0.022 A 
ATOM      8  C   UNL     1      -2.504   1.078   0.020  0.00  0.00    +0.136 A 
ATOM      9  O   UNL     1      -2.481  -0.279   0.003  0.00  0.00    -0.465 OA
ATOM     10  C   UNL     1      -3.690  -0.951   0.367  0.00  0.00    +0.395 C 
ATOM     11  O   UNL     1      -4.780  -0.347  -0.340  0.00  0.00    -0.339 OA
ATOM     12  C   UNL     1      -5.013   1.010   0.046  0.00  0.00    +0.202 C 
ATOM     13 CL   UNL     1      -2.556   5.593   0.043  0.00  0.00    -0.084 Cl
ENDBRANCH   2   3
BRANCH   1  14
ATOM     14  C   UNL     1       2.424   1.054  -0.015  0.00  0.00    +0.190 C 
ATOM     15  O   UNL     1       2.441  -0.164  -0.022  0.00  0.00    -0.287 OA
BRANCH  14  19
ATOM     16  C   UNL     1       6.075   3.229  -0.040  0.00  0.00    +0.124 A 
ATOM     17  C   UNL     1       4.859   3.907  -0.025  0.00  0.00    +0.046 A 
ATOM     18  C   UNL     1       3.675   3.207  -0.022  0.00  0.00    +0.019 A 
ATOM     19  C   UNL     1       3.691   1.808  -0.024  0.00  0.00    +0.063 A 
ATOM     20  C   UNL     1       4.917   1.126  -0.039  0.00  0.00    +0.131 A 
ATOM     21  C   UNL     1       6.102   1.842  -0.047  0.00  0.00    +0.091 A 
BRANCH  16  23
ATOM     22  C   UNL     1       7.139   5.353  -0.041  0.00  0.00    +0.277 C 
ATOM     23  O   UNL     1       7.238   3.928  -0.049  0.00  0.00    -0.495 OA
ENDBRANCH  16  23
BRANCH  20  24
ATOM     24  O   UNL     1       4.942  -0.230  -0.045  0.00  0.00    -0.506 OA
ATOM     25  H   UNL     1       4.940  -0.619  -0.931  0.00  0.00    +0.292 HD
ENDBRANCH  20  24
ENDBRANCH  14  19
ENDBRANCH   1  14
TORSDOF 5
