REMARK  Name = ZINC44467824
REMARK  8 active torsions:
REMARK  status: ('A' for Active; 'I' for Inactive)
REMARK    1  A    between atoms: C_4  and  C_7
REMARK    2  A    between atoms: C_7  and  O_8
REMARK    3  A    between atoms: O_8  and  C_9
REMARK    4  A    between atoms: C_15  and  C_19
REMARK    5  A    between atoms: C_19  and  CA_20
REMARK    6  A    between atoms: CA_20  and  C_22
REMARK    7  A    between atoms: CA_20  and  N_24
REMARK    8  A    between atoms: C_22  and  O_23
REMARK                            x       y       z     vdW  Elec       q    Type
REMARK                         _______ _______ _______ _____ _____    ______ ____
ROOT
ATOM      1  C   UNL     1       5.319  -1.605   1.467  0.00  0.00    +0.122 A 
ATOM      2  C   UNL     1       6.049  -2.008   0.350  0.00  0.00    +0.048 A 
ATOM      3  C   UNL     1       7.244  -2.675   0.497  0.00  0.00    +0.030 A 
ATOM      4  C   UNL     1       7.733  -2.954   1.769  0.00  0.00    +0.047 A 
ATOM      5  C   UNL     1       6.999  -2.549   2.898  0.00  0.00    +0.006 A 
ATOM      6  C   UNL     1       5.791  -1.868   2.737  0.00  0.00    +0.056 A 
ATOM      7  C   UNL     1       7.773  -2.986   4.063  0.00  0.00    -0.024 A 
ATOM      8  C   UNL     1       8.873  -3.598   3.596  0.00  0.00    +0.087 A 
ATOM      9  N   UNL     1       8.868  -3.589   2.229  0.00  0.00    -0.360 N 
ATOM     10  H   UNL     1       9.558  -3.973   1.666  0.00  0.00    +0.165 HD
ENDROOT
BRANCH   1  11
ATOM     11  O   UNL     1       4.141  -0.946   1.304  0.00  0.00    -0.487 OA
BRANCH  11  12
ATOM     12  C   UNL     1       3.711  -0.707  -0.038  0.00  0.00    +0.264 C 
BRANCH  12  16
ATOM     13  C   UNL     1      -0.017   1.378   0.010  0.00  0.00    +0.000 A 
ATOM     14  C   UNL     1       1.171   2.086   0.002  0.00  0.00    +0.000 A 
ATOM     15  C   UNL     1       2.377   1.411  -0.013  0.00  0.00    +0.007 A 
ATOM     16  C   UNL     1       2.396   0.029  -0.020  0.00  0.00    -0.010 A 
ATOM     17  C   UNL     1       1.208  -0.679  -0.012  0.00  0.00    +0.007 A 
ATOM     18  C   UNL     1       0.002  -0.004   0.002  0.00  0.00    +0.000 A 
ENDBRANCH  12  16
ENDBRANCH  11  12
ENDBRANCH   1  11
BRANCH   7  19
ATOM     19  C   UNL     1       7.404  -2.786   5.510  0.00  0.00    +0.023 C 
BRANCH  19  20
ATOM     20  CA  UNL     1       6.473  -3.913   5.960  0.00  0.00    -0.045 C 
BRANCH  20  21
ATOM     21  N   UNL     1       7.195  -5.192   5.916  0.00  0.00    +0.382 N 
ATOM     22  H1  UNL     1       7.993  -5.148   6.532  0.00  0.00    -0.090 HD
ATOM     23  H2  UNL     1       6.581  -5.935   6.213  0.00  0.00    -0.090 HD
ATOM     24  H3  UNL     1       7.508  -5.370   4.974  0.00  0.00    -0.090 HD
ENDBRANCH  20  21
BRANCH  20  25
ATOM     25  C   UNL     1       5.999  -3.644   7.389  0.00  0.00    +0.140 C 
BRANCH  25  26
ATOM     26  O   UNL     1       5.040  -4.633   7.768  0.00  0.00    -0.397 OA
ATOM     27  H   UNL     1       4.695  -4.524   8.665  0.00  0.00    +0.209 HD
ENDBRANCH  25  26
ENDBRANCH  20  25
ENDBRANCH  19  20
ENDBRANCH   7  19
TORSDOF 8
