REMARK  Name = ZINC45548781
REMARK  7 active torsions:
REMARK  status: ('A' for Active; 'I' for Inactive)
REMARK    1  A    between atoms: C_1  and  C_2
REMARK    2  A    between atoms: C_9  and  C_16
REMARK    3  A    between atoms: C_11  and  O_12
REMARK    4  A    between atoms: C_16  and  N_17
REMARK    5  A    between atoms: N_17  and  C_18
REMARK    6  A    between atoms: N_17  and  C_25
REMARK    7  A    between atoms: C_18  and  C_19
REMARK                            x       y       z     vdW  Elec       q    Type
REMARK                         _______ _______ _______ _____ _____    ______ ____
ROOT
ATOM      1  C   UNL     1      -0.593   1.551   0.733  0.00  0.00    +0.109 C 
ATOM      2  C   UNL     1      -0.569   0.094   0.348  0.00  0.00    +0.214 C 
ATOM      3  O   UNL     1       0.437  -0.391  -0.137  0.00  0.00    -0.276 OA
ATOM      4  N   UNL     1      -1.637  -0.655   0.538  0.00  0.00    -0.286 N 
ATOM      5  C   UNL     1      -1.573  -1.998   0.323  0.00  0.00    +0.037 A 
ATOM      6  C   UNL     1      -2.759  -2.744   0.203  0.00  0.00    +0.024 A 
ATOM      7  C   UNL     1      -2.709  -4.085  -0.012  0.00  0.00    +0.013 A 
ATOM      8  C   UNL     1      -1.466  -4.733  -0.116  0.00  0.00    +0.019 A 
ATOM      9  C   UNL     1      -1.392  -6.124  -0.340  0.00  0.00    -0.047 A 
ATOM     10  C   UNL     1      -0.146  -6.712  -0.435  0.00  0.00    +0.090 A 
ATOM     11  C   UNL     1       0.996  -5.935  -0.310  0.00  0.00    +0.285 A 
ATOM     12  O   UNL     1       0.922  -4.617  -0.098  0.00  0.00    -0.425 OA
ATOM     13  C   UNL     1      -0.269  -3.991   0.003  0.00  0.00    +0.141 A 
ATOM     14  C   UNL     1      -0.332  -2.626   0.217  0.00  0.00    +0.070 A 
ATOM     15  H   UNL     1      -2.468  -0.250   0.831  0.00  0.00    +0.155 HD
ENDROOT
BRANCH  11  16
ATOM     16  O   UNL     1       2.205  -6.521  -0.405  0.00  0.00    -0.480 OA
ATOM     17  H   UNL     1       2.948  -5.909  -0.306  0.00  0.00    +0.295 HD
ENDBRANCH  11  16
BRANCH   9  18
ATOM     18  C   UNL     1      -2.646  -6.950  -0.473  0.00  0.00    -0.041 C 
BRANCH  18  19
ATOM     19  N   UNL     1      -2.856  -7.298  -1.884  0.00  0.00    +0.387 N 
ATOM     20  H   UNL     1      -2.021  -7.730  -2.252  0.00  0.00    -0.080 HD
BRANCH  19  21
ATOM     21  C   UNL     1      -3.155  -6.081  -2.650  0.00  0.00    -0.068 C 
ATOM     22  C   UNL     1      -2.449  -5.901  -3.995  0.00  0.00    -0.017 C 
ATOM     23  C   UNL     1      -2.039  -5.045  -2.795  0.00  0.00    -0.017 C 
ENDBRANCH  19  21
BRANCH  19  24
ATOM     24  C   UNL     1      -3.981  -8.236  -1.995  0.00  0.00    -0.042 C 
BRANCH  24  25
ATOM     25  C   UNL     1      -4.119  -8.689  -3.426  0.00  0.00    -0.064 A 
ATOM     26  C   UNL     1      -4.918  -7.978  -4.302  0.00  0.00    +0.002 A 
ATOM     27  C   UNL     1      -5.045  -8.394  -5.614  0.00  0.00    +0.000 A 
ATOM     28  C   UNL     1      -4.371  -9.519  -6.051  0.00  0.00    +0.000 A 
ATOM     29  C   UNL     1      -3.571 -10.229  -5.175  0.00  0.00    +0.000 A 
ATOM     30  C   UNL     1      -3.441  -9.811  -3.864  0.00  0.00    +0.002 A 
ENDBRANCH  24  25
ENDBRANCH  19  24
ENDBRANCH  18  19
ENDBRANCH   9  18
TORSDOF 6
