REMARK  Name = ZINC39992084
REMARK  7 active torsions:
REMARK  status: ('A' for Active; 'I' for Inactive)
REMARK    1  A    between atoms: C_1  and  C_2
REMARK    2  A    between atoms: C_2  and  N_3
REMARK    3  A    between atoms: C_4  and  C_6
REMARK    4  A    between atoms: C_10  and  N_11
REMARK    5  A    between atoms: C_12  and  C_14
REMARK    6  A    between atoms: C_14  and  C_24
REMARK    7  A    between atoms: C_15  and  C_16
REMARK                            x       y       z     vdW  Elec       q    Type
REMARK                         _______ _______ _______ _____ _____    ______ ____
ROOT
ATOM      1  N   UNL     1       3.862  -2.064   1.568  0.00  0.00    -0.275 N 
ATOM      2  C   UNL     1       5.137  -2.484   1.690  0.00  0.00    +0.259 C 
ATOM      3  O   UNL     1       5.498  -3.045   2.707  0.00  0.00    -0.269 OA
ATOM      4  H   UNL     1       3.575  -1.616   0.757  0.00  0.00    +0.156 HD
ENDROOT
BRANCH   1   9
ATOM      5  C   UNL     1       1.625  -1.911   2.651  0.00  0.00    +0.069 A 
ATOM      6  C   UNL     1       0.891  -2.251   3.857  0.00  0.00    -0.023 A 
ATOM      7  C   UNL     1       1.630  -2.883   4.794  0.00  0.00    -0.004 A 
ATOM      8  S   UNL     1       3.243  -3.014   4.080  0.00  0.00    -0.077 S 
ATOM      9  C   UNL     1       2.963  -2.271   2.600  0.00  0.00    +0.085 A 
ATOM     10  C   UNL     1       1.165  -3.358   6.136  0.00  0.00    +0.043 C 
ATOM     11  C   UNL     1      -0.180  -2.687   6.447  0.00  0.00    +0.005 C 
ATOM     12  C   UNL     1      -1.096  -2.824   5.226  0.00  0.00    +0.005 C 
ATOM     13  C   UNL     1      -0.581  -1.942   4.087  0.00  0.00    +0.037 C 
BRANCH   5  15
ATOM     14  N   UNL     1       0.973   0.125   1.480  0.00  0.00    -0.312 N 
ATOM     15  C   UNL     1       0.977  -1.222   1.531  0.00  0.00    +0.247 C 
ATOM     16  O   UNL     1       0.442  -1.865   0.647  0.00  0.00    -0.270 OA
ATOM     17  H   UNL     1       1.400   0.638   2.184  0.00  0.00    +0.149 HD
BRANCH  14  19
ATOM     18  C   UNL     1       0.464   2.327   0.544  0.00  0.00    +0.024 C 
ATOM     19  C   UNL     1       0.326   0.814   0.361  0.00  0.00    +0.101 C 
ENDBRANCH  14  19
ENDBRANCH   5  15
ENDBRANCH   1   9
BRANCH   2  20
ATOM     20  C   UNL     1       6.093  -2.263   0.594  0.00  0.00    +0.114 C 
ATOM     21  C   UNL     1       7.395  -2.692   0.719  0.00  0.00    +0.033 C 
BRANCH  21  22
ATOM     22  C   UNL     1       8.308  -2.607  -0.425  0.00  0.00    -0.005 A 
ATOM     23  C   UNL     1       7.821  -2.769  -1.729  0.00  0.00    +0.011 A 
ATOM     24  C   UNL     1       8.685  -2.687  -2.798  0.00  0.00    +0.020 A 
ATOM     25  C   UNL     1      10.034  -2.444  -2.588  0.00  0.00    +0.042 A 
ATOM     26  C   UNL     1      10.525  -2.283  -1.303  0.00  0.00    +0.040 A 
ATOM     27  C   UNL     1       9.673  -2.356  -0.221  0.00  0.00    +0.050 A 
ATOM     28 CL   UNL     1      10.289  -2.147   1.388  0.00  0.00    -0.083 Cl
ATOM     29 CL   UNL     1      11.114  -2.343  -3.944  0.00  0.00    -0.083 Cl
ENDBRANCH  21  22
BRANCH  20  30
ATOM     30  C   UNL     1       5.668  -1.602  -0.604  0.00  0.00    +0.104 C 
ATOM     31  N   UNL     1       5.332  -1.078  -1.554  0.00  0.00    -0.191 NA
ENDBRANCH  20  30
ENDBRANCH   2  20
TORSDOF 6
