REMARK  Name = ZINC17918536
REMARK  7 active torsions:
REMARK  status: ('A' for Active; 'I' for Inactive)
REMARK    1  A    between atoms: C_1  and  C_2
REMARK    2  A    between atoms: C_2  and  N_3
REMARK    3  A    between atoms: C_4  and  C_6
REMARK    4  A    between atoms: N_11  and  C_24
REMARK    5  A    between atoms: N_13  and  C_14
REMARK    6  A    between atoms: C_17  and  O_21
REMARK    7  A    between atoms: C_24  and  C_25
REMARK                            x       y       z     vdW  Elec       q    Type
REMARK                         _______ _______ _______ _____ _____    ______ ____
ROOT
ATOM      1  C   UNL     1       1.583  -2.313   2.615  0.00  0.00    +0.148 C 
ATOM      2  C   UNL     1       1.030  -3.680   3.024  0.00  0.00    +0.120 C 
ATOM      3  C   UNL     1       1.843  -4.325   4.093  0.00  0.00    +0.223 C 
ATOM      4  O   UNL     1       1.244  -5.090   4.819  0.00  0.00    -0.275 OA
ATOM      5  N   UNL     1       3.132  -4.174   4.356  0.00  0.00    -0.251 N 
ATOM      6  C   UNL     1       3.950  -3.247   3.736  0.00  0.00    +0.164 C 
ATOM      7  N   UNL     1       5.117  -2.922   4.238  0.00  0.00    -0.226 NA
ATOM      8  S   UNL     1       3.355  -2.513   2.236  0.00  0.00    -0.077 S 
ENDROOT
BRANCH   7   9
ATOM      9  C   UNL     1       5.905  -1.999   3.599  0.00  0.00    +0.069 A 
ATOM     10  C   UNL     1       6.075  -2.062   2.215  0.00  0.00    +0.051 A 
ATOM     11  C   UNL     1       6.869  -1.131   1.576  0.00  0.00    +0.086 A 
ATOM     12  C   UNL     1       7.497  -0.132   2.308  0.00  0.00    +0.153 A 
ATOM     13  C   UNL     1       7.330  -0.066   3.685  0.00  0.00    +0.086 A 
ATOM     14  C   UNL     1       6.534  -0.990   4.331  0.00  0.00    +0.051 A 
ATOM     15 CL   UNL     1       8.119   1.185   4.594  0.00  0.00    -0.080 Cl
ATOM     16 CL   UNL     1       7.082  -1.209  -0.145  0.00  0.00    -0.080 Cl
BRANCH  12  17
ATOM     17  O   UNL     1       8.279   0.783   1.675  0.00  0.00    -0.504 OA
ATOM     18  H   UNL     1       7.802   1.572   1.381  0.00  0.00    +0.292 HD
ENDBRANCH  12  17
ENDBRANCH   7   9
BRANCH   1  20
ATOM     19  N   UNL     1       0.711  -0.489   1.189  0.00  0.00    -0.315 N 
ATOM     20  C   UNL     1       0.854  -1.814   1.394  0.00  0.00    +0.227 C 
ATOM     21  O   UNL     1       0.396  -2.604   0.595  0.00  0.00    -0.275 OA
ATOM     22  H   UNL     1       1.077   0.142   1.827  0.00  0.00    +0.149 HD
BRANCH  19  24
ATOM     23  C   UNL     1      -0.019   1.526   0.010  0.00  0.00    +0.024 C 
ATOM     24  C   UNL     1       0.002  -0.004   0.002  0.00  0.00    +0.101 C 
ENDBRANCH  19  24
ENDBRANCH   1  20
BRANCH   5  25
ATOM     25  C   UNL     1       3.731  -5.047   5.370  0.00  0.00    +0.112 C 
ATOM     26  C   UNL     1       4.261  -6.316   4.700  0.00  0.00    +0.025 C 
ENDBRANCH   5  25
TORSDOF 5
