REMARK  Name = ZINC20390863
REMARK  8 active torsions:
REMARK  status: ('A' for Active; 'I' for Inactive)
REMARK    1  A    between atoms: C_1  and  C_2
REMARK    2  A    between atoms: N_7  and  C_9
REMARK    3  A    between atoms: C_9  and  C_10
REMARK    4  A    between atoms: C_11  and  O_30
REMARK    5  A    between atoms: C_18  and  O_21
REMARK    6  A    between atoms: O_21  and  C_22
REMARK    7  A    between atoms: C_27  and  O_28
REMARK    8  A    between atoms: O_28  and  C_29
REMARK                            x       y       z     vdW  Elec       q    Type
REMARK                         _______ _______ _______ _____ _____    ______ ____
ROOT
ATOM      1  C   UNL     1      -0.019   3.802   0.015  0.00  0.00    +0.020 A 
ATOM      2  C   UNL     1       1.170   3.094  -0.034  0.00  0.00    +0.122 A 
ATOM      3  C   UNL     1       1.164   1.702  -0.075  0.00  0.00    +0.046 A 
ATOM      4  C   UNL     1      -0.016   1.015  -0.067  0.00  0.00    +0.019 A 
ATOM      5  C   UNL     1      -1.223   1.714  -0.023  0.00  0.00    +0.068 A 
ATOM      6  C   UNL     1      -1.227   3.119   0.024  0.00  0.00    +0.143 A 
ATOM      7  O   UNL     1      -2.399   3.784   0.071  0.00  0.00    -0.459 OA
ATOM      8  C   UNL     1      -3.582   3.155   0.080  0.00  0.00    +0.245 A 
ATOM      9  C   UNL     1      -3.693   1.812   0.044  0.00  0.00    +0.210 A 
ATOM     10  C   UNL     1      -2.517   1.011  -0.007  0.00  0.00    +0.235 A 
ATOM     11  O   UNL     1      -2.579  -0.207  -0.042  0.00  0.00    -0.283 OA
ENDROOT
BRANCH   2  12
ATOM     12  O   UNL     1       2.351   3.763  -0.043  0.00  0.00    -0.506 OA
ATOM     13  H   UNL     1       3.299   3.205  -0.082  0.00  0.00    +0.292 HD
ENDBRANCH   2  12
BRANCH   1  14
ATOM     14  C   UNL     1      -0.002   5.309   0.058  0.00  0.00    -0.036 C 
BRANCH  14  20
ATOM     15  C   UNL     1      -0.382   9.336  -2.741  0.00  0.00    +0.005 C 
ATOM     16  C   UNL     1      -0.129   7.827  -2.739  0.00  0.00    -0.031 C 
ATOM     17  C   UNL     1      -1.163   7.134  -3.630  0.00  0.00    -0.001 C 
ATOM     18  C   UNL     1      -0.940   5.620  -3.575  0.00  0.00    -0.018 C 
ATOM     19  C   UNL     1      -1.039   5.147  -2.123  0.00  0.00    -0.078 C 
ATOM     20  N   UNL     1      -0.029   5.838  -1.312  0.00  0.00    +0.383 N 
ATOM     21  C   UNL     1      -0.251   7.290  -1.311  0.00  0.00    -0.075 C 
ATOM     22  H   UNL     1       0.954   5.649  -1.769  0.00  0.00    -0.081 HD
ENDBRANCH  14  20
ENDBRANCH   1  14
BRANCH   9  23
ATOM     23  O   UNL     1      -4.922   1.226   0.056  0.00  0.00    -0.445 OA
BRANCH  23  24
ATOM     24  C   UNL     1      -5.391   0.752   1.241  0.00  0.00    +0.170 A 
ATOM     25  C   UNL     1      -4.678   0.973   2.409  0.00  0.00    +0.050 A 
ATOM     26  C   UNL     1      -5.159   0.494   3.613  0.00  0.00    +0.004 A 
ATOM     27  C   UNL     1      -6.345  -0.215   3.655  0.00  0.00    +0.004 A 
ATOM     28  C   UNL     1      -7.058  -0.444   2.493  0.00  0.00    +0.049 A 
ATOM     29  C   UNL     1      -6.585   0.038   1.283  0.00  0.00    +0.162 A 
BRANCH  29  30
ATOM     30  O   UNL     1      -7.285  -0.187   0.139  0.00  0.00    -0.491 OA
ATOM     31  C   UNL     1      -8.502  -0.927   0.258  0.00  0.00    +0.277 C 
ENDBRANCH  29  30
ENDBRANCH  23  24
ENDBRANCH   9  23
TORSDOF 6
