REMARK  Name = ZINC43069214
REMARK  8 active torsions:
REMARK  status: ('A' for Active; 'I' for Inactive)
REMARK    1  A    between atoms: C_1  and  C_2
REMARK    2  A    between atoms: C_2  and  C_4
REMARK    3  A    between atoms: C_2  and  N_7
REMARK    4  A    between atoms: C_4  and  C_5
REMARK    5  A    between atoms: C_4  and  C_6
REMARK    6  A    between atoms: C_13  and  C_16
REMARK    7  A    between atoms: N_18  and  C_19
REMARK    8  A    between atoms: C_24  and  O_25
REMARK                            x       y       z     vdW  Elec       q    Type
REMARK                         _______ _______ _______ _____ _____    ______ ____
ROOT
ATOM      1  N   UNL     1       2.753  -0.297   0.026  0.00  0.00    -0.296 N 
ATOM      2  C   UNL     1       2.060  -0.623   1.135  0.00  0.00    +0.302 C 
ATOM      3  O   UNL     1       0.860  -0.436   1.179  0.00  0.00    -0.253 OA
ATOM      4  N   UNL     1       2.699  -1.155   2.196  0.00  0.00    -0.286 N 
ATOM      5  C   UNL     1       1.944  -1.623   3.367  0.00  0.00    +0.110 C 
ATOM      6  C   UNL     1       2.338  -3.074   3.661  0.00  0.00    +0.032 C 
ATOM      7  C   UNL     1       3.858  -3.163   3.816  0.00  0.00    +0.078 C 
ATOM      8  C   UNL     1       4.532  -2.735   2.511  0.00  0.00    +0.032 C 
ATOM      9  C   UNL     1       4.162  -1.286   2.201  0.00  0.00    +0.110 C 
ATOM     10  H   UNL     1       3.720  -0.377   0.017  0.00  0.00    +0.151 HD
ENDROOT
BRANCH   7  11
ATOM     11  C   UNL     1       4.247  -4.583   4.139  0.00  0.00    +0.220 C 
ATOM     12  O   UNL     1       3.393  -5.439   4.236  0.00  0.00    -0.275 OA
ATOM     13  N   UNL     1       5.544  -4.902   4.321  0.00  0.00    -0.282 N 
ATOM     14  H   UNL     1       6.219  -4.205   4.323  0.00  0.00    +0.155 HD
BRANCH  13  15
ATOM     15  C   UNL     1       5.917  -6.240   4.506  0.00  0.00    +0.077 A 
ATOM     16  C   UNL     1       5.116  -7.260   4.013  0.00  0.00    +0.047 A 
ATOM     17  C   UNL     1       5.486  -8.579   4.197  0.00  0.00    +0.043 A 
ATOM     18  C   UNL     1       6.655  -8.885   4.871  0.00  0.00    +0.023 A 
ATOM     19  C   UNL     1       7.458  -7.874   5.365  0.00  0.00    +0.049 A 
ATOM     20  C   UNL     1       7.096  -6.549   5.179  0.00  0.00    +0.138 A 
ATOM     21 CL   UNL     1       4.483  -9.855   3.580  0.00  0.00    -0.083 Cl
BRANCH  20  22
ATOM     22  O   UNL     1       7.888  -5.553   5.659  0.00  0.00    -0.505 OA
ATOM     23  H   UNL     1       7.676  -5.282   6.563  0.00  0.00    +0.292 HD
ENDBRANCH  20  22
ENDBRANCH  13  15
ENDBRANCH   7  11
BRANCH   1  25
ATOM     24  C   UNL     1       1.573  -1.021  -1.990  0.00  0.00    +0.028 C 
ATOM     25  C   UNL     1       2.046   0.178  -1.166  0.00  0.00    +0.074 C 
BRANCH  25  26
ATOM     26  C   UNL     1       2.989   1.038  -2.009  0.00  0.00    +0.003 C 
ATOM     27  C   UNL     1       2.250   1.534  -3.254  0.00  0.00    +0.009 C 
ATOM     28  C   UNL     1       3.461   2.237  -1.185  0.00  0.00    +0.009 C 
ENDBRANCH  25  26
ENDBRANCH   1  25
TORSDOF 5
