REMARK  Name = ZINC39000890
REMARK  16 active torsions:
REMARK  status: ('A' for Active; 'I' for Inactive)
REMARK    1  A    between atoms: C_1  and  C_2
REMARK    2  A    between atoms: C_2  and  O_4
REMARK    3  A    between atoms: O_4  and  C_5
REMARK    4  A    between atoms: C_6  and  O_34
REMARK    5  A    between atoms: C_8  and  C_13
REMARK    6  A    between atoms: C_10  and  O_11
REMARK    7  A    between atoms: O_11  and  C_12
REMARK    8  A    between atoms: N_14  and  N_15
REMARK    9  A    between atoms: C_16  and  C_22
REMARK   10  A    between atoms: C_24  and  O_32
REMARK   11  A    between atoms: C_25  and  O_30
REMARK   12  A    between atoms: C_26  and  O_28
REMARK   13  A    between atoms: O_28  and  C_29
REMARK   14  A    between atoms: O_30  and  C_31
REMARK   15  A    between atoms: O_32  and  C_33
REMARK   16  A    between atoms: O_34  and  C_35
REMARK                            x       y       z     vdW  Elec       q    Type
REMARK                         _______ _______ _______ _____ _____    ______ ____
ROOT
ATOM      1  N   UNL     1      -0.879  -8.351   1.092  0.00  0.00    -0.172 N 
ATOM      2  C   UNL     1      -0.954  -9.257   2.254  0.00  0.00    +0.264 C 
ATOM      3  N   UNL     1      -0.965 -10.600   1.654  0.00  0.00    -0.189 NA
ATOM      4  N   UNL     1      -0.908 -10.472   0.428  0.00  0.00    -0.219 N 
ATOM      5  C   UNL     1      -0.861  -9.175   0.021  0.00  0.00    +0.174 C 
ATOM      6  S   UNL     1      -0.785  -8.661  -1.610  0.00  0.00    -0.015 S 
ATOM      7  H   UNL     1      -0.901 -11.223  -0.186  0.00  0.00    +0.176 HD
ENDROOT
BRANCH   2   8
ATOM      8  C   UNL     1       0.251  -9.080   3.142  0.00  0.00    +0.005 A 
ATOM      9  C   UNL     1       0.876  -7.849   3.218  0.00  0.00    +0.057 A 
ATOM     10  C   UNL     1       1.985  -7.683   4.033  0.00  0.00    +0.166 A 
ATOM     11  C   UNL     1       2.468  -8.755   4.774  0.00  0.00    +0.204 A 
ATOM     12  C   UNL     1       1.837  -9.990   4.694  0.00  0.00    +0.166 A 
ATOM     13  C   UNL     1       0.725 -10.147   3.881  0.00  0.00    +0.057 A 
BRANCH  12  14
ATOM     14  O   UNL     1       2.306 -11.042   5.417  0.00  0.00    -0.491 OA
ATOM     15  C   UNL     1       1.607 -12.282   5.287  0.00  0.00    +0.277 C 
ENDBRANCH  12  14
BRANCH  11  16
ATOM     16  O   UNL     1       3.557  -8.595   5.575  0.00  0.00    -0.488 OA
ATOM     17  C   UNL     1       3.316  -8.193   6.925  0.00  0.00    +0.277 C 
ENDBRANCH  11  16
BRANCH  10  18
ATOM     18  O   UNL     1       2.600  -6.472   4.107  0.00  0.00    -0.491 OA
ATOM     19  C   UNL     1       2.049  -5.415   3.318  0.00  0.00    +0.277 C 
ENDBRANCH  10  18
ENDBRANCH   2   8
BRANCH   1  21
ATOM     20  C   UNL     1      -0.894  -6.295  -0.022  0.00  0.00    +0.138 C 
ATOM     21  N   UNL     1      -0.841  -6.951   1.098  0.00  0.00    -0.183 NA
BRANCH  20  25
ATOM     22  C   UNL     1      -1.119  -2.050   0.007  0.00  0.00    +0.214 A 
ATOM     23  C   UNL     1      -1.102  -2.736  -1.204  0.00  0.00    +0.166 A 
ATOM     24  C   UNL     1      -1.029  -4.117  -1.216  0.00  0.00    +0.059 A 
ATOM     25  C   UNL     1      -0.972  -4.824  -0.012  0.00  0.00    +0.002 A 
ATOM     26  C   UNL     1      -0.988  -4.132   1.202  0.00  0.00    +0.059 A 
ATOM     27  C   UNL     1      -1.056  -2.751   1.208  0.00  0.00    +0.166 A 
BRANCH  27  28
ATOM     28  O   UNL     1      -1.067  -2.076   2.389  0.00  0.00    -0.491 OA
ATOM     29  C   UNL     1      -1.001  -2.859   3.583  0.00  0.00    +0.277 C 
ENDBRANCH  27  28
BRANCH  23  30
ATOM     30  O   UNL     1      -1.159  -2.048  -2.375  0.00  0.00    -0.491 OA
ATOM     31  C   UNL     1      -1.138  -2.816  -3.580  0.00  0.00    +0.277 C 
ENDBRANCH  23  30
BRANCH  22  32
ATOM     32  O   UNL     1      -1.190  -0.692   0.017  0.00  0.00    -0.419 OA
BRANCH  32  34
ATOM     33  C   UNL     1      -0.067   1.507   0.005  0.00  0.00    +0.136 C 
ATOM     34  C   UNL     1      -0.040   0.000  -0.004  0.00  0.00    +0.309 C 
ATOM     35  O   UNL     1       1.020  -0.587  -0.030  0.00  0.00    -0.251 OA
ENDBRANCH  32  34
ENDBRANCH  22  32
ENDBRANCH  20  25
ENDBRANCH   1  21
TORSDOF 10
