REMARK  Name = ZINC12293390
REMARK  5 active torsions:
REMARK  status: ('A' for Active; 'I' for Inactive)
REMARK    1  A    between atoms: C_7  and  O_30
REMARK    2  A    between atoms: C_16  and  C_17
REMARK    3  A    between atoms: C_16  and  N_56
REMARK    4  A    between atoms: C_17  and  C_19
REMARK    5  A    between atoms: C_17  and  O_29
REMARK                            x       y       z     vdW  Elec       q    Type
REMARK                         _______ _______ _______ _____ _____    ______ ____
ROOT
ATOM      1  C   UNL     1      11.875   0.869   1.728  0.00  0.00    +0.001 A 
ATOM      2  C   UNL     1      10.903   1.437   2.531  0.00  0.00    +0.004 A 
ATOM      3  C   UNL     1       9.765   0.724   2.845  0.00  0.00    +0.046 A 
ATOM      4  C   UNL     1       9.591  -0.568   2.358  0.00  0.00    +0.127 A 
ATOM      5  C   UNL     1      10.564  -1.133   1.553  0.00  0.00    +0.023 A 
ATOM      6  C   UNL     1      11.705  -0.413   1.242  0.00  0.00    +0.010 A 
ATOM      7  C   UNL     1      10.413  -2.527   0.998  0.00  0.00    +0.152 C 
ATOM      8  C   UNL     1       9.350  -3.287   1.797  0.00  0.00    +0.084 C 
ATOM      9  C   UNL     1       8.113  -2.393   1.927  0.00  0.00    +0.110 C 
ATOM     10  O   UNL     1       8.459  -1.240   2.693  0.00  0.00    -0.485 OA
ATOM     11  C   UNL     1       6.996  -3.166   2.632  0.00  0.00    +0.029 C 
ATOM     12  C   UNL     1       5.743  -2.290   2.704  0.00  0.00    -0.075 C 
ATOM     13  C   UNL     1       6.365  -1.131   0.668  0.00  0.00    -0.075 C 
ATOM     14  C   UNL     1       7.638  -1.970   0.536  0.00  0.00    +0.029 C 
ATOM     15  N   UNL     1       5.322  -1.943   1.330  0.00  0.00    +0.382 N 
ATOM     16  H   UNL     1       5.185  -2.809   0.794  0.00  0.00    -0.082 HD
ENDROOT
BRANCH   7  17
ATOM     17  O   UNL     1      11.662  -3.215   1.094  0.00  0.00    -0.387 OA
ATOM     18  H   UNL     1      12.382  -2.791   0.608  0.00  0.00    +0.210 HD
ENDBRANCH   7  17
BRANCH  15  19
ATOM     19  C   UNL     1       4.048  -1.196   1.366  0.00  0.00    -0.042 C 
BRANCH  19  20
ATOM     20  C   UNL     1       3.695  -0.742  -0.052  0.00  0.00    +0.128 C 
BRANCH  20  21
ATOM     21  C   UNL     1       2.369  -0.027  -0.035  0.00  0.00    -0.017 A 
ATOM     22  C   UNL     1       1.193  -0.754  -0.012  0.00  0.00    +0.010 A 
ATOM     23  C   UNL     1      -0.025  -0.102   0.002  0.00  0.00    +0.050 A 
ATOM     24  C   UNL     1      -0.072   1.284  -0.009  0.00  0.00    +0.162 A 
ATOM     25  C   UNL     1       1.110   2.015  -0.029  0.00  0.00    +0.162 A 
ATOM     26  C   UNL     1       2.330   1.354  -0.044  0.00  0.00    +0.055 A 
ATOM     27  O   UNL     1       1.088   3.376  -0.031  0.00  0.00    -0.485 OA
ATOM     28  C   UNL     1      -0.150   3.999  -0.393  0.00  0.00    +0.270 C 
ATOM     29  C   UNL     1      -1.282   3.296   0.368  0.00  0.00    +0.270 C 
ATOM     30  O   UNL     1      -1.279   1.913  -0.003  0.00  0.00    -0.485 OA
ENDBRANCH  20  21
BRANCH  20  31
ATOM     31  O   UNL     1       3.611  -1.882  -0.910  0.00  0.00    -0.389 OA
ATOM     32  H   UNL     1       2.942  -2.527  -0.642  0.00  0.00    +0.210 HD
ENDBRANCH  20  31
ENDBRANCH  19  20
ENDBRANCH  15  19
TORSDOF 5
