REMARK  Name = ZINC35375018
REMARK  5 active torsions:
REMARK  status: ('A' for Active; 'I' for Inactive)
REMARK    1  A    between atoms: C_4  and  C_7
REMARK    2  A    between atoms: C_7  and  C_8
REMARK    3  A    between atoms: C_8  and  N_9
REMARK    4  A    between atoms: C_10  and  C_12
REMARK    5  A    between atoms: N_25  and  C_26
REMARK                            x       y       z     vdW  Elec       q    Type
REMARK                         _______ _______ _______ _____ _____    ______ ____
ROOT
ATOM      1  C   UNL     1       7.067  -2.880   2.667  0.00  0.00    +0.028 C 
ATOM      2  C   UNL     1       8.209  -2.307   1.775  0.00  0.00    +0.061 C 
ATOM      3  S   UNL     1       9.621  -3.264   2.491  0.00  0.00    -0.174 S 
ATOM      4  C   UNL     1       8.955  -3.410   4.198  0.00  0.00    -0.016 C 
ATOM      5  N   UNL     1       7.531  -3.073   4.044  0.00  0.00    +0.397 N 
ATOM      6  C   UNL     1       9.133  -4.837   4.695  0.00  0.00    +0.017 C 
ATOM      7  C   UNL     1       8.560  -4.961   6.112  0.00  0.00    +0.109 C 
ATOM      8  N   UNL     1       9.167  -3.924   6.957  0.00  0.00    -0.285 N 
ATOM      9  C   UNL     1       9.089  -2.522   6.526  0.00  0.00    +0.109 C 
ATOM     10  C   UNL     1       9.659  -2.412   5.107  0.00  0.00    +0.017 C 
ATOM     11  C   UNL     1       9.784  -4.253   8.109  0.00  0.00    +0.306 C 
ATOM     12  O   UNL     1       9.766  -5.404   8.501  0.00  0.00    -0.252 OA
ATOM     13  N   UNL     1      10.421  -3.307   8.827  0.00  0.00    -0.268 N 
ATOM     14  H   UNL     1       7.350  -2.225   4.560  0.00  0.00    -0.083 HD
ATOM     15  H   UNL     1      10.379  -2.378   8.550  0.00  0.00    +0.156 HD
ATOM     16  H   UNL     1       6.987  -3.814   4.460  0.00  0.00    -0.083 HD
ENDROOT
BRANCH  13  17
ATOM     17  C   UNL     1      11.144  -3.664   9.971  0.00  0.00    +0.049 A 
ATOM     18  C   UNL     1      11.526  -4.984  10.168  0.00  0.00    +0.024 A 
ATOM     19  C   UNL     1      12.240  -5.334  11.298  0.00  0.00    +0.002 A 
ATOM     20  C   UNL     1      12.574  -4.370  12.233  0.00  0.00    +0.001 A 
ATOM     21  C   UNL     1      12.195  -3.055  12.040  0.00  0.00    +0.017 A 
ATOM     22  C   UNL     1      11.486  -2.697  10.909  0.00  0.00    +0.039 A 
ATOM     23 BR   UNL     1      10.975  -0.897  10.642  0.00  0.00    -0.048 Br
ENDBRANCH  13  17
BRANCH   1  25
ATOM     24  N   UNL     1       5.292  -1.606   1.506  0.00  0.00    -0.316 N 
ATOM     25  C   UNL     1       5.907  -1.918   2.665  0.00  0.00    +0.200 C 
ATOM     26  O   UNL     1       5.525  -1.426   3.705  0.00  0.00    -0.278 OA
ATOM     27  H   UNL     1       5.598  -2.000   0.674  0.00  0.00    +0.149 HD
BRANCH  24  28
ATOM     28  C   UNL     1       4.164  -0.671   1.504  0.00  0.00    +0.109 C 
BRANCH  28  29
ATOM     29  C   UNL     1       3.654  -0.491   0.073  0.00  0.00    +0.054 C 
BRANCH  29  33
ATOM     30  C   UNL     1       0.364   2.234   0.065  0.00  0.00    +0.000 A 
ATOM     31  C   UNL     1       1.654   2.707  -0.088  0.00  0.00    +0.000 A 
ATOM     32  C   UNL     1       2.719   1.825  -0.085  0.00  0.00    +0.004 A 
ATOM     33  C   UNL     1       2.493   0.470   0.071  0.00  0.00    -0.046 A 
ATOM     34  C   UNL     1       1.204  -0.003   0.224  0.00  0.00    +0.004 A 
ATOM     35  C   UNL     1       0.139   0.879   0.220  0.00  0.00    +0.000 A 
ENDBRANCH  29  33
ENDBRANCH  28  29
ENDBRANCH  24  28
ENDBRANCH   1  25
TORSDOF 5
