REMARK  Name = ZINC66925564
REMARK  6 active torsions:
REMARK  status: ('A' for Active; 'I' for Inactive)
REMARK    1  A    between atoms: C_10  and  C_11
REMARK    2  A    between atoms: C_10  and  O_29
REMARK    3  A    between atoms: C_11  and  N_12
REMARK    4  A    between atoms: N_15  and  C_16
REMARK    5  A    between atoms: C_16  and  C_17
REMARK    6  A    between atoms: C_22  and  N_23
REMARK                            x       y       z     vdW  Elec       q    Type
REMARK                         _______ _______ _______ _____ _____    ______ ____
ROOT
ATOM      1  N   UNL     1       5.031   1.427  -0.389  0.00  0.00    -0.296 N 
ATOM      2  C   UNL     1       5.575   2.309  -1.252  0.00  0.00    +0.300 C 
ATOM      3  O   UNL     1       6.031   1.922  -2.310  0.00  0.00    -0.253 OA
ATOM      4  N   UNL     1       5.612   3.620  -0.941  0.00  0.00    -0.295 N 
ATOM      5  H   UNL     1       4.667   1.736   0.455  0.00  0.00    +0.150 HD
ATOM      6  H   UNL     1       5.248   3.929  -0.097  0.00  0.00    +0.151 HD
ENDROOT
BRANCH   1   7
ATOM      7  C   UNL     1       4.991   0.002  -0.727  0.00  0.00    +0.145 C 
BRANCH   7  17
ATOM      8  C   UNL     1       4.197  -4.903  -0.693  0.00  0.00    +0.000 A 
ATOM      9  C   UNL     1       3.993  -3.926  -1.649  0.00  0.00    +0.000 A 
ATOM     10  C   UNL     1       4.012  -2.596  -1.285  0.00  0.00    +0.007 A 
ATOM     11  C   UNL     1       4.237  -2.229   0.036  0.00  0.00    -0.011 A 
ATOM     12  C   UNL     1       4.445  -3.202   0.988  0.00  0.00    -0.041 A 
ATOM     13  C   UNL     1       4.421  -4.541   0.619  0.00  0.00    +0.004 A 
ATOM     14  C   UNL     1       4.711  -2.877   2.434  0.00  0.00    +0.035 C 
ATOM     15  C   UNL     1       4.285  -1.445   2.751  0.00  0.00    +0.008 C 
ATOM     16  C   UNL     1       4.916  -0.511   1.712  0.00  0.00    +0.041 C 
ATOM     17  C   UNL     1       4.238  -0.759   0.366  0.00  0.00    +0.107 C 
BRANCH  17  18
ATOM     18  O   UNL     1       2.890  -0.289   0.423  0.00  0.00    -0.382 OA
ATOM     19  H   UNL     1       2.399  -0.398  -0.403  0.00  0.00    +0.211 HD
ENDBRANCH  17  18
ENDBRANCH   7  17
ENDBRANCH   1   7
BRANCH   4  20
ATOM     20  C   UNL     1       6.203   4.578  -1.878  0.00  0.00    +0.144 C 
BRANCH  20  21
ATOM     21  C   UNL     1       6.120   5.966  -1.297  0.00  0.00    +0.008 A 
ATOM     22  C   UNL     1       5.151   6.852  -1.732  0.00  0.00    +0.010 A 
ATOM     23  C   UNL     1       5.111   8.121  -1.169  0.00  0.00    +0.018 A 
ATOM     24  C   UNL     1       6.033   8.458  -0.198  0.00  0.00    +0.084 A 
ATOM     25  N   UNL     1       6.947   7.593   0.198  0.00  0.00    -0.349 N 
ATOM     26  C   UNL     1       7.013   6.372  -0.311  0.00  0.00    +0.103 A 
ATOM     27  H   UNL     1       7.583   7.856   0.882  0.00  0.00    +0.167 HD
BRANCH  26  28
ATOM     28  N   UNL     1       7.988   5.490   0.141  0.00  0.00    -0.316 N 
ATOM     29  C   UNL     1       9.273   5.371  -0.562  0.00  0.00    +0.106 C 
ATOM     30  C   UNL     1      10.407   5.578   0.447  0.00  0.00    +0.019 C 
ATOM     31  C   UNL     1      10.234   4.599   1.611  0.00  0.00    +0.003 C 
ATOM     32  C   UNL     1       8.904   4.873   2.316  0.00  0.00    +0.019 C 
ATOM     33  C   UNL     1       7.755   4.662   1.332  0.00  0.00    +0.106 C 
ENDBRANCH  26  28
ENDBRANCH  20  21
ENDBRANCH   4  20
TORSDOF 6
