REMARK  Name = ZINC16755767
REMARK  5 active torsions:
REMARK  status: ('A' for Active; 'I' for Inactive)
REMARK    1  A    between atoms: C_9  and  C_11
REMARK    2  A    between atoms: C_11  and  S_12
REMARK    3  A    between atoms: S_12  and  C_13
REMARK    4  A    between atoms: C_16  and  C_19
REMARK    5  A    between atoms: N_17  and  N_18
REMARK                            x       y       z     vdW  Elec       q    Type
REMARK                         _______ _______ _______ _____ _____    ______ ____
ROOT
ATOM      1  C   UNL     1       7.086   2.615  -1.463  0.00  0.00    +0.209 A 
ATOM      2  N   UNL     1       7.701   2.656  -0.302  0.00  0.00    -0.121 NA
ATOM      3  N   UNL     1       8.947   2.921  -0.471  0.00  0.00    -0.127 NA
ATOM      4  C   UNL     1       9.203   3.073  -1.750  0.00  0.00    +0.183 A 
ATOM      5  N   UNL     1       8.019   2.882  -2.424  0.00  0.00    -0.224 N 
ENDROOT
BRANCH   4   6
ATOM      6  C   UNL     1      10.515   3.391  -2.351  0.00  0.00    +0.039 A 
ATOM      7  C   UNL     1      10.619   4.389  -3.321  0.00  0.00    +0.014 A 
ATOM      8  C   UNL     1      11.847   4.684  -3.875  0.00  0.00    +0.021 A 
ATOM      9  C   UNL     1      12.975   3.985  -3.479  0.00  0.00    +0.042 A 
ATOM     10  C   UNL     1      12.879   2.990  -2.521  0.00  0.00    +0.040 A 
ATOM     11  C   UNL     1      11.656   2.689  -1.955  0.00  0.00    +0.053 A 
ATOM     12 CL   UNL     1      11.537   1.441  -0.754  0.00  0.00    -0.083 Cl
ATOM     13 CL   UNL     1      14.516   4.358  -4.186  0.00  0.00    -0.083 Cl
ENDBRANCH   4   6
BRANCH   5  14
ATOM     14  N   UNL     1       7.818   2.947  -3.774  0.00  0.00    -0.295 N 
ATOM     15  H   UNL     1       7.659   3.898  -4.070  0.00  0.00    +0.163 HD
ATOM     16  H   UNL     1       8.592   2.537  -4.274  0.00  0.00    +0.163 HD
ENDBRANCH   5  14
BRANCH   1  17
ATOM     17  S   UNL     1       5.376   2.284  -1.729  0.00  0.00    -0.077 S 
BRANCH  17  18
ATOM     18  C   UNL     1       4.834   2.038  -0.020  0.00  0.00    +0.151 C 
BRANCH  18  27
ATOM     19  C   UNL     1      -0.910   0.220   0.005  0.00  0.00    +0.002 A 
ATOM     20  C   UNL     1      -1.150   1.582   0.117  0.00  0.00    +0.002 A 
ATOM     21  C   UNL     1      -0.113   2.471   0.152  0.00  0.00    +0.030 A 
ATOM     22  C   UNL     1       1.204   2.009   0.081  0.00  0.00    +0.089 A 
ATOM     23  C   UNL     1       1.446   0.629  -0.026  0.00  0.00    +0.066 A 
ATOM     24  C   UNL     1       0.380  -0.260  -0.061  0.00  0.00    +0.028 A 
ATOM     25  N   UNL     1       2.819   0.486  -0.075  0.00  0.00    -0.341 N 
ATOM     26  H   UNL     1       3.323  -0.374  -0.152  0.00  0.00    +0.167 HD
ATOM     27  C   UNL     1       3.358   1.733   0.000  0.00  0.00    +0.118 A 
ATOM     28  N   UNL     1       2.414   2.624   0.092  0.00  0.00    -0.232 NA
ENDBRANCH  18  27
ENDBRANCH  17  18
ENDBRANCH   1  17
TORSDOF 5
