REMARK  Name = ZINC13758188
REMARK  8 active torsions:
REMARK  status: ('A' for Active; 'I' for Inactive)
REMARK    1  A    between atoms: C_1  and  C_2
REMARK    2  A    between atoms: C_6  and  O_8
REMARK    3  A    between atoms: O_8  and  C_9
REMARK    4  A    between atoms: C_10  and  C_21
REMARK    5  A    between atoms: C_17  and  C_20
REMARK    6  A    between atoms: C_22  and  C_23
REMARK    7  A    between atoms: C_22  and  S_25
REMARK    8  A    between atoms: S_25  and  C_28
REMARK                            x       y       z     vdW  Elec       q    Type
REMARK                         _______ _______ _______ _____ _____    ______ ____
ROOT
ATOM      1  C   UNL     1      -0.807   4.106  -4.348  0.00  0.00    +0.235 A 
ATOM      2  C   UNL     1      -1.236   3.126  -3.429  0.00  0.00    +0.104 A 
ATOM      3  C   UNL     1      -2.448   2.444  -3.690  0.00  0.00    +0.269 A 
ATOM      4  O   UNL     1      -2.854   1.586  -2.925  0.00  0.00    -0.266 OA
ATOM      5  N   UNL     1      -3.150   2.763  -4.798  0.00  0.00    -0.267 N 
ATOM      6  C   UNL     1      -4.322   2.116  -5.056  0.00  0.00    +0.096 A 
ATOM      7  C   UNL     1      -5.046   2.410  -6.160  0.00  0.00    +0.019 A 
ATOM      8  C   UNL     1      -4.596   3.389  -7.056  0.00  0.00    +0.008 A 
ATOM      9  C   UNL     1      -3.425   4.041  -6.807  0.00  0.00    -0.007 A 
ATOM     10  C   UNL     1      -2.686   3.723  -5.654  0.00  0.00    +0.147 A 
ATOM     11  N   UNL     1      -1.542   4.367  -5.418  0.00  0.00    -0.194 NA
ATOM     12  C   UNL     1      -2.927   5.097  -7.760  0.00  0.00    +0.047 C 
ENDROOT
BRANCH   2  13
ATOM     13  C   UNL     1      -0.468   2.826  -2.275  0.00  0.00    +0.057 C 
ATOM     14  C   UNL     1      -0.146   3.811  -1.400  0.00  0.00    +0.171 C 
BRANCH  14  15
ATOM     15  S   UNL     1       0.933   3.472  -0.049  0.00  0.00    +0.035 S 
ATOM     16  O   UNL     1       0.303   3.992   1.114  0.00  0.00    -0.164 OA
ATOM     17  O   UNL     1       1.311   2.107  -0.164  0.00  0.00    -0.164 OA
BRANCH  15  18
ATOM     18  C   UNL     1       2.395   4.423  -0.298  0.00  0.00    +0.094 A 
ATOM     19  C   UNL     1       3.455   3.888  -1.006  0.00  0.00    +0.029 A 
ATOM     20  C   UNL     1       4.600   4.635  -1.207  0.00  0.00    +0.022 A 
ATOM     21  C   UNL     1       4.689   5.915  -0.690  0.00  0.00    +0.041 A 
ATOM     22  C   UNL     1       3.630   6.449   0.023  0.00  0.00    +0.022 A 
ATOM     23  C   UNL     1       2.484   5.702   0.218  0.00  0.00    +0.029 A 
ATOM     24 CL   UNL     1       6.130   6.853  -0.936  0.00  0.00    -0.084 Cl
ENDBRANCH  15  18
ENDBRANCH  14  15
BRANCH  14  25
ATOM     25  C   UNL     1      -0.684   5.127  -1.574  0.00  0.00    +0.119 C 
ATOM     26  N   UNL     1      -1.110   6.171  -1.712  0.00  0.00    -0.189 NA
ENDBRANCH  14  25
ENDBRANCH   2  13
BRANCH   1  27
ATOM     27  O   UNL     1       0.349   4.777  -4.138  0.00  0.00    -0.437 OA
BRANCH  27  33
ATOM     28  C   UNL     1      -0.421   9.293  -5.819  0.00  0.00    +0.044 C 
ATOM     29  C   UNL     1       0.325   7.984  -5.854  0.00  0.00    -0.047 A 
ATOM     30  C   UNL     1       1.345   7.795  -6.769  0.00  0.00    +0.003 A 
ATOM     31  C   UNL     1       2.031   6.595  -6.803  0.00  0.00    +0.004 A 
ATOM     32  C   UNL     1       1.700   5.583  -5.923  0.00  0.00    +0.046 A 
ATOM     33  C   UNL     1       0.677   5.771  -5.004  0.00  0.00    +0.131 A 
ATOM     34  C   UNL     1      -0.014   6.974  -4.976  0.00  0.00    +0.049 A 
ENDBRANCH  27  33
ENDBRANCH   1  27
TORSDOF 6
