REMARK  Name = ZINC32655249
REMARK  8 active torsions:
REMARK  status: ('A' for Active; 'I' for Inactive)
REMARK    1  A    between atoms: C_1  and  C_2
REMARK    2  A    between atoms: C_3  and  C_30
REMARK    3  A    between atoms: C_4  and  C_23
REMARK    4  A    between atoms: C_11  and  S_15
REMARK    5  A    between atoms: S_15  and  C_16
REMARK    6  A    between atoms: C_16  and  C_17
REMARK    7  A    between atoms: C_30  and  O_32
REMARK    8  A    between atoms: O_32  and  C_33
REMARK                            x       y       z     vdW  Elec       q    Type
REMARK                         _______ _______ _______ _____ _____    ______ ____
ROOT
ATOM      1  C   UNL     1       9.079  -4.299   2.970  0.00  0.00    +0.061 C 
ATOM      2  C   UNL     1       8.784  -3.831   1.568  0.00  0.00    +0.017 C 
ATOM      3  C   UNL     1       9.583  -4.220   0.562  0.00  0.00    +0.065 C 
ATOM      4  C   UNL     1       9.351  -3.782  -0.855  0.00  0.00    +0.096 C 
ATOM      5  C   UNL     1       7.962  -3.236  -1.027  0.00  0.00    +0.069 A 
ATOM      6  C   UNL     1       7.420  -3.085  -2.309  0.00  0.00    +0.258 A 
ATOM      7  O   UNL     1       8.066  -3.395  -3.297  0.00  0.00    -0.267 OA
ATOM      8  N   UNL     1       6.170  -2.589  -2.431  0.00  0.00    -0.302 N 
ATOM      9  H   UNL     1       5.723  -2.465  -3.429  0.00  0.00    +0.171 HD
ATOM     10  C   UNL     1       5.461  -2.243  -1.321  0.00  0.00    +0.171 A 
ATOM     11  N   UNL     1       5.968  -2.378  -0.113  0.00  0.00    -0.208 NA
ATOM     12  C   UNL     1       7.198  -2.873   0.068  0.00  0.00    +0.135 A 
ATOM     13  N   UNL     1       7.707  -3.019   1.346  0.00  0.00    -0.302 N 
ATOM     14  H   UNL     1       7.243  -2.479   2.185  0.00  0.00    +0.153 HD
ENDROOT
BRANCH   4  15
ATOM     15  C   UNL     1      10.351  -2.713  -1.214  0.00  0.00    -0.035 A 
ATOM     16  C   UNL     1      10.363  -1.518  -0.519  0.00  0.00    +0.005 A 
ATOM     17  C   UNL     1      11.283  -0.539  -0.845  0.00  0.00    +0.015 A 
ATOM     18  C   UNL     1      12.185  -0.752  -1.872  0.00  0.00    +0.018 A 
ATOM     19  C   UNL     1      12.168  -1.946  -2.570  0.00  0.00    +0.015 A 
ATOM     20  C   UNL     1      11.251  -2.926  -2.240  0.00  0.00    +0.005 A 
ATOM     21 BR   UNL     1      13.440   0.589  -2.322  0.00  0.00    -0.050 Br
ENDBRANCH   4  15
BRANCH   3  22
ATOM     22  C   UNL     1      10.678  -5.068   0.846  0.00  0.00    +0.337 C 
ATOM     23  O   UNL     1      10.633  -6.243   0.535  0.00  0.00    -0.245 OA
BRANCH  22  24
ATOM     24  O   UNL     1      11.772  -4.573   1.462  0.00  0.00    -0.465 OA
ATOM     25  C   UNL     1      12.841  -5.487   1.718  0.00  0.00    +0.280 C 
ENDBRANCH  22  24
ENDBRANCH   3  22
BRANCH  10  26
ATOM     26  S   UNL     1       3.833  -1.594  -1.506  0.00  0.00    -0.083 S 
BRANCH  26  27
ATOM     27  C   UNL     1       3.402  -1.327   0.232  0.00  0.00    +0.112 C 
BRANCH  27  28
ATOM     28  C   UNL     1       2.010  -0.758   0.323  0.00  0.00    -0.037 A 
ATOM     29  C   UNL     1       0.922  -1.605   0.423  0.00  0.00    +0.004 A 
ATOM     30  C   UNL     1      -0.355  -1.084   0.506  0.00  0.00    +0.000 A 
ATOM     31  C   UNL     1      -0.545   0.286   0.489  0.00  0.00    +0.000 A 
ATOM     32  C   UNL     1       0.543   1.133   0.389  0.00  0.00    +0.000 A 
ATOM     33  C   UNL     1       1.820   0.611   0.305  0.00  0.00    +0.004 A 
ENDBRANCH  27  28
ENDBRANCH  26  27
ENDBRANCH  10  26
TORSDOF 6
