REMARK  Name = ZINC08509079
REMARK  4 active torsions:
REMARK  status: ('A' for Active; 'I' for Inactive)
REMARK    1  A    between atoms: C_1  and  C_2
REMARK    2  A    between atoms: C_5  and  C_7
REMARK    3  A    between atoms: C_22  and  C_24
REMARK    4  A    between atoms: C_22  and  C_25
REMARK                            x       y       z     vdW  Elec       q    Type
REMARK                         _______ _______ _______ _____ _____    ______ ____
ROOT
ATOM      1  C   UNL     1       1.043  -4.062  -0.027  0.00  0.00    +0.097 C 
ATOM      2  C   UNL     1       1.857  -4.268  -1.270  0.00  0.00    +0.043 A 
ATOM      3  C   UNL     1       1.224  -4.478  -2.504  0.00  0.00    +0.126 A 
ATOM      4  N   UNL     1       1.957  -4.657  -3.598  0.00  0.00    -0.208 NA
ATOM      5  C   UNL     1       3.286  -4.639  -3.542  0.00  0.00    +0.180 A 
ATOM      6  S   UNL     1       4.190  -4.872  -4.977  0.00  0.00    -0.011 S 
ATOM      7  N   UNL     1       3.932  -4.442  -2.378  0.00  0.00    -0.322 N 
ATOM      8  C   UNL     1       3.221  -4.256  -1.224  0.00  0.00    +0.110 A 
ATOM      9  N   UNL     1       3.870  -4.062  -0.029  0.00  0.00    -0.304 N 
ATOM     10  C   UNL     1       3.220  -4.267   1.159  0.00  0.00    +0.017 C 
ATOM     11  C   UNL     1       1.873  -4.284   1.212  0.00  0.00    +0.024 C 
ATOM     12  C   UNL     1       1.200  -4.511   2.426  0.00  0.00    +0.162 C 
ATOM     13  O   UNL     1      -0.015  -4.513   2.442  0.00  0.00    -0.292 OA
ATOM     14  C   UNL     1       1.956  -4.750   3.704  0.00  0.00    +0.086 C 
ATOM     15  C   UNL     1       3.309  -5.388   3.372  0.00  0.00    -0.023 C 
ATOM     16  C   UNL     1       4.050  -4.469   2.403  0.00  0.00    +0.058 C 
ATOM     17  C   UNL     1       3.088  -6.754   2.720  0.00  0.00    +0.011 C 
ATOM     18  C   UNL     1       4.128  -5.552   4.654  0.00  0.00    +0.011 C 
ATOM     19  N   UNL     1      -0.152  -4.499  -2.581  0.00  0.00    -0.343 N 
ATOM     20  H   UNL     1       4.797  -3.777  -0.026  0.00  0.00    +0.153 HD
ATOM     21  H   UNL     1      -0.588  -4.644  -3.436  0.00  0.00    +0.144 HD
ATOM     22  H   UNL     1      -0.685  -4.369  -1.781  0.00  0.00    +0.144 HD
ATOM     23  H   UNL     1       4.902  -4.431  -2.357  0.00  0.00    +0.169 HD
ENDROOT
BRANCH   1  28
ATOM     24  C   UNL     1      -0.018   1.503   0.010  0.00  0.00    +0.051 C 
ATOM     25  C   UNL     1       0.002  -0.004   0.002  0.00  0.00    -0.013 A 
ATOM     26  C   UNL     1      -1.039  -0.872   0.002  0.00  0.00    +0.011 A 
ATOM     27  C   UNL     1      -0.780  -2.230  -0.007  0.00  0.00    +0.012 A 
ATOM     28  C   UNL     1       0.507  -2.653  -0.016  0.00  0.00    +0.002 A 
ATOM     29  S   UNL     1       1.404  -1.109  -0.018  0.00  0.00    -0.097 S 
ENDBRANCH   1  28
TORSDOF 1
