REMARK  Name = ZINC40846078
REMARK  10 active torsions:
REMARK  status: ('A' for Active; 'I' for Inactive)
REMARK    1  A    between atoms: C_1  and  C_2
REMARK    2  A    between atoms: C_2  and  O_3
REMARK    3  A    between atoms: O_3  and  C_4
REMARK    4  A    between atoms: C_4  and  C_6
REMARK    5  A    between atoms: C_10  and  N_11
REMARK    6  A    between atoms: N_14  and  N_15
REMARK    7  A    between atoms: C_16  and  C_17
REMARK    8  A    between atoms: C_20  and  O_25
REMARK    9  A    between atoms: C_21  and  O_23
REMARK   10  A    between atoms: O_23  and  C_24
REMARK                            x       y       z     vdW  Elec       q    Type
REMARK                         _______ _______ _______ _____ _____    ______ ____
ROOT
ATOM      1  N   UNL     1      -3.160  -2.475   2.537  0.00  0.00    -0.262 N 
ATOM      2  C   UNL     1      -4.012  -2.266   3.560  0.00  0.00    +0.324 C 
ATOM      3  O   UNL     1      -5.212  -2.295   3.367  0.00  0.00    -0.251 OA
ATOM      4  N   UNL     1      -3.534  -2.024   4.797  0.00  0.00    -0.191 N 
ATOM      5  H   UNL     1      -2.202  -2.451   2.691  0.00  0.00    +0.157 HD
ATOM      6  H   UNL     1      -4.147  -1.873   5.533  0.00  0.00    +0.179 HD
ENDROOT
BRANCH   1  11
ATOM      7  C   UNL     1      -2.933  -2.959   0.107  0.00  0.00    +0.091 A 
ATOM      8  C   UNL     1      -3.697  -3.202  -1.116  0.00  0.00    -0.021 A 
ATOM      9  C   UNL     1      -5.030  -3.156  -0.948  0.00  0.00    -0.004 A 
ATOM     10  S   UNL     1      -5.253  -2.806   0.777  0.00  0.00    -0.077 S 
ATOM     11  C   UNL     1      -3.651  -2.724   1.266  0.00  0.00    +0.088 A 
ATOM     12  C   UNL     1      -5.766  -3.408  -2.236  0.00  0.00    +0.043 C 
ATOM     13  C   UNL     1      -4.706  -3.197  -3.340  0.00  0.00    +0.010 C 
ATOM     14  C   UNL     1      -3.398  -3.506  -2.583  0.00  0.00    +0.037 C 
BRANCH   7  15
ATOM     15  C   UNL     1      -1.469  -2.970   0.106  0.00  0.00    +0.342 C 
ATOM     16  O   UNL     1      -0.868  -4.008   0.311  0.00  0.00    -0.245 OA
BRANCH  15  17
ATOM     17  O   UNL     1      -0.785  -1.830  -0.121  0.00  0.00    -0.461 OA
BRANCH  17  19
ATOM     18  C   UNL     1       1.236  -0.532  -0.383  0.00  0.00    +0.048 C 
ATOM     19  C   UNL     1       0.641  -1.914  -0.107  0.00  0.00    +0.229 C 
ENDBRANCH  17  19
ENDBRANCH  15  17
ENDBRANCH   7  15
ENDBRANCH   1  11
BRANCH   4  20
ATOM     20  N   UNL     1      -2.151  -1.990   5.019  0.00  0.00    -0.186 NA
ATOM     21  C   UNL     1      -1.691  -1.874   6.227  0.00  0.00    +0.138 C 
BRANCH  21  22
ATOM     22  C   UNL     1      -2.535  -2.248   7.377  0.00  0.00    -0.002 A 
ATOM     23  C   UNL     1      -3.706  -2.984   7.176  0.00  0.00    +0.013 A 
ATOM     24  C   UNL     1      -4.494  -3.333   8.252  0.00  0.00    +0.050 A 
ATOM     25  C   UNL     1      -4.128  -2.955   9.536  0.00  0.00    +0.158 A 
ATOM     26  C   UNL     1      -2.962  -2.220   9.743  0.00  0.00    +0.162 A 
ATOM     27  C   UNL     1      -2.164  -1.873   8.670  0.00  0.00    +0.058 A 
BRANCH  26  28
ATOM     28  O   UNL     1      -2.607  -1.851  11.003  0.00  0.00    -0.491 OA
ATOM     29  C   UNL     1      -1.400  -1.099  11.142  0.00  0.00    +0.277 C 
ENDBRANCH  26  28
BRANCH  25  30
ATOM     30  O   UNL     1      -4.908  -3.301  10.593  0.00  0.00    -0.503 OA
ATOM     31  H   UNL     1      -4.678  -4.152  10.991  0.00  0.00    +0.292 HD
ENDBRANCH  25  30
ENDBRANCH  21  22
ENDBRANCH   4  20
TORSDOF 8
