REMARK  Name = ZINC36660370
REMARK  11 active torsions:
REMARK  status: ('A' for Active; 'I' for Inactive)
REMARK    1  A    between atoms: C_1  and  C_2
REMARK    2  A    between atoms: C_4  and  C_36
REMARK    3  A    between atoms: N_11  and  C_12
REMARK    4  A    between atoms: C_12  and  C_13
REMARK    5  A    between atoms: C_13  and  C_14
REMARK    6  A    between atoms: C_14  and  N_15
REMARK    7  A    between atoms: N_15  and  C_16
REMARK    8  A    between atoms: N_15  and  C_17
REMARK    9  A    between atoms: C_18  and  C_20
REMARK   10  A    between atoms: N_25  and  S_26
REMARK   11  A    between atoms: S_26  and  C_29
REMARK                            x       y       z     vdW  Elec       q    Type
REMARK                         _______ _______ _______ _____ _____    ______ ____
ROOT
ATOM      1  C   UNL     1       0.851   1.044   0.367  0.00  0.00    +0.044 C 
ATOM      2  C   UNL     1       0.817  -0.455   0.212  0.00  0.00    -0.049 A 
ATOM      3  C   UNL     1       0.954  -1.033  -1.041  0.00  0.00    +0.009 A 
ATOM      4  C   UNL     1       0.926  -2.393  -1.209  0.00  0.00    -0.024 A 
ATOM      5  C   UNL     1       0.755  -3.255  -0.101  0.00  0.00    +0.083 A 
ATOM      6  C   UNL     1       0.619  -2.630   1.160  0.00  0.00    +0.041 A 
ATOM      7  C   UNL     1       0.654  -1.267   1.319  0.00  0.00    +0.020 A 
ATOM      8  S   UNL     1       0.431  -4.019   2.252  0.00  0.00    -0.052 S 
ATOM      9  C   UNL     1       0.542  -5.298   1.009  0.00  0.00    +0.168 A 
ATOM     10  N   UNL     1       0.706  -4.604  -0.093  0.00  0.00    -0.224 NA
ATOM     11  N   UNL     1       0.472  -6.673   1.168  0.00  0.00    -0.249 N 
ATOM     12  C   UNL     1       0.656  -7.484   0.107  0.00  0.00    +0.240 C 
ATOM     13  O   UNL     1       0.812  -7.011  -0.999  0.00  0.00    -0.273 OA
ATOM     14  C   UNL     1       1.078  -2.977  -2.590  0.00  0.00    +0.046 C 
ENDROOT
BRANCH  12  15
ATOM     15  C   UNL     1       0.667  -8.979   0.295  0.00  0.00    +0.166 C 
ATOM     16  C   UNL     1       2.102  -9.459   0.600  0.00  0.00    +0.031 C 
ATOM     17  C   UNL     1       2.193 -10.798  -0.178  0.00  0.00    +0.019 C 
ATOM     18  C   UNL     1       1.344 -10.486  -1.435  0.00  0.00    +0.110 C 
ATOM     19  N   UNL     1       0.235  -9.642  -0.944  0.00  0.00    -0.165 NA
BRANCH  19  20
ATOM     20  S   UNL     1      -1.245  -9.470  -1.665  0.00  0.00    +0.062 S 
ATOM     21  O   UNL     1      -1.485 -10.668  -2.390  0.00  0.00    -0.153 OA
ATOM     22  O   UNL     1      -2.133  -8.996  -0.662  0.00  0.00    -0.153 OA
BRANCH  20  23
ATOM     23  C   UNL     1      -1.098  -8.181  -2.857  0.00  0.00    +0.106 A 
ATOM     24  C   UNL     1      -1.443  -6.886  -2.519  0.00  0.00    +0.031 A 
ATOM     25  C   UNL     1      -1.327  -5.874  -3.453  0.00  0.00    +0.040 A 
ATOM     26  C   UNL     1      -0.865  -6.157  -4.727  0.00  0.00    +0.124 A 
ATOM     27  C   UNL     1      -0.519  -7.455  -5.064  0.00  0.00    +0.040 A 
ATOM     28  C   UNL     1      -0.631  -8.465  -4.127  0.00  0.00    +0.031 A 
ATOM     29  F   UNL     1      -0.752  -5.169  -5.641  0.00  0.00    -0.205 F 
ENDBRANCH  20  23
ENDBRANCH  19  20
ENDBRANCH  12  15
BRANCH  11  30
ATOM     30  C   UNL     1       0.199  -7.244   2.489  0.00  0.00    +0.114 C 
BRANCH  30  31
ATOM     31  C   UNL     1      -1.304  -7.484   2.639  0.00  0.00    +0.001 C 
BRANCH  31  32
ATOM     32  C   UNL     1      -1.589  -8.081   4.019  0.00  0.00    -0.078 C 
BRANCH  32  33
ATOM     33  N   UNL     1      -3.033  -8.312   4.164  0.00  0.00    +0.376 N 
ATOM     34  C   UNL     1      -3.295  -8.994   5.438  0.00  0.00    -0.097 C 
ATOM     35  C   UNL     1      -3.739  -7.024   4.145  0.00  0.00    -0.097 C 
ATOM     36  H   UNL     1      -3.360  -8.886   3.402  0.00  0.00    -0.083 HD
ENDBRANCH  32  33
ENDBRANCH  31  32
ENDBRANCH  30  31
ENDBRANCH  11  30
TORSDOF 7
