REMARK  Name = ZINC27150022
REMARK  9 active torsions:
REMARK  status: ('A' for Active; 'I' for Inactive)
REMARK    1  A    between atoms: C_4  and  N_7
REMARK    2  A    between atoms: C_9  and  C_19
REMARK    3  A    between atoms: C_10  and  C_12
REMARK    4  A    between atoms: C_19  and  N_20
REMARK    5  A    between atoms: C_21  and  C_23
REMARK    6  A    between atoms: C_23  and  C_24
REMARK    7  A    between atoms: C_24  and  C_25
REMARK    8  A    between atoms: C_25  and  C_26
REMARK    9  A    between atoms: C_26  and  C_27
REMARK                            x       y       z     vdW  Elec       q    Type
REMARK                         _______ _______ _______ _____ _____    ______ ____
ROOT
ATOM      1  C   UNL     1       5.377   9.138  -3.403  0.00  0.00    +0.143 C 
ENDROOT
BRANCH   1   4
ATOM      2  N   UNL     1       8.333  11.175  -2.717  0.00  0.00    -0.239 N 
ATOM      3  C   UNL     1       7.015  10.892  -2.546  0.00  0.00    +0.120 A 
ATOM      4  C   UNL     1       6.725   9.803  -3.292  0.00  0.00    +0.015 A 
ATOM      5  C   UNL     1       7.907   9.397  -3.943  0.00  0.00    +0.098 A 
ATOM      6  N   UNL     1       8.869  10.227  -3.598  0.00  0.00    -0.166 NA
BRANCH   5   7
ATOM      7  C   UNL     1       8.042   8.238  -4.859  0.00  0.00    +0.003 A 
ATOM      8  C   UNL     1       7.309   7.075  -4.628  0.00  0.00    +0.013 A 
ATOM      9  C   UNL     1       7.435   6.001  -5.485  0.00  0.00    +0.039 A 
ATOM     10  C   UNL     1       8.296   6.073  -6.567  0.00  0.00    +0.123 A 
ATOM     11  C   UNL     1       9.031   7.225  -6.797  0.00  0.00    +0.039 A 
ATOM     12  C   UNL     1       8.908   8.306  -5.948  0.00  0.00    +0.013 A 
ATOM     13  F   UNL     1       8.420   5.017  -7.401  0.00  0.00    -0.205 F 
ENDBRANCH   5   7
BRANCH   2  17
ATOM     14  C   UNL     1      10.415  14.315  -0.935  0.00  0.00    +0.000 A 
ATOM     15  C   UNL     1      11.072  13.448  -1.788  0.00  0.00    +0.002 A 
ATOM     16  C   UNL     1      10.385  12.406  -2.380  0.00  0.00    +0.028 A 
ATOM     17  C   UNL     1       9.033  12.230  -2.118  0.00  0.00    +0.065 A 
ATOM     18  C   UNL     1       8.374  13.106  -1.264  0.00  0.00    +0.028 A 
ATOM     19  C   UNL     1       9.068  14.142  -0.671  0.00  0.00    +0.002 A 
ENDBRANCH   2  17
ENDBRANCH   1   4
BRANCH   1  20
ATOM     20  N   UNL     1       5.343   7.957  -2.537  0.00  0.00    -0.311 N 
ATOM     21  C   UNL     1       4.230   7.200  -2.474  0.00  0.00    +0.213 C 
ATOM     22  O   UNL     1       3.257   7.496  -3.134  0.00  0.00    -0.276 OA
ATOM     23  H   UNL     1       6.226   7.688  -1.938  0.00  0.00    +0.149 HD
BRANCH  21  24
ATOM     24  C   UNL     1       4.194   5.985  -1.583  0.00  0.00    +0.096 C 
BRANCH  24  25
ATOM     25  C   UNL     1       2.826   5.309  -1.696  0.00  0.00    +0.009 C 
BRANCH  25  26
ATOM     26  C   UNL     1       2.791   4.076  -0.791  0.00  0.00    +0.002 C 
BRANCH  26  27
ATOM     27  C   UNL     1       1.422   3.400  -0.904  0.00  0.00    +0.016 C 
BRANCH  27  28
ATOM     28  C   UNL     1       1.387   2.167   0.001  0.00  0.00    +0.069 C 
ATOM     29  C   UNL     1      -0.019   1.527   0.010  0.00  0.00    +0.108 C 
ATOM     30  C   UNL     1       0.002  -0.004   0.002  0.00  0.00    +0.105 C 
ATOM     31  C   UNL     1       1.424  -0.605  -0.015  0.00  0.00    +0.093 C 
ATOM     32  S   UNL     1       2.405   0.798  -0.704  0.00  0.00    -0.154 S 
ATOM     33  N   UNL     1      -0.687  -0.364  -1.248  0.00  0.00    -0.294 N 
ATOM     34  C   UNL     1      -1.057   0.758  -1.880  0.00  0.00    +0.300 C 
ATOM     35  O   UNL     1      -1.649   0.756  -2.943  0.00  0.00    -0.253 OA
ATOM     36  N   UNL     1      -0.717   1.882  -1.235  0.00  0.00    -0.294 N 
ATOM     37  H   UNL     1      -0.819  -1.422  -1.517  0.00  0.00    +0.151 HD
ATOM     38  H   UNL     1      -0.878   2.939  -1.494  0.00  0.00    +0.151 HD
ENDBRANCH  27  28
ENDBRANCH  26  27
ENDBRANCH  25  26
ENDBRANCH  24  25
ENDBRANCH  21  24
ENDBRANCH   1  20
TORSDOF 9
