REMARK  Name = ZINC38597055
REMARK  5 active torsions:
REMARK  status: ('A' for Active; 'I' for Inactive)
REMARK    1  A    between atoms: C_1  and  C_2
REMARK    2  A    between atoms: C_6  and  N_8
REMARK    3  A    between atoms: C_9  and  C_21
REMARK    4  A    between atoms: C_22  and  C_23
REMARK    5  A    between atoms: C_31  and  C_33
REMARK                            x       y       z     vdW  Elec       q    Type
REMARK                         _______ _______ _______ _____ _____    ______ ____
ROOT
ATOM      1  N   UNL     1       0.050  -2.804   2.416  0.00  0.00    -0.245 N 
ATOM      2  C   UNL     1      -0.034  -4.264   2.374  0.00  0.00    +0.190 C 
ATOM      3  N   UNL     1       0.736  -4.850   3.478  0.00  0.00    -0.322 N 
ATOM      4  C   UNL     1       0.635  -4.278   4.742  0.00  0.00    +0.041 A 
ATOM      5  C   UNL     1       0.806  -5.025   5.895  0.00  0.00    +0.025 A 
ATOM      6  C   UNL     1       0.708  -4.412   7.129  0.00  0.00    +0.016 A 
ATOM      7  C   UNL     1       0.439  -3.054   7.221  0.00  0.00    +0.014 A 
ATOM      8  C   UNL     1       0.261  -2.296   6.082  0.00  0.00    +0.029 A 
ATOM      9  C   UNL     1       0.353  -2.904   4.832  0.00  0.00    +0.059 A 
ATOM     10  C   UNL     1       0.152  -2.144   3.586  0.00  0.00    +0.254 C 
ATOM     11  O   UNL     1       0.076  -0.930   3.615  0.00  0.00    -0.270 OA
ATOM     12  I   UNL     1       0.302  -2.147   9.105  0.00  0.00    -0.044 I 
ATOM     13  H   UNL     1       1.305  -5.621   3.329  0.00  0.00    +0.148 HD
ENDROOT
BRANCH   1  19
ATOM     14  C   UNL     1       2.177  -1.632  -1.858  0.00  0.00    +0.044 C 
ATOM     15  C   UNL     1       1.047  -1.493  -0.871  0.00  0.00    -0.049 A 
ATOM     16  C   UNL     1      -0.013  -0.649  -1.149  0.00  0.00    +0.003 A 
ATOM     17  C   UNL     1      -1.052  -0.519  -0.246  0.00  0.00    +0.002 A 
ATOM     18  C   UNL     1      -1.034  -1.232   0.937  0.00  0.00    +0.023 A 
ATOM     19  C   UNL     1       0.028  -2.081   1.219  0.00  0.00    +0.039 A 
ATOM     20  C   UNL     1       1.068  -2.213   0.307  0.00  0.00    +0.027 A 
ENDBRANCH   1  19
BRANCH   2  21
ATOM     21  C   UNL     1      -1.476  -4.685   2.498  0.00  0.00    +0.015 C 
ATOM     22  C   UNL     1      -2.053  -5.396   1.518  0.00  0.00    +0.005 C 
BRANCH  22  23
ATOM     23  C   UNL     1      -3.429  -5.696   1.582  0.00  0.00    -0.017 C 
ATOM     24  C   UNL     1      -4.153  -6.506   0.716  0.00  0.00    +0.003 A 
ATOM     25  C   UNL     1      -3.785  -7.245  -0.433  0.00  0.00    +0.010 A 
ATOM     26  C   UNL     1      -4.723  -7.963  -1.098  0.00  0.00    +0.001 A 
ATOM     27  C   UNL     1      -6.057  -7.995  -0.678  0.00  0.00    +0.002 A 
ATOM     28  C   UNL     1      -6.481  -7.313   0.412  0.00  0.00    +0.026 A 
ATOM     29  C   UNL     1      -5.558  -6.537   1.162  0.00  0.00    +0.043 A 
ATOM     30  N   UNL     1      -5.714  -5.797   2.239  0.00  0.00    -0.378 N 
ATOM     31  C   UNL     1      -4.424  -5.208   2.612  0.00  0.00    +0.107 C 
ATOM     32  C   UNL     1      -4.514  -3.682   2.576  0.00  0.00    +0.035 C 
ATOM     33  H   UNL     1      -6.550  -5.664   2.712  0.00  0.00    +0.160 HD
ENDBRANCH  22  23
ENDBRANCH   2  21
TORSDOF 3
