REMARK  Name = ZINC39676641
REMARK  8 active torsions:
REMARK  status: ('A' for Active; 'I' for Inactive)
REMARK    1  A    between atoms: C_1  and  C_2
REMARK    2  A    between atoms: C_2  and  C_4
REMARK    3  A    between atoms: C_2  and  N_12
REMARK    4  A    between atoms: C_8  and  O_10
REMARK    5  A    between atoms: O_10  and  C_11
REMARK    6  A    between atoms: C_13  and  C_15
REMARK    7  A    between atoms: C_26  and  C_28
REMARK    8  A    between atoms: C_34  and  C_36
REMARK                            x       y       z     vdW  Elec       q    Type
REMARK                         _______ _______ _______ _____ _____    ______ ____
ROOT
ATOM      1  C   UNL     1      -3.442  -1.177   1.191  0.00  0.00    +0.100 C 
ATOM      2  C   UNL     1      -3.507  -2.570   0.526  0.00  0.00    +0.121 C 
ATOM      3  N   UNL     1      -3.410  -3.528   1.653  0.00  0.00    -0.299 N 
ATOM      4  C   UNL     1      -4.224  -2.915   2.729  0.00  0.00    +0.115 C 
ATOM      5  C   UNL     1      -3.917  -1.407   2.636  0.00  0.00    -0.004 C 
ATOM      6  C   UNL     1      -5.178  -0.593   2.914  0.00  0.00    -0.010 C 
ATOM      7  C   UNL     1      -5.598  -0.792   4.373  0.00  0.00    -0.082 C 
ATOM      8  N   UNL     1      -4.509  -0.364   5.260  0.00  0.00    +0.379 N 
ATOM      9  C   UNL     1      -3.330  -1.213   5.051  0.00  0.00    -0.082 C 
ATOM     10  C   UNL     1      -2.814  -1.032   3.621  0.00  0.00    -0.010 C 
ATOM     11  C   UNL     1      -2.734  -4.693   1.690  0.00  0.00    +0.236 C 
ATOM     12  O   UNL     1      -2.752  -5.372   2.695  0.00  0.00    -0.274 OA
ATOM     13  H   UNL     1      -4.271   0.596   5.059  0.00  0.00    -0.086 HD
ATOM     14  H   UNL     1      -4.810  -0.439   6.220  0.00  0.00    -0.086 HD
ENDROOT
BRANCH  11  15
ATOM     15  C   UNL     1      -1.956  -5.152   0.483  0.00  0.00    +0.162 C 
ATOM     16  C   UNL     1      -2.912  -5.798  -0.542  0.00  0.00    +0.033 C 
ATOM     17  C   UNL     1      -2.079  -6.986  -1.093  0.00  0.00    +0.021 C 
ATOM     18  C   UNL     1      -1.300  -7.432   0.169  0.00  0.00    +0.109 C 
ATOM     19  N   UNL     1      -0.978  -6.176   0.879  0.00  0.00    -0.283 N 
ATOM     20  C   UNL     1       0.040  -5.998   1.744  0.00  0.00    +0.320 C 
ATOM     21  O   UNL     1       0.207  -4.917   2.268  0.00  0.00    -0.266 OA
BRANCH  20  22
ATOM     22  C   UNL     1       0.970  -7.141   2.058  0.00  0.00    +0.470 C 
ATOM     23  F   UNL     1       1.939  -6.715   2.974  0.00  0.00    -0.162 F 
ATOM     24  F   UNL     1       0.240  -8.198   2.611  0.00  0.00    -0.162 F 
ATOM     25  F   UNL     1       1.596  -7.570   0.883  0.00  0.00    -0.162 F 
ENDBRANCH  20  22
ENDBRANCH  11  15
BRANCH   1  27
ATOM     26  N   UNL     1      -1.800   0.673   1.157  0.00  0.00    -0.308 N 
ATOM     27  C   UNL     1      -2.029  -0.655   1.181  0.00  0.00    +0.219 C 
ATOM     28  O   UNL     1      -1.096  -1.431   1.194  0.00  0.00    -0.275 OA
ATOM     29  H   UNL     1      -2.546   1.293   1.147  0.00  0.00    +0.149 HD
BRANCH  26  31
ATOM     30  C   UNL     1       0.097   1.264   2.582  0.00  0.00    +0.033 C 
ATOM     31  C   UNL     1      -0.426   1.180   1.147  0.00  0.00    +0.100 C 
BRANCH  31  32
ATOM     32  C   UNL     1      -0.401   2.551   0.521  0.00  0.00    -0.024 A 
ATOM     33  C   UNL     1      -1.407   3.458   0.804  0.00  0.00    +0.005 A 
ATOM     34  C   UNL     1      -1.387   4.716   0.233  0.00  0.00    +0.004 A 
ATOM     35  C   UNL     1      -0.362   5.071  -0.623  0.00  0.00    +0.045 A 
ATOM     36  C   UNL     1       0.648   4.164  -0.909  0.00  0.00    +0.120 A 
ATOM     37  C   UNL     1       0.629   2.903  -0.329  0.00  0.00    +0.051 A 
BRANCH  36  38
ATOM     38  O   UNL     1       1.657   4.511  -1.750  0.00  0.00    -0.495 OA
ATOM     39  C   UNL     1       1.615   5.826  -2.306  0.00  0.00    +0.277 C 
ENDBRANCH  36  38
ENDBRANCH  31  32
ENDBRANCH  26  31
ENDBRANCH   1  27
TORSDOF 6
