REMARK  Name = ZINC45870380
REMARK  6 active torsions:
REMARK  status: ('A' for Active; 'I' for Inactive)
REMARK    1  A    between atoms: C_9  and  C_18
REMARK    2  A    between atoms: C_18  and  N_19
REMARK    3  A    between atoms: C_20  and  C_22
REMARK    4  A    between atoms: C_25  and  C_28
REMARK    5  A    between atoms: C_28  and  S_29
REMARK    6  A    between atoms: S_29  and  C_30
REMARK                            x       y       z     vdW  Elec       q    Type
REMARK                         _______ _______ _______ _____ _____    ______ ____
ROOT
ATOM      1  N   UNL     1       4.731  -3.403   2.487  0.00  0.00    -0.311 N 
ATOM      2  C   UNL     1       5.685  -4.326   2.723  0.00  0.00    +0.244 C 
ATOM      3  O   UNL     1       6.543  -4.540   1.888  0.00  0.00    -0.270 OA
ATOM      4  H   UNL     1       4.047  -3.233   3.153  0.00  0.00    +0.149 HD
ENDROOT
BRANCH   2   5
ATOM      5  C   UNL     1       5.687  -5.079   3.995  0.00  0.00    +0.037 A 
ATOM      6  C   UNL     1       4.700  -4.841   4.952  0.00  0.00    +0.013 A 
ATOM      7  C   UNL     1       4.708  -5.547   6.137  0.00  0.00    +0.005 A 
ATOM      8  C   UNL     1       5.692  -6.490   6.378  0.00  0.00    -0.037 A 
ATOM      9  C   UNL     1       6.673  -6.731   5.433  0.00  0.00    +0.005 A 
ATOM     10  C   UNL     1       6.673  -6.036   4.241  0.00  0.00    +0.013 A 
BRANCH   8  11
ATOM     11  C   UNL     1       5.694  -7.257   7.675  0.00  0.00    +0.112 C 
BRANCH  11  12
ATOM     12  S   UNL     1       4.713  -8.771   7.484  0.00  0.00    -0.082 S 
BRANCH  12  13
ATOM     13  C   UNL     1       4.813  -9.546   9.063  0.00  0.00    +0.184 A 
ATOM     14  N   UNL     1       5.464  -9.088  10.112  0.00  0.00    -0.209 NA
ATOM     15  H   UNL     1       3.681 -11.281   8.853  0.00  0.00    +0.191 HD
ATOM     16  C   UNL     1       5.321  -9.933  11.133  0.00  0.00    +0.245 A 
ATOM     17  N   UNL     1       4.580 -10.940  10.756  0.00  0.00    -0.160 NA
ATOM     18  N   UNL     1       4.230 -10.712   9.415  0.00  0.00    -0.254 N 
ENDBRANCH  12  13
ENDBRANCH  11  12
ENDBRANCH   8  11
ENDBRANCH   2   5
BRANCH   1  19
ATOM     19  C   UNL     1       4.729  -2.657   1.227  0.00  0.00    +0.109 C 
BRANCH  19  28
ATOM     20  C   UNL     1      -0.017   1.385   0.010  0.00  0.00    +0.000 A 
ATOM     21  C   UNL     1       1.165   2.102   0.002  0.00  0.00    +0.000 A 
ATOM     22  C   UNL     1       2.388   1.442  -0.013  0.00  0.00    +0.004 A 
ATOM     23  C   UNL     1       2.399   0.077  -0.021  0.00  0.00    -0.036 A 
ATOM     24  C   UNL     1       1.207  -0.646  -0.013  0.00  0.00    -0.036 A 
ATOM     25  C   UNL     1       0.002  -0.004   0.002  0.00  0.00    +0.004 A 
ATOM     26  C   UNL     1       1.389  -2.155  -0.024  0.00  0.00    +0.050 C 
ATOM     27  C   UNL     1       2.245  -2.473   1.222  0.00  0.00    +0.018 C 
ATOM     28  C   UNL     1       3.551  -1.681   1.214  0.00  0.00    +0.019 C 
ATOM     29  C   UNL     1       3.654  -0.782  -0.039  0.00  0.00    +0.054 C 
ATOM     30  C   UNL     1       3.480  -1.720  -1.223  0.00  0.00    -0.036 A 
ATOM     31  C   UNL     1       2.289  -2.442  -1.215  0.00  0.00    -0.036 A 
ATOM     32  C   UNL     1       1.999  -3.322  -2.218  0.00  0.00    +0.004 A 
ATOM     33  C   UNL     1       2.915  -3.486  -3.250  0.00  0.00    +0.000 A 
ATOM     34  C   UNL     1       4.097  -2.769  -3.258  0.00  0.00    +0.000 A 
ATOM     35  C   UNL     1       4.385  -1.876  -2.234  0.00  0.00    +0.004 A 
ENDBRANCH  19  28
ENDBRANCH   1  19
TORSDOF 6
