REMARK  Name = ZINC64502917
REMARK  4 active torsions:
REMARK  status: ('A' for Active; 'I' for Inactive)
REMARK    1  A    between atoms: C_1  and  C_2
REMARK    2  A    between atoms: C_5  and  N_8
REMARK    3  A    between atoms: C_13  and  N_16
REMARK    4  A    between atoms: C_23  and  C_25
REMARK                            x       y       z     vdW  Elec       q    Type
REMARK                         _______ _______ _______ _____ _____    ______ ____
ROOT
ATOM      1  N   UNL     1      -0.074  -7.682   2.988  0.00  0.00    -0.281 NA
ATOM      2  C   UNL     1      -0.045  -6.954   4.255  0.00  0.00    +0.088 C 
ATOM      3  C   UNL     1      -0.375  -7.908   5.382  0.00  0.00    +0.034 C 
ATOM      4  C   UNL     1       0.924  -8.500   5.954  0.00  0.00    +0.109 C 
ATOM      5  N   UNL     1       1.889  -8.813   4.881  0.00  0.00    -0.298 N 
ATOM      6  C   UNL     1       1.490  -9.424   3.629  0.00  0.00    +0.123 C 
ATOM      7  C   UNL     1       1.127  -8.323   2.604  0.00  0.00    +0.105 C 
ATOM      8  C   UNL     1       3.190  -8.520   5.074  0.00  0.00    +0.242 C 
ATOM      9  O   UNL     1       3.987  -8.680   4.174  0.00  0.00    -0.273 OA
ENDROOT
BRANCH   8  10
ATOM     10  C   UNL     1       3.655  -7.992   6.407  0.00  0.00    +0.190 C 
ATOM     11  C   UNL     1       3.500  -6.489   6.456  0.00  0.00    +0.016 C 
ATOM     12  C   UNL     1       4.743  -5.990   6.642  0.00  0.00    -0.004 A 
ATOM     13  C   UNL     1       5.256  -4.621   6.772  0.00  0.00    +0.010 A 
ATOM     14  C   UNL     1       6.582  -4.431   6.955  0.00  0.00    +0.001 A 
ATOM     15  C   UNL     1       7.478  -5.508   7.023  0.00  0.00    +0.002 A 
ATOM     16  C   UNL     1       7.082  -6.794   6.912  0.00  0.00    +0.026 A 
ATOM     17  C   UNL     1       5.709  -7.109   6.718  0.00  0.00    +0.043 A 
ATOM     18  N   UNL     1       5.087  -8.257   6.584  0.00  0.00    -0.370 N 
ATOM     19  H   UNL     1       5.503  -9.133   6.599  0.00  0.00    +0.161 HD
ENDBRANCH   8  10
BRANCH   1  25
ATOM     20  N   UNL     1      -2.431  -5.481   1.351  0.00  0.00    -0.200 N 
ATOM     21  C   UNL     1      -2.478  -5.984   0.101  0.00  0.00    +0.257 C 
ATOM     22  O   UNL     1      -3.067  -5.391  -0.783  0.00  0.00    -0.269 OA
ATOM     23  C   UNL     1      -1.802  -7.267  -0.177  0.00  0.00    +0.068 C 
ATOM     24  C   UNL     1      -0.883  -7.687   0.697  0.00  0.00    +0.014 C 
ATOM     25  C   UNL     1      -0.588  -6.833   1.905  0.00  0.00    +0.166 C 
ATOM     26  N   UNL     1      -1.805  -6.159   2.353  0.00  0.00    -0.212 NA
ATOM     27  H   UNL     1      -2.434  -6.811   2.796  0.00  0.00    +0.147 HD
BRANCH  20  32
ATOM     28  C   UNL     1      -4.851  -0.468   2.443  0.00  0.00    +0.044 C 
ATOM     29  C   UNL     1      -4.208  -1.800   2.153  0.00  0.00    -0.050 A 
ATOM     30  C   UNL     1      -3.360  -1.935   1.069  0.00  0.00    +0.005 A 
ATOM     31  C   UNL     1      -2.769  -3.154   0.800  0.00  0.00    +0.025 A 
ATOM     32  C   UNL     1      -3.027  -4.245   1.620  0.00  0.00    +0.053 A 
ATOM     33  C   UNL     1      -3.879  -4.106   2.708  0.00  0.00    +0.025 A 
ATOM     34  C   UNL     1      -4.463  -2.883   2.975  0.00  0.00    +0.005 A 
ENDBRANCH  20  32
ENDBRANCH   1  25
TORSDOF 3
