REMARK  Name = ZINC44870312
REMARK  6 active torsions:
REMARK  status: ('A' for Active; 'I' for Inactive)
REMARK    1  A    between atoms: C_1  and  C_2
REMARK    2  A    between atoms: C_2  and  C_4
REMARK    3  A    between atoms: C_2  and  C_8
REMARK    4  A    between atoms: N_5  and  O_6
REMARK    5  A    between atoms: N_10  and  C_11
REMARK    6  A    between atoms: C_16  and  C_17
REMARK                            x       y       z     vdW  Elec       q    Type
REMARK                         _______ _______ _______ _____ _____    ______ ____
ROOT
ATOM      1  C   UNL     1       0.730  -0.500   1.224  0.00  0.00    +0.227 C 
ATOM      2  O   UNL     1       0.159  -1.215   2.021  0.00  0.00    -0.275 OA
ATOM      3  N   UNL     1       2.019  -0.161   1.426  0.00  0.00    -0.284 N 
ATOM      4  H   UNL     1       2.499   0.343   0.750  0.00  0.00    +0.155 HD
ENDROOT
BRANCH   3   5
ATOM      5  C   UNL     1       2.664  -0.537   2.609  0.00  0.00    +0.045 A 
ATOM      6  C   UNL     1       1.924  -0.778   3.759  0.00  0.00    +0.025 A 
ATOM      7  C   UNL     1       2.564  -1.149   4.926  0.00  0.00    +0.017 A 
ATOM      8  C   UNL     1       3.941  -1.280   4.949  0.00  0.00    +0.019 A 
ATOM      9  C   UNL     1       4.681  -1.040   3.805  0.00  0.00    +0.029 A 
ATOM     10  C   UNL     1       4.046  -0.674   2.634  0.00  0.00    +0.077 A 
ATOM     11 BR   UNL     1       4.814  -1.787   6.548  0.00  0.00    -0.050 Br
BRANCH  10  12
ATOM     12  C   UNL     1       4.852  -0.419   1.387  0.00  0.00    +0.419 C 
ATOM     13  F   UNL     1       6.209  -0.620   1.660  0.00  0.00    -0.166 F 
ATOM     14  F   UNL     1       4.443  -1.300   0.380  0.00  0.00    -0.166 F 
ATOM     15  F   UNL     1       4.652   0.899   0.964  0.00  0.00    -0.166 F 
ENDBRANCH  10  12
ENDBRANCH   3   5
BRANCH   1  17
ATOM     16  C   UNL     1      -0.021   1.538   0.029  0.00  0.00    +0.025 C 
ATOM     17  C   UNL     1      -0.002   0.009   0.009  0.00  0.00    +0.138 C 
BRANCH  17  18
ATOM     18  C   UNL     1      -1.417  -0.511   0.021  0.00  0.00    +0.143 C 
ATOM     19  N   UNL     1      -2.367   0.211   0.515  0.00  0.00    -0.076 NA
ATOM     20  N   UNL     1      -1.696  -1.757  -0.496  0.00  0.00    -0.343 N 
ATOM     21  H   UNL     1      -0.983  -2.300  -0.867  0.00  0.00    +0.144 HD
ATOM     22  H   UNL     1      -2.607  -2.092  -0.489  0.00  0.00    +0.144 HD
BRANCH  19  23
ATOM     23  O   UNL     1      -3.696  -0.278   0.525  0.00  0.00    -0.408 OA
ATOM     24  H   UNL     1      -4.336   0.333   0.915  0.00  0.00    +0.328 HD
ENDBRANCH  19  23
ENDBRANCH  17  18
ENDBRANCH   1  17
TORSDOF 5
