REMARK  Name = ZINC08493270
REMARK  5 active torsions:
REMARK  status: ('A' for Active; 'I' for Inactive)
REMARK    1  A    between atoms: C_4  and  O_7
REMARK    2  A    between atoms: O_7  and  C_8
REMARK    3  A    between atoms: C_8  and  C_9
REMARK    4  A    between atoms: C_15  and  C_16
REMARK    5  A    between atoms: C_19  and  C_21
REMARK                            x       y       z     vdW  Elec       q    Type
REMARK                         _______ _______ _______ _____ _____    ______ ____
ROOT
ATOM      1  C   UNL     1      -2.713   4.021  -2.666  0.00  0.00    +0.137 C 
ATOM      2  N   UNL     1      -3.736   3.381  -2.175  0.00  0.00    -0.166 NA
ATOM      3  N   UNL     1      -4.795   4.055  -1.605  0.00  0.00    -0.152 N 
ATOM      4  C   UNL     1      -5.910   3.456  -0.981  0.00  0.00    +0.153 C 
ATOM      5  N   UNL     1      -5.904   2.230  -0.525  0.00  0.00    -0.283 NA
ATOM      6  C   UNL     1      -7.093   4.352  -0.890  0.00  0.00    +0.084 C 
ATOM      7  C   UNL     1      -8.389   3.861  -0.955  0.00  0.00    +0.063 C 
ATOM      8  C   UNL     1      -6.815   5.798  -0.726  0.00  0.00    +0.273 C 
ATOM      9  O   UNL     1      -7.620   6.535  -0.180  0.00  0.00    -0.268 OA
ATOM     10  N   UNL     1      -5.646   6.274  -1.200  0.00  0.00    -0.152 NA
ATOM     11  C   UNL     1      -4.744   5.432  -1.637  0.00  0.00    +0.181 C 
ATOM     12  S   UNL     1      -3.167   5.728  -2.391  0.00  0.00    -0.035 S 
ATOM     13  H   UNL     1      -6.803   1.816  -0.046  0.00  0.00    +0.188 HD
ENDROOT
BRANCH   7  14
ATOM     14  C   UNL     1      -9.450   4.720  -1.282  0.00  0.00    +0.129 A 
ATOM     15  C   UNL     1     -10.799   4.396  -1.252  0.00  0.00    +0.050 A 
ATOM     16  C   UNL     1     -11.497   5.536  -1.648  0.00  0.00    +0.050 A 
ATOM     17  C   UNL     1     -10.559   6.514  -1.905  0.00  0.00    +0.136 A 
ATOM     18  O   UNL     1      -9.336   6.007  -1.675  0.00  0.00    -0.455 OA
BRANCH  17  19
ATOM     19  C   UNL     1     -10.851   7.889  -2.353  0.00  0.00    +0.020 A 
ATOM     20  C   UNL     1     -12.172   8.295  -2.558  0.00  0.00    +0.031 A 
ATOM     21  C   UNL     1     -12.438   9.585  -2.972  0.00  0.00    +0.043 A 
ATOM     22  C   UNL     1     -11.399  10.472  -3.196  0.00  0.00    +0.040 A 
ATOM     23  C   UNL     1     -10.087  10.074  -3.000  0.00  0.00    +0.043 A 
ATOM     24  C   UNL     1      -9.807   8.789  -2.581  0.00  0.00    +0.031 A 
ATOM     25 CL   UNL     1      -8.791  11.194  -3.284  0.00  0.00    -0.083 Cl
ATOM     26 CL   UNL     1     -14.079  10.094  -3.220  0.00  0.00    -0.083 Cl
ENDBRANCH  17  19
ENDBRANCH   7  14
BRANCH   1  27
ATOM     27  C   UNL     1      -1.468   3.465  -3.307  0.00  0.00    +0.293 C 
BRANCH  27  28
ATOM     28  O   UNL     1      -1.534   2.037  -3.314  0.00  0.00    -0.485 OA
BRANCH  28  32
ATOM     29  C   UNL     1       1.656   0.025  -4.986  0.00  0.00    +0.000 A 
ATOM     30  C   UNL     1       0.590  -0.684  -4.463  0.00  0.00    +0.004 A 
ATOM     31  C   UNL     1      -0.478  -0.013  -3.901  0.00  0.00    +0.045 A 
ATOM     32  C   UNL     1      -0.481   1.374  -3.861  0.00  0.00    +0.121 A 
ATOM     33  C   UNL     1       0.589   2.083  -4.387  0.00  0.00    +0.045 A 
ATOM     34  C   UNL     1       1.655   1.407  -4.948  0.00  0.00    +0.004 A 
ENDBRANCH  28  32
ENDBRANCH  27  28
ENDBRANCH   1  27
TORSDOF 5
