REMARK  Name = ZINC24840159
REMARK  9 active torsions:
REMARK  status: ('A' for Active; 'I' for Inactive)
REMARK    1  A    between atoms: C_1  and  C_2
REMARK    2  A    between atoms: C_2  and  C_4
REMARK    3  A    between atoms: C_2  and  O_23
REMARK    4  A    between atoms: C_4  and  O_6
REMARK    5  A    between atoms: O_6  and  C_7
REMARK    6  A    between atoms: C_7  and  C_8
REMARK    7  A    between atoms: C_10  and  O_11
REMARK    8  A    between atoms: C_20  and  C_22
REMARK    9  A    between atoms: O_23  and  C_24
REMARK                            x       y       z     vdW  Elec       q    Type
REMARK                         _______ _______ _______ _____ _____    ______ ____
ROOT
ATOM      1  C   UNL     1      -0.263  -6.274  -0.944  0.00  0.00    +0.007 A 
ATOM      2  C   UNL     1      -0.283  -6.941  -2.128  0.00  0.00    +0.095 A 
ATOM      3  C   UNL     1      -0.213  -6.222  -3.339  0.00  0.00    +0.285 A 
ATOM      4  O   UNL     1      -0.127  -4.883  -3.360  0.00  0.00    -0.425 OA
ATOM      5  C   UNL     1      -0.102  -4.160  -2.220  0.00  0.00    +0.141 A 
ATOM      6  C   UNL     1      -0.169  -4.813  -0.974  0.00  0.00    +0.024 A 
ATOM      7  C   UNL     1      -0.144  -4.068   0.210  0.00  0.00    +0.014 A 
ATOM      8  C   UNL     1      -0.051  -2.708   0.155  0.00  0.00    +0.024 A 
ATOM      9  C   UNL     1       0.009  -2.054  -1.076  0.00  0.00    +0.037 A 
ATOM     10  C   UNL     1      -0.013  -2.777  -2.259  0.00  0.00    +0.070 A 
ATOM     11  N   UNL     1       0.099  -0.662  -1.116  0.00  0.00    -0.286 N 
ATOM     12  C   UNL     1      -0.515   0.024  -2.100  0.00  0.00    +0.214 C 
ATOM     13  O   UNL     1      -1.081  -0.571  -2.993  0.00  0.00    -0.276 OA
ATOM     14  C   UNL     1      -0.497   1.531  -2.092  0.00  0.00    +0.109 C 
ATOM     15  H   UNL     1       0.671  -0.125  -0.345  0.00  0.00    +0.155 HD
ENDROOT
BRANCH   3  16
ATOM     16  O   UNL     1      -0.232  -6.832  -4.393  0.00  0.00    -0.480 OA
ATOM     17  H   UNL     1      -0.178  -6.285  -5.346  0.00  0.00    +0.295 HD
ENDBRANCH   3  16
BRANCH   1  18
ATOM     18  C   UNL     1      -0.337  -7.018   0.364  0.00  0.00    +0.268 C 
BRANCH  18  19
ATOM     19  O   UNL     1      -0.425  -8.444   0.106  0.00  0.00    -0.457 OA
BRANCH  19  20
ATOM     20  C   UNL     1      -0.498  -9.254   1.175  0.00  0.00    +0.348 C 
ATOM     21  O   UNL     1      -0.490  -8.786   2.289  0.00  0.00    -0.247 OA
BRANCH  20  23
ATOM     22  C   UNL     1       0.699 -11.259   0.341  0.00  0.00    +0.064 C 
ATOM     23  C   UNL     1      -0.591 -10.746   0.985  0.00  0.00    +0.278 C 
BRANCH  23  24
ATOM     24  O   UNL     1      -0.775 -11.377   2.253  0.00  0.00    -0.478 OA
BRANCH  24  25
ATOM     25  C   UNL     1      -1.366 -12.601   2.254  0.00  0.00    +0.122 A 
ATOM     26  C   UNL     1      -1.850 -13.138   1.070  0.00  0.00    +0.047 A 
ATOM     27  C   UNL     1      -2.446 -14.385   1.072  0.00  0.00    +0.019 A 
ATOM     28  C   UNL     1      -2.570 -15.092   2.255  0.00  0.00    +0.018 A 
ATOM     29  C   UNL     1      -2.093 -14.554   3.437  0.00  0.00    +0.019 A 
ATOM     30  C   UNL     1      -1.492 -13.311   3.439  0.00  0.00    +0.047 A 
ATOM     31 BR   UNL     1      -3.392 -16.795   2.255  0.00  0.00    -0.050 Br
ENDBRANCH  24  25
ENDBRANCH  23  24
ENDBRANCH  20  23
ENDBRANCH  19  20
ENDBRANCH  18  19
ENDBRANCH   1  18
TORSDOF 7
