REMARK  Name = ZINC58092206
REMARK  8 active torsions:
REMARK  status: ('A' for Active; 'I' for Inactive)
REMARK    1  A    between atoms: C_1  and  C_2
REMARK    2  A    between atoms: C_4  and  C_14
REMARK    3  A    between atoms: C_8  and  C_12
REMARK    4  A    between atoms: C_8  and  C_13
REMARK    5  A    between atoms: C_14  and  C_16
REMARK    6  A    between atoms: C_14  and  N_24
REMARK    7  A    between atoms: C_19  and  O_22
REMARK    8  A    between atoms: O_22  and  C_23
REMARK                            x       y       z     vdW  Elec       q    Type
REMARK                         _______ _______ _______ _____ _____    ______ ____
ROOT
ATOM      1  C   UNL     1      -0.018   1.503   0.010  0.00  0.00    +0.044 C 
ATOM      2  C   UNL     1       0.002  -0.004   0.002  0.00  0.00    -0.050 A 
ATOM      3  C   UNL     1       0.006  -0.691  -1.198  0.00  0.00    +0.007 A 
ATOM      4  C   UNL     1       0.025  -2.070  -1.213  0.00  0.00    -0.036 A 
ATOM      5  C   UNL     1       0.040  -2.782  -0.015  0.00  0.00    +0.039 A 
ATOM      6  C   UNL     1       0.037  -2.081   1.184  0.00  0.00    -0.011 A 
ATOM      7  C   UNL     1       0.023  -0.704   1.196  0.00  0.00    +0.009 A 
ATOM      8  C   UNL     1       0.056  -3.118   2.283  0.00  0.00    +0.068 C 
ATOM      9  C   UNL     1       0.071  -4.439   1.543  0.00  0.00    +0.227 C 
ATOM     10  O   UNL     1       0.088  -5.544   2.042  0.00  0.00    -0.275 OA
ATOM     11  N   UNL     1       0.060  -4.156   0.229  0.00  0.00    -0.284 N 
ATOM     12  C   UNL     1       1.316  -2.969   3.138  0.00  0.00    +0.025 C 
ATOM     13  C   UNL     1      -1.198  -3.003   3.151  0.00  0.00    +0.025 C 
ATOM     14  H   UNL     1       0.066  -4.829  -0.469  0.00  0.00    +0.155 HD
ENDROOT
BRANCH   4  15
ATOM     15  C   UNL     1       0.028  -2.808  -2.527  0.00  0.00    -0.011 C 
BRANCH  15  16
ATOM     16  C   UNL     1       1.431  -3.250  -2.852  0.00  0.00    -0.057 A 
ATOM     17  C   UNL     1       2.332  -2.349  -3.389  0.00  0.00    +0.006 A 
ATOM     18  C   UNL     1       3.619  -2.752  -3.688  0.00  0.00    +0.046 A 
ATOM     19  C   UNL     1       4.008  -4.062  -3.448  0.00  0.00    +0.120 A 
ATOM     20  C   UNL     1       3.102  -4.964  -2.908  0.00  0.00    +0.046 A 
ATOM     21  C   UNL     1       1.818  -4.555  -2.606  0.00  0.00    +0.006 A 
BRANCH  19  22
ATOM     22  O   UNL     1       5.273  -4.461  -3.741  0.00  0.00    -0.495 OA
ATOM     23  C   UNL     1       5.604  -5.824  -3.468  0.00  0.00    +0.277 C 
ENDBRANCH  19  22
ENDBRANCH  15  16
BRANCH  15  24
ATOM     24  N   UNL     1      -0.464  -1.920  -3.589  0.00  0.00    +0.385 N 
ATOM     25  H   UNL     1      -1.404  -1.624  -3.371  0.00  0.00    -0.089 HD
ATOM     26  H   UNL     1       0.136  -1.112  -3.656  0.00  0.00    -0.089 HD
ATOM     27  H   UNL     1      -0.462  -2.414  -4.468  0.00  0.00    -0.089 HD
ENDBRANCH  15  24
ENDBRANCH   4  15
TORSDOF 4
