REMARK  Name = ZINC01984269
REMARK  9 active torsions:
REMARK  status: ('A' for Active; 'I' for Inactive)
REMARK    1  A    between atoms: C_1  and  C_2
REMARK    2  A    between atoms: C_2  and  C_3
REMARK    3  A    between atoms: C_3  and  C_4
REMARK    4  A    between atoms: C_7  and  O_11
REMARK    5  A    between atoms: O_11  and  C_12
REMARK    6  A    between atoms: C_12  and  C_13
REMARK    7  A    between atoms: N_15  and  C_16
REMARK    8  A    between atoms: C_17  and  C_27
REMARK    9  A    between atoms: C_22  and  C_26
REMARK                            x       y       z     vdW  Elec       q    Type
REMARK                         _______ _______ _______ _____ _____    ______ ____
ROOT
ATOM      1  C   UNL     1       1.762  -8.262  -0.767  0.00  0.00    +0.255 C 
ATOM      2  O   UNL     1       0.795  -8.736  -1.326  0.00  0.00    -0.272 OA
ATOM      3  N   UNL     1       2.702  -9.073  -0.243  0.00  0.00    -0.277 N 
ATOM      4  H   UNL     1       3.475  -8.694   0.204  0.00  0.00    +0.155 HD
ENDROOT
BRANCH   3   5
ATOM      5  C   UNL     1       2.564 -10.449  -0.341  0.00  0.00    +0.084 A 
ATOM      6  C   UNL     1       3.419 -11.428   0.140  0.00  0.00    +0.068 A 
ATOM      7  C   UNL     1       3.045 -12.811  -0.095  0.00  0.00    -0.023 A 
ATOM      8  C   UNL     1       1.883 -12.963  -0.768  0.00  0.00    -0.004 A 
ATOM      9  S   UNL     1       1.318 -11.313  -1.063  0.00  0.00    -0.077 S 
ATOM     10  C   UNL     1       1.234 -14.253  -1.162  0.00  0.00    +0.046 C 
ATOM     11  C   UNL     1       2.270 -15.378  -1.020  0.00  0.00    -0.009 C 
ATOM     12  C   UNL     1       2.955 -15.251   0.344  0.00  0.00    +0.008 C 
ATOM     13  C   UNL     1       3.857 -14.015   0.360  0.00  0.00    +0.037 C 
ATOM     14  C   UNL     1       1.570 -16.735  -1.120  0.00  0.00    +0.008 C 
BRANCH   6  15
ATOM     15  C   UNL     1       4.651 -11.081   0.856  0.00  0.00    +0.244 C 
ATOM     16  O   UNL     1       4.636 -10.950   2.066  0.00  0.00    -0.270 OA
ATOM     17  N   UNL     1       5.801 -10.908   0.173  0.00  0.00    -0.325 N 
ATOM     18  H   UNL     1       5.813 -11.013  -0.791  0.00  0.00    +0.145 HD
ATOM     19  H   UNL     1       6.616 -10.679   0.647  0.00  0.00    +0.145 HD
ENDBRANCH   6  15
ENDBRANCH   3   5
BRANCH   1  20
ATOM     20  C   UNL     1       1.912  -6.767  -0.661  0.00  0.00    +0.325 C 
BRANCH  20  21
ATOM     21  O   UNL     1       0.797  -6.130  -1.288  0.00  0.00    -0.482 OA
BRANCH  21  25
ATOM     22  C   UNL     1       0.739  -2.004  -1.265  0.00  0.00    -0.046 A 
ATOM     23  C   UNL     1       1.788  -2.684  -0.675  0.00  0.00    +0.007 A 
ATOM     24  C   UNL     1       1.810  -4.065  -0.681  0.00  0.00    +0.047 A 
ATOM     25  C   UNL     1       0.777  -4.771  -1.280  0.00  0.00    +0.135 A 
ATOM     26  C   UNL     1      -0.276  -4.087  -1.872  0.00  0.00    +0.060 A 
ATOM     27  C   UNL     1      -0.295  -2.705  -1.858  0.00  0.00    +0.022 A 
ATOM     28 BR   UNL     1      -1.685  -5.046  -2.690  0.00  0.00    -0.047 Br
BRANCH  22  29
ATOM     29  C   UNL     1       0.718  -0.497  -1.257  0.00  0.00    +0.035 C 
BRANCH  29  31
ATOM     30  C   UNL     1      -0.019   1.526   0.010  0.00  0.00    +0.004 C 
ATOM     31  C   UNL     1       0.002  -0.004   0.002  0.00  0.00    +0.001 C 
ENDBRANCH  29  31
ENDBRANCH  22  29
ENDBRANCH  21  25
ENDBRANCH  20  21
ENDBRANCH   1  20
TORSDOF 7
