REMARK  Name = ZINC15032151
REMARK  11 active torsions:
REMARK  status: ('A' for Active; 'I' for Inactive)
REMARK    1  A    between atoms: C_1  and  C_2
REMARK    2  A    between atoms: C_2  and  C_4
REMARK    3  A    between atoms: C_2  and  N_65
REMARK    4  A    between atoms: N_6  and  C_7
REMARK    5  A    between atoms: C_7  and  C_8
REMARK    6  A    between atoms: C_8  and  C_9
REMARK    7  A    between atoms: C_12  and  S_15
REMARK    8  A    between atoms: S_15  and  N_18
REMARK    9  A    between atoms: C_21  and  C_24
REMARK   10  A    between atoms: N_26  and  C_27
REMARK   11  A    between atoms: C_27  and  C_28
REMARK                            x       y       z     vdW  Elec       q    Type
REMARK                         _______ _______ _______ _____ _____    ______ ____
ROOT
ATOM      1  C   UNL     1       5.516  -4.914  -6.720  0.00  0.00    -0.004 C 
ATOM      2  C   UNL     1       6.793  -4.085  -6.572  0.00  0.00    +0.016 C 
ENDROOT
BRANCH   2   8
ATOM      3  C   UNL     1       7.887  -2.403  -5.218  0.00  0.00    -0.077 C 
ATOM      4  C   UNL     1       7.835  -1.676  -3.873  0.00  0.00    -0.006 C 
ATOM      5  C   UNL     1       6.555  -0.840  -3.799  0.00  0.00    +0.071 C 
ATOM      6  C   UNL     1       5.343  -1.755  -3.994  0.00  0.00    -0.006 C 
ATOM      7  C   UNL     1       5.468  -2.481  -5.335  0.00  0.00    -0.077 C 
ATOM      8  N   UNL     1       6.708  -3.287  -5.332  0.00  0.00    +0.387 N 
ATOM      9  H   UNL     1       6.689  -3.923  -4.527  0.00  0.00    -0.081 HD
BRANCH   5  10
ATOM     10  C   UNL     1       6.468  -0.168  -2.453  0.00  0.00    +0.216 C 
ATOM     11  O   UNL     1       7.345  -0.339  -1.633  0.00  0.00    -0.276 OA
ATOM     12  N   UNL     1       5.416   0.622  -2.160  0.00  0.00    -0.311 N 
ATOM     13  H   UNL     1       4.715   0.759  -2.817  0.00  0.00    +0.149 HD
BRANCH  12  14
ATOM     14  C   UNL     1       5.332   1.275  -0.852  0.00  0.00    +0.139 C 
BRANCH  14  15
ATOM     15  C   UNL     1       4.070   2.095  -0.780  0.00  0.00    -0.030 A 
ATOM     16  C   UNL     1       2.900   1.524  -0.313  0.00  0.00    +0.005 A 
ATOM     17  C   UNL     1       1.742   2.277  -0.247  0.00  0.00    +0.000 A 
ATOM     18  C   UNL     1       1.754   3.600  -0.648  0.00  0.00    +0.000 A 
ATOM     19  C   UNL     1       2.924   4.170  -1.115  0.00  0.00    +0.000 A 
ATOM     20  C   UNL     1       4.081   3.418  -1.181  0.00  0.00    +0.005 A 
ENDBRANCH  14  15
ENDBRANCH  12  14
ENDBRANCH   5  10
ENDBRANCH   2   8
BRANCH   2  21
ATOM     21  C   UNL     1       7.981  -5.008  -6.476  0.00  0.00    +0.199 C 
ATOM     22  O   UNL     1       8.386  -5.363  -5.389  0.00  0.00    -0.278 OA
ATOM     23  N   UNL     1       8.594  -5.437  -7.597  0.00  0.00    -0.316 N 
ATOM     24  H   UNL     1       8.270  -5.153  -8.466  0.00  0.00    +0.149 HD
BRANCH  23  25
ATOM     25  C   UNL     1       9.749  -6.334  -7.503  0.00  0.00    +0.109 C 
BRANCH  25  26
ATOM     26  C   UNL     1      10.251  -6.667  -8.909  0.00  0.00    +0.054 C 
BRANCH  26  27
ATOM     27  C   UNL     1      11.439  -7.589  -8.813  0.00  0.00    -0.046 A 
ATOM     28  C   UNL     1      12.716  -7.066  -8.737  0.00  0.00    +0.005 A 
ATOM     29  C   UNL     1      13.806  -7.911  -8.644  0.00  0.00    +0.029 A 
ATOM     30  C   UNL     1      13.619  -9.281  -8.636  0.00  0.00    +0.105 A 
ATOM     31  C   UNL     1      12.342  -9.805  -8.717  0.00  0.00    +0.029 A 
ATOM     32  C   UNL     1      11.252  -8.959  -8.805  0.00  0.00    +0.005 A 
BRANCH  30  33
ATOM     33  S   UNL     1      15.008 -10.359  -8.522  0.00  0.00    +0.056 S 
ATOM     34  O   UNL     1      16.051  -9.614  -7.909  0.00  0.00    -0.153 OA
ATOM     35  O   UNL     1      14.528 -11.584  -7.984  0.00  0.00    -0.153 OA
BRANCH  33  36
ATOM     36  N   UNL     1      15.504 -10.684 -10.068  0.00  0.00    -0.204 NA
ATOM     37  H   UNL     1      15.034 -10.292 -10.821  0.00  0.00    +0.144 HD
ATOM     38  H   UNL     1      16.264 -11.266 -10.221  0.00  0.00    +0.144 HD
ENDBRANCH  33  36
ENDBRANCH  30  33
ENDBRANCH  26  27
ENDBRANCH  25  26
ENDBRANCH  23  25
ENDBRANCH   2  21
TORSDOF 10
