REMARK  Name = ZINC19868240
REMARK  2 active torsions:
REMARK  status: ('A' for Active; 'I' for Inactive)
REMARK    1  A    between atoms: N_10  and  C_11
REMARK    2  A    between atoms: C_16  and  N_17
REMARK                            x       y       z     vdW  Elec       q    Type
REMARK                         _______ _______ _______ _____ _____    ______ ____
ROOT
ATOM      1  C   UNL     1      -0.017   1.377   0.010  0.00  0.00    +0.000 A 
ATOM      2  C   UNL     1       1.170   2.088   0.002  0.00  0.00    +0.002 A 
ATOM      3  C   UNL     1       2.375   1.416  -0.015  0.00  0.00    +0.024 A 
ATOM      4  C   UNL     1       2.396   0.026  -0.024  0.00  0.00    +0.037 A 
ATOM      5  C   UNL     1       1.207  -0.687  -0.013  0.00  0.00    -0.026 A 
ATOM      6  C   UNL     1       0.002  -0.004   0.002  0.00  0.00    +0.005 A 
ATOM      7  C   UNL     1       1.192  -2.192  -0.011  0.00  0.00    +0.038 C 
ATOM      8  C   UNL     1       2.521  -2.742  -0.527  0.00  0.00    +0.024 C 
ATOM      9  C   UNL     1       3.667  -2.076   0.246  0.00  0.00    +0.111 C 
ATOM     10  N   UNL     1       3.629  -0.637  -0.046  0.00  0.00    -0.298 N 
ENDROOT
BRANCH  10  11
ATOM     11  C   UNL     1       4.807   0.062  -0.342  0.00  0.00    +0.055 A 
ATOM     12  C   UNL     1       5.545   0.644   0.678  0.00  0.00    +0.028 A 
ATOM     13  C   UNL     1       6.708   1.332   0.384  0.00  0.00    +0.040 A 
ATOM     14  C   UNL     1       7.139   1.442  -0.927  0.00  0.00    +0.125 A 
ATOM     15  C   UNL     1       6.408   0.865  -1.950  0.00  0.00    +0.063 A 
ATOM     16  C   UNL     1       5.244   0.168  -1.662  0.00  0.00    +0.049 A 
ATOM     17  F   UNL     1       8.275   2.116  -1.208  0.00  0.00    -0.205 F 
BRANCH  16  18
ATOM     18  N   UNL     1       4.506  -0.423  -2.695  0.00  0.00    -0.356 N 
ATOM     19  H   UNL     1       3.689  -0.906  -2.492  0.00  0.00    +0.142 HD
ATOM     20  H   UNL     1       4.810  -0.348  -3.613  0.00  0.00    +0.142 HD
ENDBRANCH  16  18
ENDBRANCH  10  11
TORSDOF 2
