REMARK  Name = ZINC63844204
REMARK  7 active torsions:
REMARK  status: ('A' for Active; 'I' for Inactive)
REMARK    1  A    between atoms: C_7  and  C_10
REMARK    2  A    between atoms: C_10  and  C_11
REMARK    3  A    between atoms: C_11  and  C_13
REMARK    4  A    between atoms: C_11  and  N_25
REMARK    5  A    between atoms: N_15  and  C_16
REMARK    6  A    between atoms: N_25  and  S_26
REMARK    7  A    between atoms: S_26  and  C_29
REMARK                            x       y       z     vdW  Elec       q    Type
REMARK                         _______ _______ _______ _____ _____    ______ ____
ROOT
ATOM      1  C   UNL     1       0.435  -3.532  -1.409  0.00  0.00    +0.166 C 
ENDROOT
BRANCH   1   2
ATOM      2  C   UNL     1      -0.752  -4.456  -1.503  0.00  0.00    +0.236 C 
ATOM      3  O   UNL     1      -0.651  -5.514  -2.088  0.00  0.00    -0.274 OA
ATOM      4  N   UNL     1      -1.924  -4.108  -0.938  0.00  0.00    -0.284 N 
ATOM      5  H   UNL     1      -1.987  -3.293  -0.414  0.00  0.00    +0.155 HD
BRANCH   4   6
ATOM      6  C   UNL     1      -3.052  -4.922  -1.105  0.00  0.00    +0.037 A 
ATOM      7  C   UNL     1      -4.311  -4.348  -1.225  0.00  0.00    +0.027 A 
ATOM      8  C   UNL     1      -5.424  -5.149  -1.391  0.00  0.00    +0.051 A 
ATOM      9  C   UNL     1      -5.288  -6.527  -1.437  0.00  0.00    +0.166 A 
ATOM     10  C   UNL     1      -4.027  -7.106  -1.317  0.00  0.00    +0.168 A 
ATOM     11  C   UNL     1      -2.911  -6.301  -1.157  0.00  0.00    +0.072 A 
ATOM     12  O   UNL     1      -4.160  -8.462  -1.393  0.00  0.00    -0.453 OA
ATOM     13  C   UNL     1      -5.554  -8.726  -1.150  0.00  0.00    +0.466 C 
ATOM     14  O   UNL     1      -6.212  -7.522  -1.589  0.00  0.00    -0.453 OA
ENDBRANCH   4   6
ENDBRANCH   1   2
BRANCH   1  15
ATOM     15  N   UNL     1       1.579  -4.134  -2.098  0.00  0.00    -0.178 NA
ATOM     16  H   UNL     1       2.140  -4.776  -1.636  0.00  0.00    +0.149 HD
BRANCH  15  17
ATOM     17  S   UNL     1       1.915  -3.718  -3.665  0.00  0.00    +0.059 S 
ATOM     18  O   UNL     1       3.080  -4.440  -4.036  0.00  0.00    -0.153 OA
ATOM     19  O   UNL     1       0.693  -3.822  -4.383  0.00  0.00    -0.153 OA
BRANCH  17  20
ATOM     20  C   UNL     1       2.357  -2.012  -3.668  0.00  0.00    +0.105 A 
ATOM     21  C   UNL     1       1.373  -1.043  -3.730  0.00  0.00    +0.030 A 
ATOM     22  C   UNL     1       1.719   0.295  -3.732  0.00  0.00    +0.022 A 
ATOM     23  C   UNL     1       3.051   0.664  -3.672  0.00  0.00    +0.041 A 
ATOM     24  C   UNL     1       4.035  -0.306  -3.610  0.00  0.00    +0.022 A 
ATOM     25  C   UNL     1       3.688  -1.643  -3.602  0.00  0.00    +0.030 A 
ATOM     26 CL   UNL     1       3.487   2.345  -3.675  0.00  0.00    -0.084 Cl
ENDBRANCH  17  20
ENDBRANCH  15  17
ENDBRANCH   1  15
BRANCH   1  27
ATOM     27  C   UNL     1       0.787  -3.304   0.062  0.00  0.00    +0.063 C 
BRANCH  27  34
ATOM     28  C   UNL     1       0.926   1.244   0.663  0.00  0.00    +0.001 A 
ATOM     29  C   UNL     1       2.225   1.767   0.693  0.00  0.00    +0.002 A 
ATOM     30  C   UNL     1       3.325   0.997   0.558  0.00  0.00    +0.026 A 
ATOM     31  C   UNL     1       3.201  -0.408   0.376  0.00  0.00    +0.043 A 
ATOM     32  N   UNL     1       4.098  -1.352   0.223  0.00  0.00    -0.380 N 
ATOM     33  C   UNL     1       3.405  -2.636   0.073  0.00  0.00    +0.144 C 
ATOM     34  C   UNL     1       1.928  -2.324   0.159  0.00  0.00    -0.040 C 
ATOM     35  C   UNL     1       1.838  -0.986   0.340  0.00  0.00    -0.001 A 
ATOM     36  C   UNL     1       0.695  -0.079   0.495  0.00  0.00    +0.010 A 
ATOM     37  H   UNL     1       5.059  -1.222   0.211  0.00  0.00    +0.160 HD
ENDBRANCH  27  34
ENDBRANCH   1  27
TORSDOF 7
