REMARK  Name = ZINC09722403
REMARK  4 active torsions:
REMARK  status: ('A' for Active; 'I' for Inactive)
REMARK    1  A    between atoms: N_11  and  C_12
REMARK    2  A    between atoms: C_17  and  C_18
REMARK    3  A    between atoms: C_17  and  N_60
REMARK    4  A    between atoms: N_20  and  N_21
REMARK                            x       y       z     vdW  Elec       q    Type
REMARK                         _______ _______ _______ _____ _____    ______ ____
ROOT
ATOM      1  C   UNL     1      -4.754   6.294   0.101  0.00  0.00    +0.020 C 
ENDROOT
BRANCH   1   7
ATOM      2  C   UNL     1      -1.852   3.155   0.045  0.00  0.00    +0.089 C 
ATOM      3  C   UNL     1      -2.689   3.384   1.306  0.00  0.00    +0.006 C 
ATOM      4  C   UNL     1      -3.256   4.805   1.284  0.00  0.00    -0.076 C 
ATOM      5  C   UNL     1      -3.288   4.819  -1.139  0.00  0.00    -0.076 C 
ATOM      6  C   UNL     1      -2.723   3.398  -1.190  0.00  0.00    +0.006 C 
ATOM      7  N   UNL     1      -4.105   4.967   0.085  0.00  0.00    +0.386 N 
ATOM      8  H   UNL     1      -4.831   4.241   0.090  0.00  0.00    -0.081 HD
BRANCH   2  19
ATOM      9  C   UNL     1       2.397   0.035  -0.020  0.00  0.00    +0.002 A 
ATOM     10  C   UNL     1       2.378   1.419  -0.012  0.00  0.00    +0.002 A 
ATOM     11  C   UNL     1       1.176   2.099   0.002  0.00  0.00    +0.028 A 
ATOM     12  C   UNL     1      -0.017   1.392   0.010  0.00  0.00    +0.070 A 
ATOM     13  C   UNL     1       0.002  -0.004   0.002  0.00  0.00    +0.067 A 
ATOM     14  C   UNL     1       1.214  -0.678  -0.013  0.00  0.00    +0.028 A 
ATOM     15  N   UNL     1      -1.326  -0.425   0.012  0.00  0.00    -0.306 N 
ATOM     16  H   UNL     1      -1.629  -1.346   0.011  0.00  0.00    +0.170 HD
ATOM     17  C   UNL     1      -2.116   0.665   0.026  0.00  0.00    +0.328 A 
ATOM     18  O   UNL     1      -3.333   0.649   0.037  0.00  0.00    -0.247 OA
ATOM     19  N   UNL     1      -1.355   1.776   0.030  0.00  0.00    -0.289 N 
ENDBRANCH   2  19
ENDBRANCH   1   7
BRANCH   1  20
ATOM     20  C   UNL     1      -5.745   6.336   1.236  0.00  0.00    +0.213 C 
ATOM     21  O   UNL     1      -5.879   5.372   1.959  0.00  0.00    -0.276 OA
ATOM     22  N   UNL     1      -6.482   7.444   1.446  0.00  0.00    -0.225 N 
ATOM     23  H   UNL     1      -6.375   8.215   0.867  0.00  0.00    +0.173 HD
BRANCH  22  24
ATOM     24  N   UNL     1      -7.404   7.483   2.501  0.00  0.00    -0.137 N 
ATOM     25  C   UNL     1      -7.210   8.158   3.653  0.00  0.00    +0.263 C 
ATOM     26  O   UNL     1      -6.243   8.822   3.961  0.00  0.00    -0.271 OA
ATOM     27  C   UNL     1      -8.452   7.913   4.478  0.00  0.00    +0.114 C 
ATOM     28  C   UNL     1      -9.167   9.229   4.766  0.00  0.00    +0.035 C 
ATOM     29  C   UNL     1     -10.435   8.957   5.578  0.00  0.00    +0.003 C 
ATOM     30  C   UNL     1     -10.061   8.264   6.889  0.00  0.00    +0.000 C 
ATOM     31  C   UNL     1      -9.368   6.934   6.584  0.00  0.00    +0.003 C 
ATOM     32  C   UNL     1      -8.095   7.198   5.776  0.00  0.00    +0.035 C 
ATOM     33  N   UNL     1      -9.282   7.051   3.627  0.00  0.00    -0.284 N 
ATOM     34  C   UNL     1      -8.588   6.859   2.489  0.00  0.00    +0.326 C 
ATOM     35  O   UNL     1      -8.990   6.191   1.557  0.00  0.00    -0.251 OA
ATOM     36  H   UNL     1     -10.158   6.695   3.840  0.00  0.00    +0.151 HD
ENDBRANCH  22  24
ENDBRANCH   1  20
TORSDOF 4
