REMARK  Name = ZINC59359632
REMARK  6 active torsions:
REMARK  status: ('A' for Active; 'I' for Inactive)
REMARK    1  A    between atoms: C_1  and  C_2
REMARK    2  A    between atoms: C_2  and  C_4
REMARK    3  A    between atoms: C_2  and  N_21
REMARK    4  A    between atoms: N_6  and  N_7
REMARK    5  A    between atoms: C_8  and  C_10
REMARK    6  A    between atoms: C_22  and  C_24
REMARK                            x       y       z     vdW  Elec       q    Type
REMARK                         _______ _______ _______ _____ _____    ______ ____
ROOT
ATOM      1  C   UNL     1       0.707  -0.490  -1.238  0.00  0.00    +0.249 C 
ATOM      2  O   UNL     1       1.704  -1.174  -1.140  0.00  0.00    -0.272 OA
ATOM      3  N   UNL     1       0.231  -0.164  -2.456  0.00  0.00    -0.233 N 
ATOM      4  H   UNL     1      -0.566   0.383  -2.534  0.00  0.00    +0.173 HD
ENDROOT
BRANCH   3   5
ATOM      5  N   UNL     1       0.887  -0.616  -3.608  0.00  0.00    -0.231 N 
ATOM      6  C   UNL     1       0.410  -0.290  -4.826  0.00  0.00    +0.273 C 
ATOM      7  O   UNL     1      -0.586   0.394  -4.924  0.00  0.00    -0.270 OA
ATOM      8  H   UNL     1       1.684  -1.163  -3.530  0.00  0.00    +0.173 HD
BRANCH   6   9
ATOM      9  C   UNL     1       1.116  -0.776  -6.066  0.00  0.00    +0.297 C 
ATOM     10  C   UNL     1       1.018  -2.305  -6.151  0.00  0.00    +0.283 C 
ATOM     11  O   UNL     1       1.685  -2.731  -7.345  0.00  0.00    -0.484 OA
ATOM     12  C   UNL     1       1.401  -2.041  -8.483  0.00  0.00    +0.162 A 
ATOM     13  C   UNL     1       1.710  -2.601  -9.713  0.00  0.00    +0.049 A 
ATOM     14  C   UNL     1       1.431  -1.911 -10.878  0.00  0.00    +0.004 A 
ATOM     15  C   UNL     1       0.844  -0.661 -10.819  0.00  0.00    +0.004 A 
ATOM     16  C   UNL     1       0.532  -0.097  -9.596  0.00  0.00    +0.049 A 
ATOM     17  C   UNL     1       0.808  -0.785  -8.424  0.00  0.00    +0.163 A 
ATOM     18  O   UNL     1       0.489  -0.221  -7.227  0.00  0.00    -0.472 OA
ENDBRANCH   6   9
ENDBRANCH   3   5
BRANCH   1  20
ATOM     19  C   UNL     1      -0.019   1.526   0.010  0.00  0.00    +0.038 C 
ATOM     20  C   UNL     1       0.002  -0.004   0.002  0.00  0.00    +0.158 C 
BRANCH  20  21
ATOM     21  N   UNL     1       0.711  -0.489   1.189  0.00  0.00    -0.300 N 
ATOM     22  C   UNL     1       0.051  -0.633   2.355  0.00  0.00    +0.251 C 
ATOM     23  O   UNL     1      -1.133  -0.360   2.423  0.00  0.00    -0.270 OA
ATOM     24  H   UNL     1       1.654  -0.707   1.135  0.00  0.00    +0.150 HD
BRANCH  22  25
ATOM     25  C   UNL     1       0.760  -1.119   3.542  0.00  0.00    +0.075 A 
ATOM     26  C   UNL     1       0.272  -1.341   4.822  0.00  0.00    +0.022 A 
ATOM     27  C   UNL     1       1.186  -1.803   5.737  0.00  0.00    +0.024 A 
ATOM     28  C   UNL     1       2.469  -2.007   5.343  0.00  0.00    +0.056 A 
ATOM     29  S   UNL     1       2.471  -1.585   3.716  0.00  0.00    -0.077 S 
ATOM     30 BR   UNL     1       3.919  -2.632   6.383  0.00  0.00    -0.043 Br
ENDBRANCH  22  25
ENDBRANCH  20  21
ENDBRANCH   1  20
TORSDOF 5
