REMARK  Name = ZINC14544736
REMARK  2 active torsions:
REMARK  status: ('A' for Active; 'I' for Inactive)
REMARK    1  A    between atoms: C_7  and  C_11
REMARK    2  A    between atoms: C_24  and  O_27
REMARK                            x       y       z     vdW  Elec       q    Type
REMARK                         _______ _______ _______ _____ _____    ______ ____
ROOT
ATOM      1  C   UNL     1       2.310   1.210   0.878  0.00  0.00    +0.107 C 
ATOM      2  C   UNL     1       1.379   2.032  -0.017  0.00  0.00    +0.029 C 
ATOM      3  C   UNL     1       1.070   3.367   0.719  0.00  0.00    +0.033 C 
ATOM      4  C   UNL     1      -0.043   2.994   1.678  0.00  0.00    -0.030 C 
ATOM      5  C   UNL     1      -0.649   1.905   1.277  0.00  0.00    -0.023 C 
ATOM      6  C   UNL     1      -0.025   1.391  -0.000  0.00  0.00    +0.049 C 
ATOM      7  C   UNL     1       0.054  -0.107   0.016  0.00  0.00    -0.016 A 
ATOM      8  C   UNL     1      -1.130  -0.823  -0.125  0.00  0.00    +0.006 A 
ATOM      9  C   UNL     1      -1.125  -2.202  -0.115  0.00  0.00    +0.004 A 
ATOM     10  C   UNL     1       0.065  -2.889   0.036  0.00  0.00    +0.047 A 
ATOM     11  C   UNL     1       1.249  -2.189   0.177  0.00  0.00    +0.138 A 
ATOM     12  C   UNL     1       1.245  -0.790   0.168  0.00  0.00    +0.073 A 
ATOM     13  N   UNL     1       2.469  -0.131   0.312  0.00  0.00    -0.334 N 
ATOM     14  H   UNL     1       3.113  -0.680   0.861  0.00  0.00    +0.147 HD
ENDROOT
BRANCH   1  21
ATOM     15  C   UNL     1       2.569   3.923   4.691  0.00  0.00    +0.001 A 
ATOM     16  C   UNL     1       1.843   3.421   5.763  0.00  0.00    +0.002 A 
ATOM     17  C   UNL     1       1.142   2.241   5.645  0.00  0.00    +0.026 A 
ATOM     18  C   UNL     1       1.160   1.544   4.441  0.00  0.00    +0.047 A 
ATOM     19  C   UNL     1       1.903   2.054   3.361  0.00  0.00    +0.005 A 
ATOM     20  C   UNL     1       2.601   3.255   3.500  0.00  0.00    +0.010 A 
ATOM     21  C   UNL     1       1.717   1.106   2.259  0.00  0.00    -0.002 A 
ATOM     22  C   UNL     1       0.923   0.125   2.715  0.00  0.00    +0.089 A 
ATOM     23  N   UNL     1       0.580   0.369   4.017  0.00  0.00    -0.360 N 
ATOM     24  H   UNL     1       0.013  -0.200   4.561  0.00  0.00    +0.165 HD
ENDBRANCH   1  21
BRANCH  11  25
ATOM     25  O   UNL     1       2.421  -2.862   0.325  0.00  0.00    -0.505 OA
ATOM     26  H   UNL     1       2.652  -3.051   1.245  0.00  0.00    +0.292 HD
ENDBRANCH  11  25
TORSDOF 2
