REMARK  Name = ZINC36550129
REMARK  10 active torsions:
REMARK  status: ('A' for Active; 'I' for Inactive)
REMARK    1  A    between atoms: C_4  and  C_7
REMARK    2  A    between atoms: C_7  and  C_8
REMARK    3  A    between atoms: N_10  and  C_11
REMARK    4  A    between atoms: N_10  and  C_18
REMARK    5  A    between atoms: C_18  and  C_20
REMARK    6  A    between atoms: C_18  and  C_29
REMARK    7  A    between atoms: C_21  and  O_28
REMARK    8  A    between atoms: C_23  and  O_27
REMARK    9  A    between atoms: C_25  and  O_26
REMARK   10  A    between atoms: N_31  and  C_32
REMARK                            x       y       z     vdW  Elec       q    Type
REMARK                         _______ _______ _______ _____ _____    ______ ____
ROOT
ATOM      1  C   UNL     1       5.828  -1.746   2.940  0.00  0.00    +0.204 C 
ENDROOT
BRANCH   1   2
ATOM      2  C   UNL     1       6.214  -3.188   3.151  0.00  0.00    +0.065 A 
ATOM      3  C   UNL     1       7.020  -3.832   2.224  0.00  0.00    +0.129 A 
ATOM      4  C   UNL     1       7.375  -5.159   2.417  0.00  0.00    +0.091 A 
ATOM      5  C   UNL     1       6.925  -5.841   3.538  0.00  0.00    +0.124 A 
ATOM      6  C   UNL     1       6.120  -5.196   4.465  0.00  0.00    +0.091 A 
ATOM      7  C   UNL     1       5.769  -3.868   4.274  0.00  0.00    +0.129 A 
BRANCH   7   8
ATOM      8  O   UNL     1       4.984  -3.235   5.185  0.00  0.00    -0.506 OA
ATOM      9  H   UNL     1       4.036  -3.309   5.007  0.00  0.00    +0.292 HD
ENDBRANCH   7   8
BRANCH   5  10
ATOM     10  O   UNL     1       7.272  -7.141   3.727  0.00  0.00    -0.507 OA
ATOM     11  H   UNL     1       8.092  -7.260   4.227  0.00  0.00    +0.292 HD
ENDBRANCH   5  10
BRANCH   3  12
ATOM     12  O   UNL     1       7.460  -3.164   1.125  0.00  0.00    -0.506 OA
ATOM     13  H   UNL     1       8.306  -2.713   1.253  0.00  0.00    +0.292 HD
ENDBRANCH   3  12
ENDBRANCH   1   2
BRANCH   1  14
ATOM     14  C   UNL     1       7.069  -0.922   2.712  0.00  0.00    +0.239 C 
ATOM     15  O   UNL     1       7.207  -0.308   1.675  0.00  0.00    -0.273 OA
ATOM     16  N   UNL     1       8.026  -0.868   3.660  0.00  0.00    -0.311 N 
ATOM     17  H   UNL     1       7.915  -1.360   4.489  0.00  0.00    +0.149 HD
BRANCH  16  18
ATOM     18  C   UNL     1       9.232  -0.067   3.438  0.00  0.00    +0.073 C 
ATOM     19  C   UNL     1      10.257  -0.893   2.659  0.00  0.00    +0.022 C 
ATOM     20  C   UNL     1      11.517  -0.056   2.427  0.00  0.00    +0.002 C 
ATOM     21  C   UNL     1      12.112   0.354   3.776  0.00  0.00    +0.000 C 
ATOM     22  C   UNL     1      11.087   1.180   4.555  0.00  0.00    +0.002 C 
ATOM     23  C   UNL     1       9.827   0.343   4.787  0.00  0.00    +0.022 C 
ENDBRANCH  16  18
ENDBRANCH   1  14
BRANCH   1  26
ATOM     24  C   UNL     1       3.760  -1.019   1.877  0.00  0.00    +0.225 C 
ATOM     25  O   UNL     1       3.414  -0.546   2.939  0.00  0.00    -0.275 OA
ATOM     26  N   UNL     1       4.951  -1.641   1.772  0.00  0.00    -0.253 N 
BRANCH  26  27
ATOM     27  C   UNL     1       5.349  -2.187   0.546  0.00  0.00    +0.056 A 
ATOM     28  C   UNL     1       6.082  -1.422  -0.352  0.00  0.00    +0.025 A 
ATOM     29  C   UNL     1       6.474  -1.963  -1.560  0.00  0.00    +0.002 A 
ATOM     30  C   UNL     1       6.137  -3.267  -1.878  0.00  0.00    +0.002 A 
ATOM     31  C   UNL     1       5.408  -4.032  -0.987  0.00  0.00    +0.022 A 
ATOM     32  C   UNL     1       5.017  -3.498   0.227  0.00  0.00    +0.062 A 
ATOM     33 CL   UNL     1       4.108  -4.462   1.348  0.00  0.00    -0.082 Cl
ENDBRANCH  26  27
BRANCH  24  34
ATOM     34  C   UNL     1       2.857  -0.911   0.675  0.00  0.00    +0.131 C 
BRANCH  34  38
ATOM     35  C   UNL     1      -0.713   1.171   1.755  0.00  0.00    +0.000 A 
ATOM     36  C   UNL     1       0.382   1.873   1.287  0.00  0.00    +0.000 A 
ATOM     37  C   UNL     1       1.537   1.199   0.937  0.00  0.00    +0.004 A 
ATOM     38  C   UNL     1       1.598  -0.177   1.057  0.00  0.00    -0.039 A 
ATOM     39  C   UNL     1       0.503  -0.879   1.526  0.00  0.00    +0.004 A 
ATOM     40  C   UNL     1      -0.652  -0.205   1.875  0.00  0.00    +0.000 A 
ENDBRANCH  34  38
ENDBRANCH  24  34
ENDBRANCH   1  26
TORSDOF 10
