REMARK  Name = ZINC04102983
REMARK  10 active torsions:
REMARK  status: ('A' for Active; 'I' for Inactive)
REMARK    1  A    between atoms: C_1  and  C_2
REMARK    2  A    between atoms: C_2  and  C_3
REMARK    3  A    between atoms: C_2  and  C_4
REMARK    4  A    between atoms: C_2  and  O_5
REMARK    5  A    between atoms: O_5  and  C_6
REMARK    6  A    between atoms: C_15  and  C_27
REMARK    7  A    between atoms: C_17  and  C_23
REMARK    8  A    between atoms: C_17  and  C_25
REMARK    9  A    between atoms: C_18  and  N_22
REMARK   10  A    between atoms: C_19  and  C_20
REMARK                            x       y       z     vdW  Elec       q    Type
REMARK                         _______ _______ _______ _____ _____    ______ ____
ROOT
ATOM      1  C   UNL     1       1.952  -0.085  -1.337  0.00  0.00    +0.404 C 
ATOM      2  O   UNL     1       2.488   0.619  -0.503  0.00  0.00    -0.226 OA
ATOM      3  N   UNL     1       2.641  -0.485  -2.424  0.00  0.00    -0.263 N 
ATOM      4  C   UNL     1       2.020  -1.334  -3.457  0.00  0.00    +0.138 C 
ATOM      5  C   UNL     1       2.159  -0.605  -4.770  0.00  0.00    -0.003 C 
ATOM      6  C   UNL     1       3.153   0.234  -4.983  0.00  0.00    -0.026 C 
ATOM      7  C   UNL     1       4.242   0.525  -3.993  0.00  0.00    +0.048 C 
ATOM      8  C   UNL     1       4.038  -0.089  -2.633  0.00  0.00    +0.120 C 
ATOM      9  C   UNL     1       4.429   2.041  -3.915  0.00  0.00    +0.074 C 
ATOM     10  C   UNL     1       4.898   2.551  -5.278  0.00  0.00    +0.189 C 
ATOM     11  C   UNL     1       4.027   2.047  -6.389  0.00  0.00    +0.054 C 
ATOM     12  C   UNL     1       3.217   0.964  -6.277  0.00  0.00    +0.074 C 
ENDROOT
BRANCH   9  13
ATOM     13  C   UNL     1       5.461   2.369  -2.868  0.00  0.00    -0.004 A 
ATOM     14  C   UNL     1       5.328   3.112  -1.742  0.00  0.00    +0.011 A 
ATOM     15  C   UNL     1       6.424   3.281  -0.916  0.00  0.00    +0.008 A 
ATOM     16  C   UNL     1       7.599   2.699  -1.258  0.00  0.00    +0.045 A 
ATOM     17  S   UNL     1       7.174   1.874  -2.783  0.00  0.00    -0.101 S 
ENDBRANCH   9  13
BRANCH  11  18
ATOM     18  N   UNL     1       4.051   2.715  -7.581  0.00  0.00    -0.358 N 
ATOM     19  H   UNL     1       4.620   3.492  -7.690  0.00  0.00    +0.142 HD
ATOM     20  H   UNL     1       3.498   2.411  -8.318  0.00  0.00    +0.142 HD
ENDBRANCH  11  18
BRANCH  12  21
ATOM     21  C   UNL     1       2.433   0.528  -7.394  0.00  0.00    +0.101 C 
ATOM     22  N   UNL     1       1.811   0.183  -8.279  0.00  0.00    -0.191 NA
ENDBRANCH  12  21
BRANCH  10  23
ATOM     23  C   UNL     1       4.868   4.023  -5.276  0.00  0.00    +0.091 C 
ATOM     24  N   UNL     1       4.846   5.159  -5.274  0.00  0.00    -0.194 NA
ENDBRANCH  10  23
BRANCH  10  25
ATOM     25  C   UNL     1       6.280   2.101  -5.510  0.00  0.00    +0.091 C 
ATOM     26  N   UNL     1       7.347   1.754  -5.688  0.00  0.00    -0.194 NA
ENDBRANCH  10  25
BRANCH   1  27
ATOM     27  O   UNL     1       0.671  -0.465  -1.174  0.00  0.00    -0.445 OA
BRANCH  27  29
ATOM     28  C   UNL     1      -0.019   1.526   0.010  0.00  0.00    +0.055 C 
ATOM     29  C   UNL     1       0.002  -0.004   0.002  0.00  0.00    +0.107 C 
ATOM     30  C   UNL     1       0.742  -0.511   1.242  0.00  0.00    +0.055 C 
ATOM     31  C   UNL     1      -1.433  -0.534   0.013  0.00  0.00    +0.055 C 
ENDBRANCH  27  29
ENDBRANCH   1  27
TORSDOF 7
