REMARK  Name = ZINC39746381
REMARK  10 active torsions:
REMARK  status: ('A' for Active; 'I' for Inactive)
REMARK    1  A    between atoms: C_1  and  C_2
REMARK    2  A    between atoms: C_6  and  N_12
REMARK    3  A    between atoms: C_9  and  C_11
REMARK    4  A    between atoms: C_13  and  C_15
REMARK    5  A    between atoms: C_15  and  O_16
REMARK    6  A    between atoms: O_16  and  C_17
REMARK    7  A    between atoms: C_17  and  C_19
REMARK    8  A    between atoms: C_19  and  C_20
REMARK    9  A    between atoms: C_20  and  C_25
REMARK   10  A    between atoms: C_25  and  C_26
REMARK                            x       y       z     vdW  Elec       q    Type
REMARK                         _______ _______ _______ _____ _____    ______ ____
ROOT
ATOM      1  O   UNL     1      -5.861  -5.566  -1.279  0.00  0.00    -0.455 OA
ENDROOT
BRANCH   1   2
ATOM      2  C   UNL     1      -6.202  -6.576  -2.094  0.00  0.00    +0.308 C 
ATOM      3  O   UNL     1      -5.679  -6.681  -3.178  0.00  0.00    -0.251 OA
BRANCH   2   4
ATOM      4  C   UNL     1      -7.239  -7.579  -1.658  0.00  0.00    +0.127 C 
BRANCH   4   5
ATOM      5  C   UNL     1      -7.440  -8.618  -2.763  0.00  0.00    -0.017 C 
ATOM      6  C   UNL     1      -6.129  -9.395  -3.004  0.00  0.00    +0.007 C 
ATOM      7  C   UNL     1      -6.096  -9.620  -4.536  0.00  0.00    +0.001 C 
ATOM      8  C   UNL     1      -6.672  -8.292  -5.089  0.00  0.00    +0.001 C 
ATOM      9  C   UNL     1      -7.785  -7.917  -4.089  0.00  0.00    +0.007 C 
BRANCH   5  10
ATOM     10  C   UNL     1      -8.560  -9.585  -2.375  0.00  0.00    +0.041 C 
BRANCH  10  11
ATOM     11  C   UNL     1      -8.248 -10.205  -1.012  0.00  0.00    +0.134 C 
ATOM     12  N   UNL     1      -9.200 -11.277  -0.688  0.00  0.00    -0.331 N 
ATOM     13  C   UNL     1     -10.002 -11.108   0.439  0.00  0.00    +0.042 A 
ATOM     14  C   UNL     1     -10.966 -12.022   0.902  0.00  0.00    +0.024 A 
ATOM     15  C   UNL     1     -11.710 -11.762   2.029  0.00  0.00    +0.002 A 
ATOM     16  C   UNL     1     -11.537 -10.592   2.745  0.00  0.00    +0.001 A 
ATOM     17  C   UNL     1     -10.595  -9.674   2.312  0.00  0.00    +0.016 A 
ATOM     18  C   UNL     1      -9.850  -9.935   1.185  0.00  0.00    +0.030 A 
ATOM     19  S   UNL     1      -8.579  -9.014   0.348  0.00  0.00    -0.101 S 
ATOM     20  H   UNL     1      -9.267 -12.073  -1.239  0.00  0.00    +0.147 HD
ENDBRANCH  10  11
ENDBRANCH   5  10
ENDBRANCH   4   5
ENDBRANCH   2   4
ENDBRANCH   1   2
BRANCH   1  21
ATOM     21  C   UNL     1      -4.872  -4.652  -1.757  0.00  0.00    +0.327 C 
BRANCH  21  23
ATOM     22  N   UNL     1      -3.720  -2.618  -0.948  0.00  0.00    -0.283 N 
ATOM     23  C   UNL     1      -4.621  -3.593  -0.714  0.00  0.00    +0.253 C 
ATOM     24  O   UNL     1      -5.228  -3.619   0.335  0.00  0.00    -0.272 OA
ATOM     25  H   UNL     1      -3.234  -2.597  -1.787  0.00  0.00    +0.152 HD
BRANCH  22  30
ATOM     26  C   UNL     1      -0.757   2.174  -0.713  0.00  0.00    +0.030 C 
ATOM     27  C   UNL     1      -0.586   0.654  -0.760  0.00  0.00    +0.099 C 
ATOM     28  C   UNL     1      -1.924  -0.010  -0.580  0.00  0.00    -0.011 C 
ATOM     29  C   UNL     1      -2.035  -1.189   0.058  0.00  0.00    +0.065 C 
ATOM     30  C   UNL     1      -3.475  -1.589   0.066  0.00  0.00    +0.243 C 
ATOM     31  O   UNL     1      -4.217  -0.390  -0.249  0.00  0.00    -0.347 OA
ATOM     32  C   UNL     1      -3.293   0.416  -1.012  0.00  0.00    +0.146 C 
ATOM     33  C   UNL     1      -3.479   0.157  -2.508  0.00  0.00    +0.043 C 
ATOM     34  C   UNL     1      -0.838  -1.842   0.611  0.00  0.00    +0.258 C 
ATOM     35  O   UNL     1      -0.868  -2.970   1.064  0.00  0.00    -0.269 OA
ATOM     36  N   UNL     1       0.302  -1.107   0.584  0.00  0.00    -0.247 N 
ATOM     37  N   UNL     1       0.308   0.226   0.324  0.00  0.00    -0.233 NA
ATOM     38  H   UNL     1       1.147  -1.551   0.755  0.00  0.00    +0.169 HD
ATOM     39  H   UNL     1       1.247   0.563   0.173  0.00  0.00    +0.145 HD
ENDBRANCH  22  30
ENDBRANCH  21  23
ENDBRANCH   1  21
TORSDOF 8
