REMARK  Name = ZINC35781287
REMARK  11 active torsions:
REMARK  status: ('A' for Active; 'I' for Inactive)
REMARK    1  A    between atoms: C_1  and  C_2
REMARK    2  A    between atoms: C_2  and  C_3
REMARK    3  A    between atoms: C_3  and  N_4
REMARK    4  A    between atoms: N_4  and  C_5
REMARK    5  A    between atoms: N_4  and  C_22
REMARK    6  A    between atoms: C_5  and  C_6
REMARK    7  A    between atoms: C_22  and  C_23
REMARK    8  A    between atoms: C_23  and  C_25
REMARK    9  A    between atoms: C_23  and  O_34
REMARK   10  A    between atoms: C_25  and  O_26
REMARK   11  A    between atoms: O_26  and  C_27
REMARK                            x       y       z     vdW  Elec       q    Type
REMARK                         _______ _______ _______ _____ _____    ______ ____
ROOT
ATOM      1  N   UNL     1      -1.420  -1.997  -0.114  0.00  0.00    +0.386 N 
ATOM      2  H   UNL     1      -0.800  -2.204  -0.883  0.00  0.00    -0.081 HD
ENDROOT
BRANCH   1   3
ATOM      3  C   UNL     1      -1.528  -0.542   0.050  0.00  0.00    -0.078 C 
BRANCH   3   5
ATOM      4  C   UNL     1      -0.231   1.587   0.227  0.00  0.00    +0.002 C 
ATOM      5  C   UNL     1      -0.128   0.061   0.190  0.00  0.00    -0.022 C 
ENDBRANCH   3   5
ENDBRANCH   1   3
BRANCH   1   6
ATOM      6  C   UNL     1      -2.749  -2.558  -0.391  0.00  0.00    -0.003 C 
BRANCH   6   7
ATOM      7  C   UNL     1      -3.245  -2.043  -1.718  0.00  0.00    +0.094 A 
ATOM      8  N   UNL     1      -4.464  -2.433  -2.171  0.00  0.00    -0.312 N 
ATOM      9  H   UNL     1      -5.000  -3.038  -1.633  0.00  0.00    +0.170 HD
ATOM     10  C   UNL     1      -4.945  -1.998  -3.350  0.00  0.00    +0.260 A 
ATOM     11  O   UNL     1      -6.042  -2.357  -3.743  0.00  0.00    -0.267 OA
ATOM     12  C   UNL     1      -4.146  -1.104  -4.136  0.00  0.00    +0.075 A 
ATOM     13  C   UNL     1      -4.465  -0.510  -5.437  0.00  0.00    -0.023 A 
ATOM     14  C   UNL     1      -3.534   0.304  -5.977  0.00  0.00    -0.004 A 
ATOM     15  S   UNL     1      -2.207   0.334  -4.799  0.00  0.00    -0.073 S 
ATOM     16  C   UNL     1      -2.903  -0.757  -3.586  0.00  0.00    +0.116 A 
ATOM     17  N   UNL     1      -2.497  -1.226  -2.409  0.00  0.00    -0.229 NA
ATOM     18  C   UNL     1      -3.591   1.021  -7.290  0.00  0.00    +0.043 C 
ATOM     19  C   UNL     1      -4.935   1.752  -7.410  0.00  0.00    +0.005 C 
ATOM     20  C   UNL     1      -5.942   0.804  -8.053  0.00  0.00    +0.001 C 
ATOM     21  C   UNL     1      -5.646  -0.635  -7.636  0.00  0.00    +0.005 C 
ATOM     22  C   UNL     1      -5.795  -0.797  -6.128  0.00  0.00    +0.037 C 
ENDBRANCH   6   7
ENDBRANCH   1   6
BRANCH   1  23
ATOM     23  C   UNL     1      -0.885  -2.591   1.119  0.00  0.00    -0.043 C 
BRANCH  23  24
ATOM     24  C   UNL     1      -0.634  -4.084   0.899  0.00  0.00    +0.135 C 
BRANCH  24  25
ATOM     25  O   UNL     1       0.312  -4.257  -0.158  0.00  0.00    -0.390 OA
ATOM     26  H   UNL     1       1.193  -3.911   0.042  0.00  0.00    +0.210 HD
ENDBRANCH  24  25
BRANCH  24  27
ATOM     27  C   UNL     1      -0.082  -4.703   2.184  0.00  0.00    +0.258 C 
BRANCH  27  28
ATOM     28  O   UNL     1       0.044  -6.117   2.016  0.00  0.00    -0.489 OA
BRANCH  28  29
ATOM     29  C   UNL     1       0.524  -6.823   3.073  0.00  0.00    +0.121 A 
ATOM     30  C   UNL     1       0.862  -6.170   4.250  0.00  0.00    +0.047 A 
ATOM     31  C   UNL     1       1.350  -6.890   5.323  0.00  0.00    +0.023 A 
ATOM     32  C   UNL     1       1.503  -8.262   5.225  0.00  0.00    +0.041 A 
ATOM     33  C   UNL     1       1.166  -8.915   4.053  0.00  0.00    +0.023 A 
ATOM     34  C   UNL     1       0.672  -8.200   2.979  0.00  0.00    +0.047 A 
ATOM     35 CL   UNL     1       2.117  -9.164   6.575  0.00  0.00    -0.084 Cl
ENDBRANCH  28  29
ENDBRANCH  27  28
ENDBRANCH  24  27
ENDBRANCH  23  24
ENDBRANCH   1  23
TORSDOF 10
