REMARK  Name = ZINC02823768
REMARK  4 active torsions:
REMARK  status: ('A' for Active; 'I' for Inactive)
REMARK    1  A    between atoms: C_1  and  C_2
REMARK    2  A    between atoms: C_2  and  C_3
REMARK    3  A    between atoms: C_3  and  S_4
REMARK    4  A    between atoms: S_4  and  C_5
REMARK                            x       y       z     vdW  Elec       q    Type
REMARK                         _______ _______ _______ _____ _____    ______ ____
ROOT
ATOM      1  C   UNL     1      -4.782   6.088   0.030  0.00  0.00    +0.212 A 
ATOM      2  N   UNL     1      -3.844   6.439   0.906  0.00  0.00    -0.184 NA
ATOM      3  C   UNL     1      -2.706   5.768   0.936  0.00  0.00    +0.248 A 
ATOM      4  C   UNL     1      -2.521   4.701   0.028  0.00  0.00    +0.156 A 
ATOM      5  N   UNL     1      -3.496   4.402  -0.817  0.00  0.00    -0.141 NA
ATOM      6  N   UNL     1      -4.592   5.079  -0.810  0.00  0.00    -0.122 NA
ATOM      7  C   UNL     1      -1.251   3.946   0.037  0.00  0.00    +0.029 A 
ATOM      8  C   UNL     1      -1.232   2.557   0.022  0.00  0.00    +0.027 A 
ATOM      9  C   UNL     1      -0.024   1.887   0.012  0.00  0.00    +0.019 A 
ATOM     10  C   UNL     1       1.169   2.591   0.005  0.00  0.00    +0.017 A 
ATOM     11  C   UNL     1       1.164   3.974   0.018  0.00  0.00    +0.025 A 
ATOM     12  C   UNL     1      -0.037   4.658   0.041  0.00  0.00    +0.040 A 
ATOM     13  N   UNL     1      -0.078   6.056   0.086  0.00  0.00    -0.295 N 
ATOM     14  C   UNL     1      -0.557   6.703   1.304  0.00  0.00    +0.283 C 
ATOM     15  O   UNL     1      -1.726   6.077   1.819  0.00  0.00    -0.437 OA
ATOM     16  C   UNL     1       0.525   6.730   2.342  0.00  0.00    +0.048 A 
ATOM     17  C   UNL     1       1.194   5.711   2.984  0.00  0.00    +0.050 A 
ATOM     18  C   UNL     1       2.164   6.080   3.913  0.00  0.00    +0.124 A 
ATOM     19  C   UNL     1       2.438   7.409   4.175  0.00  0.00    +0.040 A 
ATOM     20  C   UNL     1       1.768   8.438   3.531  0.00  0.00    +0.026 A 
ATOM     21  C   UNL     1       0.794   8.079   2.597  0.00  0.00    +0.043 A 
ATOM     22  N   UNL     1      -0.016   8.887   1.817  0.00  0.00    -0.280 N 
ATOM     23  C   UNL     1      -0.840   8.167   1.028  0.00  0.00    +0.285 C 
ATOM     24  O   UNL     1      -1.654   8.608   0.245  0.00  0.00    -0.269 OA
ATOM     25  F   UNL     1       2.850   5.120   4.571  0.00  0.00    -0.205 F 
ATOM     26 BR   UNL     1       0.002  -0.004   0.002  0.00  0.00    -0.050 Br
ATOM     27  H   UNL     1       0.206   6.584  -0.676  0.00  0.00    +0.151 HD
ATOM     28  H   UNL     1       0.006   9.857   1.837  0.00  0.00    +0.155 HD
ENDROOT
BRANCH   1  29
ATOM     29  S   UNL     1      -6.301   6.980  -0.015  0.00  0.00    -0.084 S 
BRANCH  29  30
ATOM     30  C   UNL     1      -7.148   6.090  -1.345  0.00  0.00    +0.077 C 
BRANCH  30  32
ATOM     31  C   UNL     1      -9.246   5.953  -2.695  0.00  0.00    +0.004 C 
ATOM     32  C   UNL     1      -8.530   6.705  -1.571  0.00  0.00    +0.008 C 
ENDBRANCH  30  32
ENDBRANCH  29  30
ENDBRANCH   1  29
TORSDOF 3
