REMARK  Name = ZINC45264836
REMARK  10 active torsions:
REMARK  status: ('A' for Active; 'I' for Inactive)
REMARK    1  A    between atoms: C_1  and  C_2
REMARK    2  A    between atoms: C_5  and  S_26
REMARK    3  A    between atoms: C_7  and  C_8
REMARK    4  A    between atoms: C_8  and  O_10
REMARK    5  A    between atoms: O_10  and  C_11
REMARK    6  A    between atoms: C_11  and  C_12
REMARK    7  A    between atoms: N_14  and  C_15
REMARK    8  A    between atoms: C_15  and  C_17
REMARK    9  A    between atoms: C_15  and  C_18
REMARK   10  A    between atoms: S_26  and  N_29
REMARK                            x       y       z     vdW  Elec       q    Type
REMARK                         _______ _______ _______ _____ _____    ______ ____
ROOT
ATOM      1  O   UNL     1       0.465  -0.657   3.623  0.00  0.00    -0.452 OA
ENDROOT
BRANCH   1   2
ATOM      2  C   UNL     1       0.242   0.020   2.480  0.00  0.00    +0.340 C 
ATOM      3  O   UNL     1       0.134   1.230   2.502  0.00  0.00    -0.245 OA
BRANCH   2  10
ATOM      4  C   UNL     1      -0.510   1.452   0.082  0.00  0.00    +0.044 C 
ATOM      5  C   UNL     1      -0.234  -0.028   0.036  0.00  0.00    -0.036 A 
ATOM      6  C   UNL     1      -0.333  -0.714  -1.157  0.00  0.00    +0.006 A 
ATOM      7  C   UNL     1      -0.079  -2.073  -1.200  0.00  0.00    +0.029 A 
ATOM      8  C   UNL     1       0.275  -2.755  -0.049  0.00  0.00    +0.106 A 
ATOM      9  C   UNL     1       0.378  -2.081   1.150  0.00  0.00    +0.043 A 
ATOM     10  C   UNL     1       0.128  -0.708   1.200  0.00  0.00    +0.064 A 
BRANCH   8  11
ATOM     11  S   UNL     1       0.595  -4.486  -0.116  0.00  0.00    +0.056 S 
ATOM     12  O   UNL     1       0.375  -4.990   1.195  0.00  0.00    -0.153 OA
ATOM     13  O   UNL     1      -0.100  -4.984  -1.250  0.00  0.00    -0.153 OA
BRANCH  11  14
ATOM     14  N   UNL     1       2.210  -4.674  -0.430  0.00  0.00    -0.204 NA
ATOM     15  H   UNL     1       2.777  -3.894  -0.538  0.00  0.00    +0.144 HD
ATOM     16  H   UNL     1       2.589  -5.563  -0.506  0.00  0.00    +0.144 HD
ENDBRANCH  11  14
ENDBRANCH   8  11
ENDBRANCH   2  10
ENDBRANCH   1   2
BRANCH   1  17
ATOM     17  C   UNL     1       0.563   0.112   4.824  0.00  0.00    +0.328 C 
BRANCH  17  18
ATOM     18  C   UNL     1       0.811  -0.809   5.991  0.00  0.00    +0.251 C 
ATOM     19  O   UNL     1       0.895  -2.006   5.812  0.00  0.00    -0.272 OA
ATOM     20  N   UNL     1       0.940  -0.303   7.234  0.00  0.00    -0.306 N 
ATOM     21  H   UNL     1       0.873   0.654   7.377  0.00  0.00    +0.149 HD
BRANCH  20  22
ATOM     22  C   UNL     1       1.181  -1.198   8.368  0.00  0.00    +0.100 C 
ATOM     23  C   UNL     1      -0.154  -1.738   8.884  0.00  0.00    +0.033 C 
BRANCH  22  24
ATOM     24  C   UNL     1       1.875  -0.438   9.469  0.00  0.00    -0.026 A 
ATOM     25  C   UNL     1       1.496   0.860   9.758  0.00  0.00    +0.007 A 
ATOM     26  C   UNL     1       2.132   1.558  10.767  0.00  0.00    +0.022 A 
ATOM     27  C   UNL     1       3.149   0.958  11.488  0.00  0.00    +0.059 A 
ATOM     28  C   UNL     1       3.529  -0.341  11.198  0.00  0.00    +0.060 A 
ATOM     29  C   UNL     1       2.887  -1.040  10.192  0.00  0.00    +0.027 A 
ATOM     30 CL   UNL     1       4.805  -1.095  12.102  0.00  0.00    -0.082 Cl
ATOM     31 CL   UNL     1       3.949   1.835  12.755  0.00  0.00    -0.082 Cl
ENDBRANCH  22  24
ENDBRANCH  20  22
ENDBRANCH  17  18
ENDBRANCH   1  17
TORSDOF 8
