REMARK  Name = ZINC08737966
REMARK  13 active torsions:
REMARK  status: ('A' for Active; 'I' for Inactive)
REMARK    1  A    between atoms: C_1  and  N_62
REMARK    2  A    between atoms: C_2  and  N_62
REMARK    3  A    between atoms: C_3  and  C_4
REMARK    4  A    between atoms: C_3  and  N_62
REMARK    5  A    between atoms: C_4  and  C_5
REMARK    6  A    between atoms: C_5  and  N_6
REMARK    7  A    between atoms: C_7  and  C_28
REMARK    8  A    between atoms: C_10  and  C_11
REMARK    9  A    between atoms: C_10  and  O_23
REMARK   10  A    between atoms: C_14  and  S_17
REMARK   11  A    between atoms: S_17  and  N_20
REMARK   12  A    between atoms: N_20  and  C_21
REMARK   13  A    between atoms: N_20  and  C_22
REMARK                            x       y       z     vdW  Elec       q    Type
REMARK                         _______ _______ _______ _____ _____    ______ ____
ROOT
ATOM      1  N   UNL     1      -5.791   4.327   6.237  0.00  0.00    -0.284 N 
ATOM      2  C   UNL     1      -4.381   4.186   6.613  0.00  0.00    +0.144 C 
ATOM      3  C   UNL     1      -3.660   3.651   5.397  0.00  0.00    +0.071 C 
ATOM      4  C   UNL     1      -2.315   3.366   5.290  0.00  0.00    +0.133 C 
ATOM      5  C   UNL     1      -4.638   3.496   4.401  0.00  0.00    +0.249 C 
ATOM      6  O   UNL     1      -4.448   3.081   3.272  0.00  0.00    -0.282 OA
ATOM      7  C   UNL     1      -5.946   3.927   4.964  0.00  0.00    +0.288 C 
ATOM      8  O   UNL     1      -7.000   3.918   4.361  0.00  0.00    -0.266 OA
ENDROOT
BRANCH   2   9
ATOM      9  C   UNL     1      -3.816   5.529   6.998  0.00  0.00    -0.022 A 
ATOM     10  C   UNL     1      -4.182   6.660   6.293  0.00  0.00    +0.008 A 
ATOM     11  C   UNL     1      -3.669   7.893   6.648  0.00  0.00    +0.038 A 
ATOM     12  C   UNL     1      -2.779   7.993   7.704  0.00  0.00    +0.123 A 
ATOM     13  C   UNL     1      -2.409   6.859   8.407  0.00  0.00    +0.038 A 
ATOM     14  C   UNL     1      -2.928   5.628   8.053  0.00  0.00    +0.008 A 
ATOM     15  F   UNL     1      -2.273   9.197   8.050  0.00  0.00    -0.205 F 
ENDBRANCH   2   9
BRANCH   4  16
ATOM     16  C   UNL     1      -1.743   2.994   3.984  0.00  0.00    +0.017 A 
ATOM     17  C   UNL     1      -1.984   3.788   2.859  0.00  0.00    +0.013 A 
ATOM     18  C   UNL     1      -1.444   3.434   1.640  0.00  0.00    +0.029 A 
ATOM     19  C   UNL     1      -0.665   2.295   1.529  0.00  0.00    +0.105 A 
ATOM     20  C   UNL     1      -0.427   1.501   2.637  0.00  0.00    +0.029 A 
ATOM     21  C   UNL     1      -0.955   1.845   3.864  0.00  0.00    +0.013 A 
BRANCH  19  22
ATOM     22  S   UNL     1       0.020   1.851  -0.032  0.00  0.00    +0.060 S 
ATOM     23  O   UNL     1      -0.802   2.453  -1.022  0.00  0.00    -0.153 OA
ATOM     24  O   UNL     1       0.258   0.451   0.013  0.00  0.00    -0.153 OA
BRANCH  22  25
ATOM     25  N   UNL     1       1.503   2.580  -0.141  0.00  0.00    -0.183 NA
ATOM     26  C   UNL     1       2.699   1.883   0.338  0.00  0.00    +0.131 C 
ATOM     27  C   UNL     1       1.619   3.922  -0.717  0.00  0.00    +0.131 C 
ENDBRANCH  22  25
ENDBRANCH  19  22
ENDBRANCH   4  16
BRANCH   4  28
ATOM     28  O   UNL     1      -1.522   3.429   6.381  0.00  0.00    -0.506 OA
ATOM     29  H   UNL     1      -0.585   3.194   6.125  0.00  0.00    +0.292 HD
ENDBRANCH   4  28
BRANCH   1  30
ATOM     30  C   UNL     1      -6.859   4.817   7.111  0.00  0.00    +0.107 C 
BRANCH  30  31
ATOM     31  C   UNL     1      -7.479   3.641   7.868  0.00  0.00    +0.000 C 
BRANCH  31  32
ATOM     32  C   UNL     1      -8.595   4.154   8.781  0.00  0.00    -0.078 C 
BRANCH  32  35
ATOM     33  C   UNL     1      -8.223   2.429  10.439  0.00  0.00    -0.097 C 
ATOM     34  C   UNL     1     -10.413   3.436  10.211  0.00  0.00    -0.097 C 
ATOM     35  N   UNL     1      -9.198   3.004   9.489  0.00  0.00    +0.376 N 
ATOM     36  H   UNL     1      -9.456   2.287   8.801  0.00  0.00    -0.083 HD
ENDBRANCH  32  35
ENDBRANCH  31  32
ENDBRANCH  30  31
ENDBRANCH   1  30
TORSDOF 9
