REMARK  Name = ZINC09144857
REMARK  6 active torsions:
REMARK  status: ('A' for Active; 'I' for Inactive)
REMARK    1  A    between atoms: C_4  and  C_7
REMARK    2  A    between atoms: C_7  and  N_8
REMARK    3  A    between atoms: C_9  and  C_11
REMARK    4  A    between atoms: C_11  and  N_20
REMARK    5  A    between atoms: C_12  and  C_13
REMARK    6  A    between atoms: C_21  and  C_23
REMARK                            x       y       z     vdW  Elec       q    Type
REMARK                         _______ _______ _______ _____ _____    ______ ____
ROOT
ATOM      1  C   UNL     1      -3.521   1.674   0.094  0.00  0.00    +0.097 C 
ATOM      2  C   UNL     1      -2.325   1.049  -0.002  0.00  0.00    +0.036 C 
ENDROOT
BRANCH   2   3
ATOM      3  C   UNL     1      -1.080   1.820   0.135  0.00  0.00    -0.023 A 
ATOM      4  C   UNL     1       0.082   1.400  -0.522  0.00  0.00    +0.009 A 
ATOM      5  C   UNL     1       1.244   2.131  -0.395  0.00  0.00    +0.016 A 
ATOM      6  C   UNL     1       1.264   3.275   0.386  0.00  0.00    +0.018 A 
ATOM      7  C   UNL     1       0.120   3.693   1.044  0.00  0.00    +0.016 A 
ATOM      8  C   UNL     1      -1.049   2.972   0.927  0.00  0.00    +0.009 A 
ATOM      9 BR   UNL     1       2.863   4.271   0.553  0.00  0.00    -0.050 Br
ENDBRANCH   2   3
BRANCH   1  11
ATOM     10  N   UNL     1      -3.247   3.865  -0.948  0.00  0.00    -0.306 N 
ATOM     11  C   UNL     1      -3.582   3.142   0.140  0.00  0.00    +0.259 C 
ATOM     12  O   UNL     1      -3.934   3.705   1.159  0.00  0.00    -0.269 OA
ATOM     13  H   UNL     1      -3.036   3.417  -1.782  0.00  0.00    +0.149 HD
BRANCH  10  14
ATOM     14  C   UNL     1      -3.202   5.327  -0.870  0.00  0.00    +0.140 C 
BRANCH  14  18
ATOM     15  C   UNL     1      -2.074   6.921  -4.669  0.00  0.00    +0.000 A 
ATOM     16  C   UNL     1      -3.409   6.716  -4.374  0.00  0.00    +0.000 A 
ATOM     17  C   UNL     1      -3.774   6.200  -3.145  0.00  0.00    +0.005 A 
ATOM     18  C   UNL     1      -2.804   5.889  -2.210  0.00  0.00    -0.030 A 
ATOM     19  C   UNL     1      -1.469   6.100  -2.503  0.00  0.00    +0.005 A 
ATOM     20  C   UNL     1      -1.104   6.611  -3.735  0.00  0.00    +0.000 A 
ENDBRANCH  14  18
ENDBRANCH  10  14
ENDBRANCH   1  11
BRANCH   1  21
ATOM     21  N   UNL     1      -4.699   0.924   0.148  0.00  0.00    -0.275 N 
ATOM     22  C   UNL     1      -5.888   1.545   0.290  0.00  0.00    +0.284 C 
ATOM     23  O   UNL     1      -5.943   2.761   0.290  0.00  0.00    -0.266 OA
ATOM     24  H   UNL     1      -4.662  -0.043   0.084  0.00  0.00    +0.155 HD
BRANCH  22  25
ATOM     25  C   UNL     1      -7.113   0.755   0.443  0.00  0.00    +0.189 A 
ATOM     26  C   UNL     1      -8.376   1.254   0.594  0.00  0.00    +0.054 A 
ATOM     27  C   UNL     1      -9.235   0.150   0.704  0.00  0.00    +0.042 A 
ATOM     28  C   UNL     1      -8.470  -0.960   0.617  0.00  0.00    +0.196 A 
ATOM     29  O   UNL     1      -7.193  -0.592   0.453  0.00  0.00    -0.458 OA
ENDBRANCH  22  25
ENDBRANCH   1  21
TORSDOF 6
