REMARK  Name = ZINC04785256
REMARK  9 active torsions:
REMARK  status: ('A' for Active; 'I' for Inactive)
REMARK    1  A    between atoms: C_1  and  C_2
REMARK    2  A    between atoms: C_2  and  C_3
REMARK    3  A    between atoms: C_2  and  C_4
REMARK    4  A    between atoms: C_2  and  C_5
REMARK    5  A    between atoms: C_14  and  O_29
REMARK    6  A    between atoms: C_16  and  C_19
REMARK    7  A    between atoms: C_23  and  O_26
REMARK    8  A    between atoms: C_24  and  O_25
REMARK    9  A    between atoms: O_26  and  C_27
REMARK                            x       y       z     vdW  Elec       q    Type
REMARK                         _______ _______ _______ _____ _____    ______ ____
ROOT
ATOM      1  C   UNL     1       0.718  -0.497  -1.257  0.00  0.00    -0.000 C 
ATOM      2  C   UNL     1       0.746  -2.029  -1.264  0.00  0.00    +0.009 C 
ATOM      3  C   UNL     1       1.234  -2.534  -2.624  0.00  0.00    +0.037 C 
ATOM      4  C   UNL     1       2.549  -1.844  -2.958  0.00  0.00    -0.023 A 
ATOM      5  C   UNL     1       2.922  -0.707  -2.327  0.00  0.00    -0.004 A 
ATOM      6  S   UNL     1       4.491  -0.289  -3.038  0.00  0.00    -0.078 S 
ATOM      7  C   UNL     1       4.651  -1.547  -4.106  0.00  0.00    +0.080 A 
ATOM      8  C   UNL     1       3.496  -2.321  -3.949  0.00  0.00    +0.068 A 
ATOM      9  C   UNL     1       3.358  -3.527  -4.806  0.00  0.00    +0.220 C 
ATOM     10  N   UNL     1       4.413  -3.930  -5.460  0.00  0.00    -0.223 NA
ATOM     11  C   UNL     1       5.731  -3.316  -5.360  0.00  0.00    +0.227 C 
ATOM     12  N   UNL     1       5.640  -1.889  -5.001  0.00  0.00    -0.313 N 
ATOM     13  C   UNL     1       2.161   0.028  -1.267  0.00  0.00    +0.046 C 
ATOM     14  H   UNL     1       6.244  -1.228  -5.374  0.00  0.00    +0.149 HD
ENDROOT
BRANCH  11  15
ATOM     15  C   UNL     1       6.530  -4.037  -4.305  0.00  0.00    +0.041 A 
ATOM     16  C   UNL     1       7.414  -3.334  -3.506  0.00  0.00    +0.031 A 
ATOM     17  C   UNL     1       8.149  -3.993  -2.538  0.00  0.00    +0.045 A 
ATOM     18  C   UNL     1       8.003  -5.358  -2.364  0.00  0.00    +0.069 A 
ATOM     19  C   UNL     1       7.120  -6.067  -3.161  0.00  0.00    +0.163 A 
ATOM     20  C   UNL     1       6.376  -5.402  -4.132  0.00  0.00    +0.165 A 
ATOM     21 CL   UNL     1       9.257  -3.106  -1.538  0.00  0.00    -0.083 Cl
BRANCH  20  22
ATOM     22  O   UNL     1       5.503  -6.094  -4.914  0.00  0.00    -0.503 OA
ATOM     23  H   UNL     1       5.894  -6.441  -5.728  0.00  0.00    +0.292 HD
ENDBRANCH  20  22
BRANCH  19  24
ATOM     24  O   UNL     1       6.975  -7.409  -2.992  0.00  0.00    -0.491 OA
ATOM     25  C   UNL     1       7.767  -8.023  -1.974  0.00  0.00    +0.277 C 
ENDBRANCH  19  24
ENDBRANCH  11  15
BRANCH   1  27
ATOM     26  C   UNL     1      -0.019   1.526   0.010  0.00  0.00    +0.011 C 
ATOM     27  C   UNL     1       0.002  -0.004   0.002  0.00  0.00    -0.035 C 
ATOM     28  C   UNL     1       0.742  -0.511   1.242  0.00  0.00    +0.011 C 
ATOM     29  C   UNL     1      -1.433  -0.534   0.013  0.00  0.00    +0.011 C 
ENDBRANCH   1  27
BRANCH   9  30
ATOM     30  O   UNL     1       2.180  -4.186  -4.903  0.00  0.00    -0.492 OA
ATOM     31  H   UNL     1       2.207  -4.956  -5.488  0.00  0.00    +0.294 HD
ENDBRANCH   9  30
TORSDOF 5
