REMARK  Name = ZINC16843850
REMARK  8 active torsions:
REMARK  status: ('A' for Active; 'I' for Inactive)
REMARK    1  A    between atoms: C_1  and  C_2
REMARK    2  A    between atoms: C_2  and  O_3
REMARK    3  A    between atoms: O_3  and  C_4
REMARK    4  A    between atoms: C_7  and  C_10
REMARK    5  A    between atoms: C_10  and  C_11
REMARK    6  A    between atoms: C_12  and  C_27
REMARK    7  A    between atoms: N_19  and  C_20
REMARK    8  A    between atoms: C_24  and  N_26
REMARK                            x       y       z     vdW  Elec       q    Type
REMARK                         _______ _______ _______ _____ _____    ______ ____
ROOT
ATOM      1  C   UNL     1       3.452   7.284   0.312  0.00  0.00    +0.042 A 
ATOM      2  C   UNL     1       3.422   5.924   0.201  0.00  0.00    +0.050 A 
ATOM      3  N   UNL     1       2.257   5.287   0.111  0.00  0.00    -0.221 NA
ATOM      4  C   UNL     1       1.114   5.942   0.126  0.00  0.00    +0.200 A 
ATOM      5  N   UNL     1       1.082   7.298   0.230  0.00  0.00    -0.295 N 
ATOM      6  H   UNL     1       0.232   7.766   0.236  0.00  0.00    +0.172 HD
ATOM      7  C   UNL     1       2.237   7.991   0.329  0.00  0.00    +0.256 A 
ATOM      8  O   UNL     1       2.226   9.207   0.427  0.00  0.00    -0.267 OA
ATOM      9  N   UNL     1      -0.063   5.246   0.030  0.00  0.00    -0.285 N 
ATOM     10  C   UNL     1       4.711   5.143   0.180  0.00  0.00    +0.066 C 
ATOM     11  H   UNL     1      -0.904   5.723  -0.042  0.00  0.00    +0.155 HD
ENDROOT
BRANCH   9  12
ATOM     12  C   UNL     1      -0.050   3.847   0.035  0.00  0.00    +0.035 A 
ATOM     13  C   UNL     1      -0.985   3.140  -0.711  0.00  0.00    +0.023 A 
ATOM     14  C   UNL     1      -0.973   1.759  -0.707  0.00  0.00    +0.004 A 
ATOM     15  C   UNL     1      -0.033   1.076   0.040  0.00  0.00    +0.023 A 
ATOM     16  C   UNL     1       0.901   1.776   0.793  0.00  0.00    +0.026 A 
ATOM     17  C   UNL     1       0.896   3.164   0.786  0.00  0.00    +0.046 A 
BRANCH  16  18
ATOM     18  N   UNL     1       1.848   1.085   1.552  0.00  0.00    -0.358 N 
ATOM     19  H   UNL     1       1.854   0.115   1.553  0.00  0.00    +0.142 HD
ATOM     20  H   UNL     1       2.500   1.574   2.077  0.00  0.00    +0.142 HD
ENDBRANCH  16  18
ENDBRANCH   9  12
BRANCH   1  21
ATOM     21  C   UNL     1       4.766   8.015   0.414  0.00  0.00    +0.077 C 
BRANCH  21  25
ATOM     22  C   UNL     1       5.965   9.336  -3.470  0.00  0.00    +0.121 A 
ATOM     23  C   UNL     1       5.181  10.154  -2.669  0.00  0.00    +0.046 A 
ATOM     24  C   UNL     1       4.795   9.725  -1.414  0.00  0.00    +0.007 A 
ATOM     25  C   UNL     1       5.189   8.481  -0.956  0.00  0.00    -0.043 A 
ATOM     26  C   UNL     1       5.974   7.666  -1.750  0.00  0.00    +0.007 A 
ATOM     27  C   UNL     1       6.359   8.089  -3.007  0.00  0.00    +0.046 A 
BRANCH  22  28
ATOM     28  O   UNL     1       6.346   9.756  -4.704  0.00  0.00    -0.492 OA
BRANCH  28  30
ATOM     29  C   UNL     1       7.480   9.503  -6.824  0.00  0.00    +0.048 C 
ATOM     30  C   UNL     1       7.153   8.861  -5.473  0.00  0.00    +0.225 C 
ENDBRANCH  28  30
ENDBRANCH  22  28
ENDBRANCH  21  25
ENDBRANCH   1  21
TORSDOF 6
