REMARK  Name = ZINC36545616
REMARK  16 active torsions:
REMARK  status: ('A' for Active; 'I' for Inactive)
REMARK    1  A    between atoms: C_1  and  C_2
REMARK    2  A    between atoms: C_2  and  C_3
REMARK    3  A    between atoms: C_2  and  C_4
REMARK    4  A    between atoms: C_2  and  N_5
REMARK    5  A    between atoms: C_6  and  C_8
REMARK    6  A    between atoms: C_8  and  C_10
REMARK    7  A    between atoms: C_8  and  N_19
REMARK    8  A    between atoms: C_11  and  O_18
REMARK    9  A    between atoms: C_13  and  O_17
REMARK   10  A    between atoms: C_15  and  O_16
REMARK   11  A    between atoms: N_19  and  C_20
REMARK   12  A    between atoms: C_27  and  C_29
REMARK   13  A    between atoms: C_29  and  C_30
REMARK   14  A    between atoms: C_30  and  C_31
REMARK   15  A    between atoms: C_34  and  O_37
REMARK   16  A    between atoms: O_37  and  C_38
REMARK                            x       y       z     vdW  Elec       q    Type
REMARK                         _______ _______ _______ _____ _____    ______ ____
ROOT
ATOM      1  C   UNL     1       2.894  -0.213  -2.801  0.00  0.00    +0.204 C 
ENDROOT
BRANCH   1   2
ATOM      2  C   UNL     1       2.457  -0.997  -4.012  0.00  0.00    +0.065 A 
ATOM      3  C   UNL     1       3.213  -2.073  -4.451  0.00  0.00    +0.129 A 
ATOM      4  C   UNL     1       2.812  -2.794  -5.566  0.00  0.00    +0.091 A 
ATOM      5  C   UNL     1       1.653  -2.439  -6.241  0.00  0.00    +0.124 A 
ATOM      6  C   UNL     1       0.897  -1.363  -5.801  0.00  0.00    +0.091 A 
ATOM      7  C   UNL     1       1.296  -0.645  -4.684  0.00  0.00    +0.129 A 
BRANCH   7   8
ATOM      8  O   UNL     1       0.552   0.406  -4.250  0.00  0.00    -0.506 OA
ATOM      9  H   UNL     1       0.802   1.254  -4.644  0.00  0.00    +0.292 HD
ENDBRANCH   7   8
BRANCH   5  10
ATOM     10  O   UNL     1       1.260  -3.145  -7.333  0.00  0.00    -0.507 OA
ATOM     11  H   UNL     1       0.678  -3.890  -7.131  0.00  0.00    +0.292 HD
ENDBRANCH   5  10
BRANCH   3  12
ATOM     12  O   UNL     1       4.348  -2.421  -3.790  0.00  0.00    -0.506 OA
ATOM     13  H   UNL     1       4.223  -3.123  -3.137  0.00  0.00    +0.292 HD
ENDBRANCH   3  12
ENDBRANCH   1   2
BRANCH   1  15
ATOM     14  N   UNL     1       1.543  -0.835  -0.824  0.00  0.00    -0.309 N 
ATOM     15  C   UNL     1       2.655  -1.033  -1.560  0.00  0.00    +0.239 C 
ATOM     16  O   UNL     1       3.464  -1.872  -1.222  0.00  0.00    -0.273 OA
ATOM     17  H   UNL     1       0.896  -0.165  -1.095  0.00  0.00    +0.149 HD
BRANCH  14  19
ATOM     18  C   UNL     1       2.455  -1.403   1.373  0.00  0.00    +0.031 C 
ATOM     19  C   UNL     1       1.312  -1.633   0.383  0.00  0.00    +0.026 C 
ATOM     20  C   UNL     1       1.249  -3.115   0.010  0.00  0.00    +0.031 C 
ATOM     21  C   UNL     1      -0.012  -1.212   1.025  0.00  0.00    +0.031 C 
ENDBRANCH  14  19
ENDBRANCH   1  15
BRANCH   1  22
ATOM     22  N   UNL     1       4.320   0.102  -2.912  0.00  0.00    -0.254 N 
ATOM     23  C   UNL     1       4.814   0.595  -4.065  0.00  0.00    +0.221 C 
ATOM     24  O   UNL     1       4.077   0.777  -5.011  0.00  0.00    -0.275 OA
BRANCH  22  25
ATOM     25  C   UNL     1       5.170  -0.109  -1.820  0.00  0.00    +0.056 A 
ATOM     26  C   UNL     1       5.998  -1.223  -1.787  0.00  0.00    +0.025 A 
ATOM     27  C   UNL     1       6.836  -1.428  -0.708  0.00  0.00    +0.002 A 
ATOM     28  C   UNL     1       6.851  -0.526   0.339  0.00  0.00    +0.002 A 
ATOM     29  C   UNL     1       6.028   0.585   0.311  0.00  0.00    +0.022 A 
ATOM     30  C   UNL     1       5.192   0.800  -0.768  0.00  0.00    +0.062 A 
ATOM     31 CL   UNL     1       4.165   2.199  -0.807  0.00  0.00    -0.082 Cl
ENDBRANCH  22  25
BRANCH  23  32
ATOM     32  C   UNL     1       6.281   0.919  -4.178  0.00  0.00    +0.101 C 
BRANCH  32  33
ATOM     33  C   UNL     1       6.577   1.459  -5.579  0.00  0.00    +0.044 C 
BRANCH  33  34
ATOM     34  C   UNL     1       8.045   1.783  -5.693  0.00  0.00    -0.047 A 
ATOM     35  C   UNL     1       8.501   3.044  -5.356  0.00  0.00    +0.007 A 
ATOM     36  C   UNL     1       9.845   3.344  -5.460  0.00  0.00    +0.046 A 
ATOM     37  C   UNL     1      10.738   2.379  -5.902  0.00  0.00    +0.120 A 
ATOM     38  C   UNL     1      10.278   1.114  -6.239  0.00  0.00    +0.046 A 
ATOM     39  C   UNL     1       8.933   0.818  -6.129  0.00  0.00    +0.007 A 
BRANCH  37  40
ATOM     40  O   UNL     1      12.061   2.671  -6.005  0.00  0.00    -0.495 OA
ATOM     41  C   UNL     1      12.922   1.629  -6.468  0.00  0.00    +0.277 C 
ENDBRANCH  37  40
ENDBRANCH  33  34
ENDBRANCH  32  33
ENDBRANCH  23  32
ENDBRANCH   1  22
TORSDOF 12
