REMARK  Name = ZINC39653156
REMARK  12 active torsions:
REMARK  status: ('A' for Active; 'I' for Inactive)
REMARK    1  A    between atoms: C_1  and  C_2
REMARK    2  A    between atoms: C_2  and  O_3
REMARK    3  A    between atoms: O_3  and  C_4
REMARK    4  A    between atoms: C_8  and  C_10
REMARK    5  A    between atoms: C_14  and  C_23
REMARK    6  A    between atoms: N_25  and  C_26
REMARK    7  A    between atoms: C_26  and  C_27
REMARK    8  A    between atoms: C_27  and  C_28
REMARK    9  A    between atoms: C_30  and  O_36
REMARK   10  A    between atoms: C_32  and  O_34
REMARK   11  A    between atoms: O_34  and  C_35
REMARK   12  A    between atoms: O_36  and  C_37
REMARK                            x       y       z     vdW  Elec       q    Type
REMARK                         _______ _______ _______ _____ _____    ______ ____
ROOT
ATOM      1  C   UNL     1      -4.283  -4.371   0.007  0.00  0.00    +0.247 C 
ATOM      2  O   UNL     1      -5.258  -3.655   0.124  0.00  0.00    -0.270 OA
ATOM      3  N   UNL     1      -4.437  -5.706  -0.102  0.00  0.00    -0.296 N 
ATOM      4  C   UNL     1      -3.379  -6.743  -0.123  0.00  0.00    +0.121 C 
ATOM      5  C   UNL     1      -3.959  -7.909   0.710  0.00  0.00    +0.100 C 
ATOM      6  C   UNL     1      -5.484  -7.723   0.635  0.00  0.00    -0.004 C 
ATOM      7  C   UNL     1      -5.703  -6.468  -0.222  0.00  0.00    +0.115 C 
ATOM      8  C   UNL     1      -6.132  -8.935  -0.027  0.00  0.00    -0.010 C 
ATOM      9  C   UNL     1      -7.653  -8.753  -0.037  0.00  0.00    -0.082 C 
ATOM     10  N   UNL     1      -8.139  -8.604   1.340  0.00  0.00    +0.379 N 
ATOM     11  C   UNL     1      -7.583  -7.385   1.938  0.00  0.00    -0.082 C 
ATOM     12  C   UNL     1      -6.059  -7.509   2.032  0.00  0.00    -0.010 C 
ATOM     13  H   UNL     1      -9.146  -8.546   1.335  0.00  0.00    -0.086 HD
ATOM     14  H   UNL     1      -7.854  -9.405   1.884  0.00  0.00    -0.086 HD
ENDROOT
BRANCH   1  19
ATOM     15  C   UNL     1      -0.612  -3.897  -0.651  0.00  0.00    +0.121 A 
ATOM     16  C   UNL     1      -0.390  -2.664  -0.052  0.00  0.00    +0.046 A 
ATOM     17  C   UNL     1      -1.430  -1.991   0.562  0.00  0.00    +0.004 A 
ATOM     18  C   UNL     1      -2.695  -2.541   0.584  0.00  0.00    +0.013 A 
ATOM     19  C   UNL     1      -2.928  -3.779  -0.015  0.00  0.00    +0.040 A 
ATOM     20  C   UNL     1      -1.879  -4.454  -0.640  0.00  0.00    +0.058 A 
BRANCH  15  21
ATOM     21  O   UNL     1       0.414  -4.553  -1.254  0.00  0.00    -0.492 OA
BRANCH  21  23
ATOM     22  C   UNL     1       2.715  -4.802  -1.950  0.00  0.00    +0.048 C 
ATOM     23  C   UNL     1       1.694  -3.920  -1.228  0.00  0.00    +0.225 C 
ENDBRANCH  21  23
ENDBRANCH  15  21
ENDBRANCH   1  19
BRANCH   5  24
ATOM     24  C   UNL     1      -3.559  -9.232   0.109  0.00  0.00    +0.218 C 
ATOM     25  O   UNL     1      -3.291  -9.306  -1.071  0.00  0.00    -0.275 OA
ATOM     26  N   UNL     1      -3.500 -10.333   0.884  0.00  0.00    -0.315 N 
ATOM     27  H   UNL     1      -3.715 -10.274   1.828  0.00  0.00    +0.149 HD
BRANCH  26  28
ATOM     28  C   UNL     1      -3.112 -11.620   0.301  0.00  0.00    +0.109 C 
BRANCH  28  29
ATOM     29  C   UNL     1      -3.124 -12.697   1.387  0.00  0.00    +0.054 C 
BRANCH  29  30
ATOM     30  C   UNL     1      -2.724 -14.020   0.787  0.00  0.00    -0.039 A 
ATOM     31  C   UNL     1      -3.689 -14.858   0.260  0.00  0.00    +0.049 A 
ATOM     32  C   UNL     1      -3.323 -16.077  -0.293  0.00  0.00    +0.124 A 
ATOM     33  C   UNL     1      -1.989 -16.454  -0.317  0.00  0.00    +0.091 A 
ATOM     34  C   UNL     1      -1.023 -15.611   0.211  0.00  0.00    +0.124 A 
ATOM     35  C   UNL     1      -1.393 -14.391   0.758  0.00  0.00    +0.049 A 
BRANCH  34  36
ATOM     36  O   UNL     1       0.285 -15.978   0.189  0.00  0.00    -0.495 OA
ATOM     37  C   UNL     1       0.594 -17.245  -0.394  0.00  0.00    +0.277 C 
ENDBRANCH  34  36
BRANCH  32  38
ATOM     38  O   UNL     1      -4.272 -16.901  -0.810  0.00  0.00    -0.495 OA
ATOM     39  C   UNL     1      -3.823 -18.140  -1.363  0.00  0.00    +0.277 C 
ENDBRANCH  32  38
ENDBRANCH  29  30
ENDBRANCH  28  29
ENDBRANCH  26  28
ENDBRANCH   5  24
TORSDOF 9
