REMARK  Name = ZINC38936629
REMARK  4 active torsions:
REMARK  status: ('A' for Active; 'I' for Inactive)
REMARK    1  A    between atoms: C_6  and  C_7
REMARK    2  A    between atoms: C_7  and  C_12
REMARK    3  A    between atoms: N_14  and  C_15
REMARK    4  A    between atoms: C_15  and  C_16
REMARK                            x       y       z     vdW  Elec       q    Type
REMARK                         _______ _______ _______ _____ _____    ______ ____
ROOT
ATOM      1  C   UNL     1      -2.045  -0.505   1.288  0.00  0.00    +0.224 C 
ATOM      2  O   UNL     1      -2.244  -1.405   2.077  0.00  0.00    -0.275 OA
ATOM      3  N   UNL     1      -2.498   0.737   1.554  0.00  0.00    -0.312 N 
ATOM      4  H   UNL     1      -2.403   1.440   0.892  0.00  0.00    +0.149 HD
ENDROOT
BRANCH   1   5
ATOM      5  C   UNL     1      -1.293  -0.775   0.010  0.00  0.00    +0.072 C 
ATOM      6  C   UNL     1      -2.137  -0.341  -1.201  0.00  0.00    +0.021 C 
ATOM      7  C   UNL     1      -2.371  -1.606  -2.051  0.00  0.00    +0.001 C 
ATOM      8  C   UNL     1      -2.207  -2.774  -1.048  0.00  0.00    +0.001 C 
ATOM      9  C   UNL     1      -1.045  -2.289  -0.146  0.00  0.00    +0.021 C 
BRANCH   5  15
ATOM     10  C   UNL     1       0.431   0.630   1.158  0.00  0.00    +0.006 A 
ATOM     11  C   UNL     1       1.635   1.309   1.165  0.00  0.00    +0.020 A 
ATOM     12  C   UNL     1       2.428   1.324   0.032  0.00  0.00    +0.041 A 
ATOM     13  C   UNL     1       2.015   0.658  -1.109  0.00  0.00    +0.020 A 
ATOM     14  C   UNL     1       0.811  -0.020  -1.115  0.00  0.00    +0.006 A 
ATOM     15  C   UNL     1       0.019  -0.035   0.018  0.00  0.00    -0.032 A 
ATOM     16 CL   UNL     1       3.939   2.177   0.040  0.00  0.00    -0.084 Cl
ENDBRANCH   5  15
ENDBRANCH   1   5
BRANCH   3  17
ATOM     17  C   UNL     1      -3.132   1.024   2.843  0.00  0.00    +0.138 C 
BRANCH  17  18
ATOM     18  C   UNL     1      -3.551   2.495   2.888  0.00  0.00    +0.164 C 
ATOM     19  C   UNL     1      -4.173   2.846   4.263  0.00  0.00    +0.196 C 
ATOM     20  O   UNL     1      -3.907   4.266   4.352  0.00  0.00    -0.346 OA
ATOM     21  C   UNL     1      -2.620   4.438   3.735  0.00  0.00    +0.171 C 
ATOM     22  O   UNL     1      -2.397   3.357   2.818  0.00  0.00    -0.342 OA
ATOM     23  C   UNL     1      -1.535   4.435   4.813  0.00  0.00    +0.065 C 
ATOM     24  C   UNL     1      -1.783   5.588   5.788  0.00  0.00    +0.005 C 
ATOM     25  C   UNL     1      -1.750   6.915   5.028  0.00  0.00    +0.000 C 
ATOM     26  C   UNL     1      -2.841   6.917   3.954  0.00  0.00    +0.005 C 
ATOM     27  C   UNL     1      -2.594   5.766   2.976  0.00  0.00    +0.065 C 
ENDBRANCH  17  18
ENDBRANCH   3  17
TORSDOF 4
