REMARK  Name = ZINC35486977
REMARK  10 active torsions:
REMARK  status: ('A' for Active; 'I' for Inactive)
REMARK    1  A    between atoms: C_1  and  N_2
REMARK    2  A    between atoms: N_2  and  C_3
REMARK    3  A    between atoms: N_2  and  C_4
REMARK    4  A    between atoms: C_4  and  C_5
REMARK    5  A    between atoms: C_5  and  C_6
REMARK    6  A    between atoms: C_6  and  N_7
REMARK    7  A    between atoms: C_8  and  C_24
REMARK    8  A    between atoms: C_27  and  O_30
REMARK    9  A    between atoms: O_30  and  C_31
REMARK   10  A    between atoms: C_31  and  C_32
REMARK                            x       y       z     vdW  Elec       q    Type
REMARK                         _______ _______ _______ _____ _____    ______ ____
ROOT
ATOM      1  N   UNL     1       4.282  -0.140  -2.368  0.00  0.00    -0.284 N 
ATOM      2  C   UNL     1       4.836   1.119  -2.890  0.00  0.00    +0.144 C 
ATOM      3  C   UNL     1       6.302   1.067  -2.610  0.00  0.00    +0.072 A 
ATOM      4  C   UNL     1       7.377   2.021  -2.902  0.00  0.00    +0.199 A 
ATOM      5  O   UNL     1       7.173   3.152  -3.305  0.00  0.00    -0.287 OA
ATOM      6  C   UNL     1       8.737   1.476  -2.660  0.00  0.00    +0.065 A 
ATOM      7  C   UNL     1       9.865   2.184  -3.076  0.00  0.00    +0.030 A 
ATOM      8  C   UNL     1      11.119   1.661  -2.848  0.00  0.00    +0.019 A 
ATOM      9  C   UNL     1      11.256   0.436  -2.207  0.00  0.00    +0.019 A 
ATOM     10  C   UNL     1      10.150  -0.269  -1.791  0.00  0.00    +0.048 A 
ATOM     11  C   UNL     1       8.870   0.239  -2.008  0.00  0.00    +0.140 A 
ATOM     12  O   UNL     1       7.800  -0.470  -1.580  0.00  0.00    -0.450 OA
ATOM     13  C   UNL     1       6.563  -0.116  -1.978  0.00  0.00    +0.199 A 
ATOM     14  C   UNL     1       5.295  -0.852  -1.834  0.00  0.00    +0.283 C 
ATOM     15  O   UNL     1       5.179  -1.943  -1.311  0.00  0.00    -0.267 OA
ATOM     16 BR   UNL     1      12.655   2.612  -3.407  0.00  0.00    -0.050 Br
ENDROOT
BRANCH   2  17
ATOM     17  C   UNL     1       4.212   2.295  -2.183  0.00  0.00    -0.022 A 
ATOM     18  C   UNL     1       3.980   2.237  -0.821  0.00  0.00    +0.009 A 
ATOM     19  C   UNL     1       3.407   3.313  -0.171  0.00  0.00    +0.046 A 
ATOM     20  C   UNL     1       3.066   4.452  -0.885  0.00  0.00    +0.121 A 
ATOM     21  C   UNL     1       3.300   4.508  -2.251  0.00  0.00    +0.046 A 
ATOM     22  C   UNL     1       3.877   3.431  -2.896  0.00  0.00    +0.009 A 
BRANCH  20  23
ATOM     23  O   UNL     1       2.502   5.511  -0.247  0.00  0.00    -0.483 OA
BRANCH  23  24
ATOM     24  C   UNL     1       2.176   6.651  -1.046  0.00  0.00    +0.324 C 
BRANCH  24  25
ATOM     25  C   UNL     1       1.565   7.717  -0.174  0.00  0.00    +0.248 C 
ATOM     26  O   UNL     1       1.423   7.521   1.015  0.00  0.00    -0.272 OA
ATOM     27  N   UNL     1       1.177   8.889  -0.714  0.00  0.00    -0.327 N 
ATOM     28  H   UNL     1       1.291   9.046  -1.665  0.00  0.00    +0.145 HD
ATOM     29  H   UNL     1       0.784   9.576  -0.153  0.00  0.00    +0.145 HD
ENDBRANCH  24  25
ENDBRANCH  23  24
ENDBRANCH  20  23
ENDBRANCH   2  17
BRANCH   1  30
ATOM     30  C   UNL     1       2.875  -0.547  -2.416  0.00  0.00    +0.107 C 
BRANCH  30  31
ATOM     31  C   UNL     1       2.159  -0.053  -1.157  0.00  0.00    +0.000 C 
BRANCH  31  32
ATOM     32  C   UNL     1       0.690  -0.478  -1.207  0.00  0.00    -0.078 C 
BRANCH  32  34
ATOM     33  C   UNL     1      -0.018   1.465   0.010  0.00  0.00    -0.097 C 
ATOM     34  N   UNL     1       0.002  -0.004   0.002  0.00  0.00    +0.376 N 
ATOM     35  C   UNL     1      -1.376  -0.512   0.012  0.00  0.00    -0.097 C 
ATOM     36  H   UNL     1       0.490  -0.338   0.820  0.00  0.00    -0.083 HD
ENDBRANCH  32  34
ENDBRANCH  31  32
ENDBRANCH  30  31
ENDBRANCH   1  30
TORSDOF 8
