REMARK  Name = ZINC09588528
REMARK  7 active torsions:
REMARK  status: ('A' for Active; 'I' for Inactive)
REMARK    1  A    between atoms: C_1  and  O_2
REMARK    2  A    between atoms: O_2  and  C_3
REMARK    3  A    between atoms: C_3  and  C_5
REMARK    4  A    between atoms: C_5  and  C_6
REMARK    5  A    between atoms: C_6  and  N_7
REMARK    6  A    between atoms: N_16  and  C_17
REMARK    7  A    between atoms: C_17  and  C_19
REMARK                            x       y       z     vdW  Elec       q    Type
REMARK                         _______ _______ _______ _____ _____    ______ ____
ROOT
ATOM      1  N   UNL     1       7.128   6.261  -0.031  0.00  0.00    -0.318 N 
ATOM      2  C   UNL     1       8.152   7.194  -0.036  0.00  0.00    +0.093 A 
ATOM      3  C   UNL     1       9.538   6.946  -0.051  0.00  0.00    +0.151 A 
ATOM      4  C   UNL     1      10.441   7.984  -0.054  0.00  0.00    +0.078 A 
ATOM      5  C   UNL     1      10.019   9.304  -0.043  0.00  0.00    +0.127 A 
ATOM      6  C   UNL     1       8.661   9.577  -0.028  0.00  0.00    +0.055 A 
ATOM      7  C   UNL     1       7.758   8.539  -0.025  0.00  0.00    +0.044 A 
ATOM      8  S   UNL     1       5.984   8.447  -0.016  0.00  0.00    -0.052 S 
ATOM      9  C   UNL     1       5.829   6.669  -0.017  0.00  0.00    +0.167 A 
ATOM     10  N   UNL     1       4.725   5.930  -0.010  0.00  0.00    -0.152 NA
ATOM     11  F   UNL     1      10.919  10.312  -0.047  0.00  0.00    -0.205 F 
ATOM     12  F   UNL     1       9.987   5.672  -0.062  0.00  0.00    -0.203 F 
ENDROOT
BRANCH  10  13
ATOM     13  C   UNL     1       3.524   6.521   0.005  0.00  0.00    +0.276 C 
ATOM     14  O   UNL     1       3.443   7.738   0.013  0.00  0.00    -0.268 OA
BRANCH  13  15
ATOM     15  C   UNL     1       2.298   5.700   0.012  0.00  0.00    +0.124 A 
ATOM     16  C   UNL     1       2.373   4.315   0.003  0.00  0.00    +0.032 A 
ATOM     17  C   UNL     1       1.176   3.572   0.010  0.00  0.00    +0.026 A 
ATOM     18  C   UNL     1       1.208   2.107   0.002  0.00  0.00    -0.007 A 
ATOM     19  C   UNL     1       2.414   1.402  -0.014  0.00  0.00    +0.009 A 
ATOM     20  C   UNL     1       2.398   0.037  -0.021  0.00  0.00    +0.001 A 
ATOM     21  C   UNL     1       1.196  -0.662  -0.013  0.00  0.00    +0.001 A 
ATOM     22  C   UNL     1       0.002  -0.004   0.002  0.00  0.00    +0.008 A 
ATOM     23  C   UNL     1      -0.017   1.400   0.010  0.00  0.00    -0.017 A 
ATOM     24  C   UNL     1      -1.231   2.115   0.019  0.00  0.00    +0.012 A 
ATOM     25  C   UNL     1      -1.245   3.471   0.033  0.00  0.00    +0.047 A 
ATOM     26  C   UNL     1      -0.065   4.223   0.025  0.00  0.00    +0.140 A 
ATOM     27  O   UNL     1      -0.132   5.571   0.034  0.00  0.00    -0.422 OA
ATOM     28  C   UNL     1       0.976   6.330   0.028  0.00  0.00    +0.350 A 
ATOM     29  O   UNL     1       0.881   7.544   0.036  0.00  0.00    -0.244 OA
ENDBRANCH  13  15
ENDBRANCH  10  13
BRANCH   1  30
ATOM     30  C   UNL     1       7.444   4.831  -0.042  0.00  0.00    +0.135 C 
BRANCH  30  31
ATOM     31  C   UNL     1       7.541   4.340  -1.488  0.00  0.00    +0.142 C 
BRANCH  31  32
ATOM     32  C   UNL     1       7.866   2.869  -1.498  0.00  0.00    +0.309 C 
ATOM     33  O   UNL     1       8.006   2.274  -0.457  0.00  0.00    -0.251 OA
BRANCH  32  35
ATOM     34  C   UNL     1       8.313   0.803  -2.600  0.00  0.00    +0.280 C 
ATOM     35  O   UNL     1       8.000   2.220  -2.666  0.00  0.00    -0.468 OA
ENDBRANCH  32  35
ENDBRANCH  31  32
ENDBRANCH  30  31
ENDBRANCH   1  30
TORSDOF 6
