REMARK  Name = ZINC39780992
REMARK  10 active torsions:
REMARK  status: ('A' for Active; 'I' for Inactive)
REMARK    1  A    between atoms: N_9  and  C_25
REMARK    2  A    between atoms: C_10  and  S_12
REMARK    3  A    between atoms: S_12  and  C_13
REMARK    4  A    between atoms: C_13  and  C_14
REMARK    5  A    between atoms: C_14  and  C_16
REMARK    6  A    between atoms: C_25  and  C_26
REMARK    7  A    between atoms: C_26  and  C_27
REMARK    8  A    between atoms: C_27  and  C_28
REMARK    9  A    between atoms: C_28  and  C_29
REMARK   10  A    between atoms: C_29  and  C_30
REMARK                            x       y       z     vdW  Elec       q    Type
REMARK                         _______ _______ _______ _____ _____    ______ ____
ROOT
ATOM      1  C   UNL     1      -0.017   1.363   0.009  0.00  0.00    +0.001 A 
ATOM      2  C   UNL     1       1.168   2.089   0.002  0.00  0.00    +0.002 A 
ATOM      3  C   UNL     1       2.379   1.458  -0.013  0.00  0.00    +0.028 A 
ATOM      4  C   UNL     1       2.432   0.061  -0.021  0.00  0.00    +0.079 A 
ATOM      5  C   UNL     1       1.224  -0.674  -0.013  0.00  0.00    +0.065 A 
ATOM      6  C   UNL     1       0.002  -0.004   0.002  0.00  0.00    +0.015 A 
ATOM      7  C   UNL     1       1.305  -2.141  -0.021  0.00  0.00    +0.262 A 
ATOM      8  O   UNL     1       0.301  -2.829  -0.015  0.00  0.00    -0.267 OA
ATOM      9  N   UNL     1       2.538  -2.699  -0.036  0.00  0.00    -0.287 N 
ATOM     10  C   UNL     1       3.654  -1.911  -0.043  0.00  0.00    +0.173 A 
ATOM     11  N   UNL     1       3.605  -0.602  -0.036  0.00  0.00    -0.223 NA
ENDROOT
BRANCH  10  12
ATOM     12  S   UNL     1       5.234  -2.693  -0.062  0.00  0.00    -0.080 S 
BRANCH  12  13
ATOM     13  C   UNL     1       6.407  -1.310  -0.066  0.00  0.00    +0.156 C 
BRANCH  13  14
ATOM     14  C   UNL     1       7.816  -1.846  -0.082  0.00  0.00    +0.172 C 
ATOM     15  O   UNL     1       8.008  -3.045  -0.090  0.00  0.00    -0.291 OA
BRANCH  14  16
ATOM     16  C   UNL     1       8.910  -0.955  -0.088  0.00  0.00    +0.024 C 
ATOM     17  C   UNL     1      10.254  -1.282  -0.108  0.00  0.00    +0.006 A 
ATOM     18  C   UNL     1      10.944  -2.516  -0.127  0.00  0.00    +0.010 A 
ATOM     19  C   UNL     1      12.296  -2.541  -0.144  0.00  0.00    +0.001 A 
ATOM     20  C   UNL     1      13.071  -1.371  -0.144  0.00  0.00    +0.002 A 
ATOM     21  C   UNL     1      12.511  -0.142  -0.127  0.00  0.00    +0.026 A 
ATOM     22  C   UNL     1      11.043  -0.025  -0.108  0.00  0.00    +0.043 A 
ATOM     23  N   UNL     1      10.253   1.010  -0.089  0.00  0.00    -0.380 N 
ATOM     24  C   UNL     1       8.859   0.557  -0.081  0.00  0.00    +0.152 C 
ATOM     25  H   UNL     1      10.542   1.936  -0.085  0.00  0.00    +0.160 HD
ENDBRANCH  14  16
ENDBRANCH  13  14
ENDBRANCH  12  13
ENDBRANCH  10  12
BRANCH   9  26
ATOM     26  C   UNL     1       2.677  -4.157  -0.044  0.00  0.00    +0.127 C 
BRANCH  26  27
ATOM     27  C   UNL     1       2.711  -4.658  -1.489  0.00  0.00    +0.022 C 
BRANCH  27  28
ATOM     28  C   UNL     1       2.856  -6.181  -1.498  0.00  0.00    +0.002 C 
BRANCH  28  29
ATOM     29  C   UNL     1       2.890  -6.683  -2.943  0.00  0.00    +0.009 C 
BRANCH  29  30
ATOM     30  C   UNL     1       3.035  -8.206  -2.951  0.00  0.00    +0.095 C 
BRANCH  30  31
ATOM     31  C   UNL     1       3.069  -8.699  -4.375  0.00  0.00    +0.210 C 
ATOM     32  O   UNL     1       2.985  -7.910  -5.293  0.00  0.00    -0.276 OA
ATOM     33  N   UNL     1       3.192 -10.017  -4.629  0.00  0.00    -0.329 N 
ATOM     34  H   UNL     1       3.259 -10.648  -3.895  0.00  0.00    +0.145 HD
ATOM     35  H   UNL     1       3.213 -10.335  -5.545  0.00  0.00    +0.145 HD
ENDBRANCH  30  31
ENDBRANCH  29  30
ENDBRANCH  28  29
ENDBRANCH  27  28
ENDBRANCH  26  27
ENDBRANCH   9  26
TORSDOF 10
