REMARK  Name = ZINC64428104
REMARK  8 active torsions:
REMARK  status: ('A' for Active; 'I' for Inactive)
REMARK    1  A    between atoms: C_1  and  C_2
REMARK    2  A    between atoms: C_4  and  C_31
REMARK    3  A    between atoms: C_11  and  O_15
REMARK    4  A    between atoms: O_15  and  C_16
REMARK    5  A    between atoms: C_16  and  C_18
REMARK    6  A    between atoms: C_18  and  C_20
REMARK    7  A    between atoms: C_18  and  N_30
REMARK    8  A    between atoms: C_20  and  C_21
REMARK                            x       y       z     vdW  Elec       q    Type
REMARK                         _______ _______ _______ _____ _____    ______ ____
ROOT
ATOM      1  C   UNL     1       0.140   1.702  -0.099  0.00  0.00    +0.053 C 
ATOM      2  C   UNL     1       0.052   0.176  -0.051  0.00  0.00    +0.185 C 
ATOM      3  C   UNL     1       0.747  -0.416  -1.286  0.00  0.00    +0.131 C 
ATOM      4  C   UNL     1       2.203   0.011  -1.230  0.00  0.00    +0.178 C 
ATOM      5  O   UNL     1       2.806   0.352  -2.226  0.00  0.00    -0.291 OA
ATOM      6  C   UNL     1       2.843  -0.009   0.094  0.00  0.00    +0.060 A 
ATOM      7  C   UNL     1       4.229   0.120   0.218  0.00  0.00    +0.018 A 
ATOM      8  C   UNL     1       4.804   0.106   1.457  0.00  0.00    +0.047 A 
ATOM      9  C   UNL     1       4.015  -0.038   2.595  0.00  0.00    +0.135 A 
ATOM     10  C   UNL     1       2.639  -0.171   2.487  0.00  0.00    +0.092 A 
ATOM     11  C   UNL     1       2.040  -0.160   1.238  0.00  0.00    +0.135 A 
ATOM     12  O   UNL     1       0.698  -0.301   1.129  0.00  0.00    -0.487 OA
ENDROOT
BRANCH   3  13
ATOM     13  C   UNL     1       0.650  -1.920  -1.258  0.00  0.00    -0.030 A 
ATOM     14  C   UNL     1       1.193  -2.625  -0.199  0.00  0.00    +0.008 A 
ATOM     15  C   UNL     1       1.107  -4.006  -0.166  0.00  0.00    +0.050 A 
ATOM     16  C   UNL     1       0.475  -4.679  -1.198  0.00  0.00    +0.162 A 
ATOM     17  C   UNL     1      -0.069  -3.972  -2.260  0.00  0.00    +0.162 A 
ATOM     18  C   UNL     1       0.014  -2.590  -2.288  0.00  0.00    +0.054 A 
ATOM     19  O   UNL     1      -0.691  -4.645  -3.271  0.00  0.00    -0.488 OA
ATOM     20  C   UNL     1       0.154  -5.445  -4.100  0.00  0.00    +0.232 C 
ATOM     21  C   UNL     1       0.381  -6.814  -3.478  0.00  0.00    +0.082 C 
ATOM     22  C   UNL     1       1.146  -6.734  -2.167  0.00  0.00    +0.232 C 
ATOM     23  O   UNL     1       0.383  -6.041  -1.177  0.00  0.00    -0.488 OA
ENDBRANCH   3  13
BRANCH   9  24
ATOM     24  O   UNL     1       4.598  -0.049   3.821  0.00  0.00    -0.425 OA
BRANCH  24  25
ATOM     25  C   UNL     1       5.136   1.096   4.273  0.00  0.00    +0.330 C 
ATOM     26  O   UNL     1       5.001   2.117   3.643  0.00  0.00    -0.249 OA
BRANCH  25  27
ATOM     27  C   UNL     1       5.907   1.106   5.568  0.00  0.00    +0.165 C 
BRANCH  27  28
ATOM     28  N   UNL     1       5.975   2.479   6.087  0.00  0.00    -0.318 NA
ATOM     29  H   UNL     1       6.437   3.090   5.430  0.00  0.00    +0.119 HD
ATOM     30  H   UNL     1       5.056   2.824   6.318  0.00  0.00    +0.119 HD
ENDBRANCH  27  28
BRANCH  27  31
ATOM     31  C   UNL     1       7.323   0.582   5.322  0.00  0.00    +0.063 C 
BRANCH  31  32
ATOM     32  C   UNL     1       8.055   0.476   6.635  0.00  0.00    -0.040 C 
ATOM     33  C   UNL     1       8.177  -0.624   7.412  0.00  0.00    -0.001 A 
ATOM     34  C   UNL     1       7.684  -2.000   7.272  0.00  0.00    +0.010 A 
ATOM     35  C   UNL     1       7.974  -2.902   8.236  0.00  0.00    +0.001 A 
ATOM     36  C   UNL     1       8.732  -2.558   9.364  0.00  0.00    +0.002 A 
ATOM     37  C   UNL     1       9.220  -1.315   9.562  0.00  0.00    +0.026 A 
ATOM     38  C   UNL     1       8.976  -0.286   8.611  0.00  0.00    +0.043 A 
ATOM     39  N   UNL     1       9.334   0.975   8.578  0.00  0.00    -0.380 N 
ATOM     40  C   UNL     1       8.807   1.578   7.349  0.00  0.00    +0.144 C 
ATOM     41  H   UNL     1       9.862   1.431   9.251  0.00  0.00    +0.160 HD
ENDBRANCH  31  32
ENDBRANCH  27  31
ENDBRANCH  25  27
ENDBRANCH  24  25
ENDBRANCH   9  24
TORSDOF 7
