REMARK  Name = ZINC13029268
REMARK  16 active torsions:
REMARK  status: ('A' for Active; 'I' for Inactive)
REMARK    1  A    between atoms: C_1  and  C_2
REMARK    2  A    between atoms: C_2  and  C_3
REMARK    3  A    between atoms: C_2  and  C_4
REMARK    4  A    between atoms: C_2  and  N_5
REMARK    5  A    between atoms: C_6  and  C_8
REMARK    6  A    between atoms: C_8  and  C_10
REMARK    7  A    between atoms: C_8  and  N_20
REMARK    8  A    between atoms: C_14  and  O_18
REMARK    9  A    between atoms: C_15  and  O_16
REMARK   10  A    between atoms: O_16  and  C_17
REMARK   11  A    between atoms: O_18  and  C_19
REMARK   12  A    between atoms: N_20  and  C_21
REMARK   13  A    between atoms: C_21  and  C_22
REMARK   14  A    between atoms: C_22  and  C_23
REMARK   15  A    between atoms: C_29  and  C_31
REMARK   16  A    between atoms: C_31  and  N_32
REMARK                            x       y       z     vdW  Elec       q    Type
REMARK                         _______ _______ _______ _____ _____    ______ ____
ROOT
ATOM      1  N   UNL     1      -5.415   3.333  -1.591  0.00  0.00    -0.284 N 
ATOM      2  C   UNL     1      -4.075   3.375  -1.449  0.00  0.00    +0.238 C 
ATOM      3  O   UNL     1      -3.363   3.446  -2.428  0.00  0.00    -0.274 OA
ENDROOT
BRANCH   1   4
ATOM      4  C   UNL     1      -6.011   3.372  -2.929  0.00  0.00    +0.196 C 
BRANCH   4   5
ATOM      5  C   UNL     1      -7.023   4.486  -2.995  0.00  0.00    +0.027 A 
ATOM      6  C   UNL     1      -8.374   4.197  -2.936  0.00  0.00    +0.010 A 
ATOM      7  C   UNL     1      -9.305   5.217  -2.991  0.00  0.00    +0.004 A 
ATOM      8  C   UNL     1      -8.890   6.530  -3.117  0.00  0.00    +0.049 A 
ATOM      9  C   UNL     1      -7.538   6.826  -3.183  0.00  0.00    +0.162 A 
ATOM     10  C   UNL     1      -6.601   5.799  -3.122  0.00  0.00    +0.167 A 
BRANCH  10  11
ATOM     11  O   UNL     1      -5.272   6.084  -3.186  0.00  0.00    -0.491 OA
ATOM     12  C   UNL     1      -4.701   6.226  -4.488  0.00  0.00    +0.277 C 
ENDBRANCH  10  11
BRANCH   9  13
ATOM     13  O   UNL     1      -7.128   8.117  -3.307  0.00  0.00    -0.491 OA
ATOM     14  C   UNL     1      -8.146   9.118  -3.364  0.00  0.00    +0.277 C 
ENDBRANCH   9  13
ENDBRANCH   4   5
BRANCH   4  16
ATOM     15  N   UNL     1      -7.080   1.759  -4.470  0.00  0.00    -0.309 N 
ATOM     16  C   UNL     1      -6.691   2.057  -3.214  0.00  0.00    +0.239 C 
ATOM     17  O   UNL     1      -6.888   1.268  -2.314  0.00  0.00    -0.273 OA
ATOM     18  H   UNL     1      -6.853   2.353  -5.202  0.00  0.00    +0.149 HD
BRANCH  15  20
ATOM     19  C   UNL     1      -9.154   0.578  -3.935  0.00  0.00    +0.031 C 
ATOM     20  C   UNL     1      -7.846   0.537  -4.728  0.00  0.00    +0.026 C 
ATOM     21  C   UNL     1      -8.159   0.437  -6.222  0.00  0.00    +0.031 C 
ATOM     22  C   UNL     1      -7.026  -0.680  -4.296  0.00  0.00    +0.031 C 
ENDBRANCH  15  20
ENDBRANCH   4  16
ENDBRANCH   1   4
BRANCH   1  23
ATOM     23  C   UNL     1      -6.275   3.247  -0.408  0.00  0.00    +0.113 C 
BRANCH  23  24
ATOM     24  C   UNL     1      -6.499   4.649   0.161  0.00  0.00    +0.054 C 
BRANCH  24  25
ATOM     25  C   UNL     1      -7.280   4.550   1.447  0.00  0.00    -0.046 A 
ATOM     26  C   UNL     1      -8.661   4.596   1.422  0.00  0.00    +0.004 A 
ATOM     27  C   UNL     1      -9.377   4.500   2.601  0.00  0.00    +0.000 A 
ATOM     28  C   UNL     1      -8.711   4.369   3.805  0.00  0.00    +0.000 A 
ATOM     29  C   UNL     1      -7.330   4.329   3.830  0.00  0.00    +0.000 A 
ATOM     30  C   UNL     1      -6.614   4.419   2.651  0.00  0.00    +0.004 A 
ENDBRANCH  24  25
ENDBRANCH  23  24
ENDBRANCH   1  23
BRANCH   2  31
ATOM     31  C   UNL     1      -3.462   3.335  -0.073  0.00  0.00    +0.241 C 
BRANCH  31  32
ATOM     32  N   UNL     1      -2.003   3.394  -0.187  0.00  0.00    -0.235 N 
ATOM     33  C   UNL     1      -1.143   2.328  -0.300  0.00  0.00    +0.090 A 
ATOM     34  C   UNL     1      -1.315   0.949  -0.350  0.00  0.00    +0.029 A 
ATOM     35  C   UNL     1      -0.225   0.132  -0.466  0.00  0.00    +0.002 A 
ATOM     36  C   UNL     1       1.054   0.667  -0.545  0.00  0.00    +0.002 A 
ATOM     37  C   UNL     1       1.249   2.016  -0.504  0.00  0.00    +0.032 A 
ATOM     38  C   UNL     1       0.149   2.876  -0.380  0.00  0.00    +0.113 A 
ATOM     39  N   UNL     1       0.030   4.217  -0.314  0.00  0.00    -0.129 NA
ATOM     40  N   UNL     1      -1.208   4.550  -0.201  0.00  0.00    -0.064 NA
ENDBRANCH  31  32
ENDBRANCH   2  31
TORSDOF 11
