REMARK  Name = ZINC25460061
REMARK  10 active torsions:
REMARK  status: ('A' for Active; 'I' for Inactive)
REMARK    1  A    between atoms: C_1  and  O_2
REMARK    2  A    between atoms: O_2  and  C_3
REMARK    3  A    between atoms: C_3  and  C_5
REMARK    4  A    between atoms: C_6  and  C_22
REMARK    5  A    between atoms: N_7  and  C_19
REMARK    6  A    between atoms: C_11  and  C_13
REMARK    7  A    between atoms: C_22  and  S_23
REMARK    8  A    between atoms: S_23  and  C_24
REMARK    9  A    between atoms: C_27  and  C_30
REMARK   10  A    between atoms: N_28  and  N_29
REMARK                            x       y       z     vdW  Elec       q    Type
REMARK                         _______ _______ _______ _____ _____    ______ ____
ROOT
ATOM      1  C   UNL     1      -1.811   0.729   1.732  0.00  0.00    +0.079 C 
ATOM      2  C   UNL     1      -1.052   1.648   1.097  0.00  0.00    +0.037 C 
ATOM      3  N   UNL     1      -0.671   2.801   1.722  0.00  0.00    -0.255 N 
ATOM      4  C   UNL     1      -1.016   3.115   2.977  0.00  0.00    +0.307 C 
ATOM      5  O   UNL     1      -0.633   4.168   3.446  0.00  0.00    -0.252 OA
ATOM      6  N   UNL     1      -1.771   2.298   3.738  0.00  0.00    -0.288 N 
ATOM      7  C   UNL     1      -2.230   1.024   3.158  0.00  0.00    +0.144 C 
ATOM      8  H   UNL     1      -2.046   2.563   4.770  0.00  0.00    +0.151 HD
ENDROOT
BRANCH   7   9
ATOM      9  C   UNL     1      -3.736   1.004   3.213  0.00  0.00    -0.023 A 
ATOM     10  C   UNL     1      -4.458   2.106   2.795  0.00  0.00    +0.006 A 
ATOM     11  C   UNL     1      -5.839   2.086   2.842  0.00  0.00    +0.000 A 
ATOM     12  C   UNL     1      -6.498   0.967   3.316  0.00  0.00    +0.000 A 
ATOM     13  C   UNL     1      -5.776  -0.133   3.739  0.00  0.00    +0.000 A 
ATOM     14  C   UNL     1      -4.395  -0.115   3.688  0.00  0.00    +0.006 A 
ENDBRANCH   7   9
BRANCH   3  15
ATOM     15  C   UNL     1       0.158   3.751   0.975  0.00  0.00    +0.083 C 
ATOM     16  C   UNL     1      -0.253   5.224   1.008  0.00  0.00    +0.025 C 
ATOM     17  C   UNL     1      -0.457   4.401  -0.266  0.00  0.00    +0.025 C 
ENDBRANCH   3  15
BRANCH   1  18
ATOM     18  C   UNL     1      -2.202  -0.468   1.087  0.00  0.00    +0.339 C 
ATOM     19  O   UNL     1      -1.760  -0.739  -0.013  0.00  0.00    -0.245 OA
BRANCH  18  21
ATOM     20  C   UNL     1      -3.418  -2.499   0.985  0.00  0.00    +0.280 C 
ATOM     21  O   UNL     1      -3.067  -1.309   1.693  0.00  0.00    -0.465 OA
ENDBRANCH  18  21
ENDBRANCH   1  18
BRANCH   2  22
ATOM     22  C   UNL     1      -0.613   1.394  -0.322  0.00  0.00    +0.129 C 
BRANCH  22  23
ATOM     23  S   UNL     1       0.995   0.562  -0.317  0.00  0.00    -0.079 S 
BRANCH  23  24
ATOM     24  C   UNL     1       1.258   0.393  -2.051  0.00  0.00    +0.209 A 
ATOM     25  N   UNL     1       0.448   0.795  -3.005  0.00  0.00    -0.121 NA
ATOM     26  N   UNL     1       0.948   0.514  -4.155  0.00  0.00    -0.127 NA
ATOM     27  C   UNL     1       2.107  -0.084  -4.006  0.00  0.00    +0.184 A 
ATOM     28  N   UNL     1       2.344  -0.174  -2.654  0.00  0.00    -0.224 N 
BRANCH  27  29
ATOM     29  C   UNL     1       2.994  -0.563  -5.088  0.00  0.00    +0.056 A 
ATOM     30  C   UNL     1       3.643  -1.792  -4.969  0.00  0.00    +0.014 A 
ATOM     31  C   UNL     1       4.465  -2.236  -5.984  0.00  0.00    +0.001 A 
ATOM     32  C   UNL     1       4.656  -1.461  -7.114  0.00  0.00    +0.003 A 
ATOM     33  C   UNL     1       4.022  -0.238  -7.237  0.00  0.00    +0.039 A 
ATOM     34  C   UNL     1       3.191   0.217  -6.231  0.00  0.00    +0.134 A 
ATOM     35  F   UNL     1       2.572   1.411  -6.351  0.00  0.00    -0.205 F 
ENDBRANCH  27  29
BRANCH  28  36
ATOM     36  N   UNL     1       3.436  -0.721  -2.042  0.00  0.00    -0.295 N 
ATOM     37  H   UNL     1       4.249  -1.148  -2.647  0.00  0.00    +0.163 HD
ATOM     38  H   UNL     1       3.503  -0.733  -0.944  0.00  0.00    +0.163 HD
ENDBRANCH  28  36
ENDBRANCH  23  24
ENDBRANCH  22  23
ENDBRANCH   2  22
TORSDOF 9
