REMARK  Name = ZINC39388387
REMARK  4 active torsions:
REMARK  status: ('A' for Active; 'I' for Inactive)
REMARK    1  A    between atoms: C_4  and  C_7
REMARK    2  A    between atoms: N_13  and  C_15
REMARK    3  A    between atoms: C_15  and  C_16
REMARK    4  A    between atoms: C_21  and  C_22
REMARK                            x       y       z     vdW  Elec       q    Type
REMARK                         _______ _______ _______ _____ _____    ______ ____
ROOT
ATOM      1  C   UNL     1       3.711  -0.707  -0.038  0.00  0.00    +0.153 C 
ATOM      2  C   UNL     1       4.043  -1.245   1.334  0.00  0.00    +0.008 C 
ATOM      3  C   UNL     1       4.441  -2.500   1.206  0.00  0.00    +0.129 C 
ATOM      4  C   UNL     1       4.848  -3.352   2.391  0.00  0.00    +0.092 C 
ATOM      5  C   UNL     1       5.109  -2.422   3.581  0.00  0.00    +0.092 C 
ATOM      6  N   UNL     1       3.977  -1.497   3.739  0.00  0.00    -0.297 NA
ATOM      7  C   UNL     1       3.947  -0.510   2.646  0.00  0.00    +0.120 C 
ATOM      8  O   UNL     1       4.442  -2.894  -0.090  0.00  0.00    -0.410 OA
ATOM      9  N   UNL     1       3.614  -1.943  -0.859  0.00  0.00    -0.144 NA
ATOM     10  H   UNL     1       3.993  -1.794  -1.783  0.00  0.00    +0.168 HD
ENDROOT
BRANCH   1  14
ATOM     11  C   UNL     1      -0.017   1.378   0.010  0.00  0.00    +0.000 A 
ATOM     12  C   UNL     1       1.171   2.086   0.002  0.00  0.00    +0.000 A 
ATOM     13  C   UNL     1       2.377   1.411  -0.013  0.00  0.00    +0.005 A 
ATOM     14  C   UNL     1       2.396   0.029  -0.020  0.00  0.00    -0.023 A 
ATOM     15  C   UNL     1       1.208  -0.679  -0.012  0.00  0.00    +0.005 A 
ATOM     16  C   UNL     1       0.002  -0.004   0.002  0.00  0.00    +0.000 A 
ENDBRANCH   1  14
BRANCH   6  17
ATOM     17  C   UNL     1       4.019  -0.831   5.048  0.00  0.00    +0.100 C 
BRANCH  17  18
ATOM     18  C   UNL     1       3.800  -1.866   6.153  0.00  0.00    +0.097 C 
ATOM     19  C   UNL     1       2.378  -2.391   6.119  0.00  0.00    +0.118 C 
ATOM     20  N   UNL     1       1.850  -2.072   7.255  0.00  0.00    -0.161 NA
ATOM     21  N   UNL     1       2.736  -1.386   8.080  0.00  0.00    -0.153 NA
ATOM     22  C   UNL     1       3.906  -1.219   7.520  0.00  0.00    +0.080 C 
BRANCH  22  23
ATOM     23  C   UNL     1       5.081  -0.545   8.094  0.00  0.00    -0.001 A 
ATOM     24  C   UNL     1       6.265  -0.446   7.356  0.00  0.00    +0.010 A 
ATOM     25  C   UNL     1       7.362   0.188   7.901  0.00  0.00    +0.001 A 
ATOM     26  C   UNL     1       7.293   0.724   9.175  0.00  0.00    +0.000 A 
ATOM     27  C   UNL     1       6.126   0.630   9.912  0.00  0.00    +0.001 A 
ATOM     28  C   UNL     1       5.018   0.005   9.378  0.00  0.00    +0.010 A 
ENDBRANCH  22  23
ENDBRANCH  17  18
ENDBRANCH   6  17
TORSDOF 4
