REMARK  Name = ZINC08965812
REMARK  7 active torsions:
REMARK  status: ('A' for Active; 'I' for Inactive)
REMARK    1  A    between atoms: C_1  and  C_2
REMARK    2  A    between atoms: C_15  and  C_17
REMARK    3  A    between atoms: C_17  and  S_18
REMARK    4  A    between atoms: S_18  and  C_19
REMARK    5  A    between atoms: C_23  and  S_29
REMARK    6  A    between atoms: N_27  and  C_28
REMARK    7  A    between atoms: S_29  and  N_32
REMARK                            x       y       z     vdW  Elec       q    Type
REMARK                         _______ _______ _______ _____ _____    ______ ____
ROOT
ATOM      1  C   UNL     1      -2.726   2.947  -2.299  0.00  0.00    +0.173 C 
ENDROOT
BRANCH   1  15
ATOM      2  C   UNL     1       0.002  -0.004   0.002  0.00  0.00    +0.029 C 
ATOM      3  C   UNL     1      -0.019   1.526   0.010  0.00  0.00    +0.087 C 
ATOM      4  C   UNL     1       1.417   2.054  -0.000  0.00  0.00    +0.118 C 
ATOM      5  C   UNL     1       1.431   3.509  -0.386  0.00  0.00    +0.219 C 
ATOM      6  O   UNL     1       1.613   4.356   0.463  0.00  0.00    -0.275 OA
ATOM      7  N   UNL     1       1.242   3.880  -1.673  0.00  0.00    -0.284 N 
ATOM      8  C   UNL     1       0.941   2.925  -2.651  0.00  0.00    +0.055 A 
ATOM      9  C   UNL     1       1.633   2.892  -3.850  0.00  0.00    +0.025 A 
ATOM     10  C   UNL     1       1.299   1.955  -4.811  0.00  0.00    +0.002 A 
ATOM     11  C   UNL     1       0.277   1.053  -4.579  0.00  0.00    +0.002 A 
ATOM     12  C   UNL     1      -0.411   1.073  -3.380  0.00  0.00    +0.025 A 
ATOM     13  C   UNL     1      -0.075   2.001  -2.407  0.00  0.00    +0.058 A 
ATOM     14  N   UNL     1      -0.734   2.009  -1.171  0.00  0.00    -0.266 N 
ATOM     15  C   UNL     1      -2.003   2.453  -1.073  0.00  0.00    +0.230 C 
ATOM     16  O   UNL     1      -2.563   2.454   0.003  0.00  0.00    -0.274 OA
ATOM     17  H   UNL     1       1.315   4.815  -1.919  0.00  0.00    +0.155 HD
ENDBRANCH   1  15
BRANCH   1  18
ATOM     18  S   UNL     1      -4.398   3.471  -1.844  0.00  0.00    -0.078 S 
BRANCH  18  19
ATOM     19  C   UNL     1      -4.997   3.986  -3.419  0.00  0.00    +0.170 A 
ATOM     20  N   UNL     1      -4.309   3.951  -4.534  0.00  0.00    -0.222 NA
ATOM     21  C   UNL     1      -5.074   4.416  -5.556  0.00  0.00    +0.092 A 
ATOM     22  C   UNL     1      -4.845   4.591  -6.923  0.00  0.00    +0.058 A 
ATOM     23  C   UNL     1      -5.841   5.105  -7.723  0.00  0.00    +0.107 A 
ATOM     24  C   UNL     1      -7.071   5.451  -7.182  0.00  0.00    +0.030 A 
ATOM     25  C   UNL     1      -7.312   5.285  -5.833  0.00  0.00    +0.030 A 
ATOM     26  C   UNL     1      -6.321   4.769  -5.013  0.00  0.00    +0.069 A 
ATOM     27  N   UNL     1      -6.245   4.486  -3.659  0.00  0.00    -0.322 N 
ATOM     28  C   UNL     1      -7.306   4.687  -2.669  0.00  0.00    +0.151 C 
BRANCH  23  29
ATOM     29  S   UNL     1      -5.552   5.325  -9.447  0.00  0.00    +0.056 S 
ATOM     30  O   UNL     1      -4.516   4.420  -9.804  0.00  0.00    -0.153 OA
ATOM     31  O   UNL     1      -6.826   5.312 -10.078  0.00  0.00    -0.153 OA
BRANCH  29  32
ATOM     32  N   UNL     1      -4.939   6.850  -9.650  0.00  0.00    -0.204 NA
ATOM     33  H   UNL     1      -4.328   7.033 -10.382  0.00  0.00    +0.144 HD
ATOM     34  H   UNL     1      -5.190   7.559  -9.039  0.00  0.00    +0.144 HD
ENDBRANCH  29  32
ENDBRANCH  23  29
ENDBRANCH  18  19
ENDBRANCH   1  18
TORSDOF 5
