REMARK  Name = ZINC04054757
REMARK  14 active torsions:
REMARK  status: ('A' for Active; 'I' for Inactive)
REMARK    1  A    between atoms: C_1  and  C_2
REMARK    2  A    between atoms: C_2  and  N_3
REMARK    3  A    between atoms: N_3  and  C_4
REMARK    4  A    between atoms: N_3  and  C_6
REMARK    5  A    between atoms: C_4  and  C_5
REMARK    6  A    between atoms: C_6  and  C_7
REMARK    7  A    between atoms: C_7  and  C_9
REMARK    8  A    between atoms: C_7  and  O_28
REMARK    9  A    between atoms: N_13  and  C_14
REMARK   10  A    between atoms: C_17  and  C_20
REMARK   11  A    between atoms: C_20  and  N_21
REMARK   12  A    between atoms: N_24  and  C_25
REMARK   13  A    between atoms: C_25  and  C_26
REMARK   14  A    between atoms: C_25  and  C_27
REMARK                            x       y       z     vdW  Elec       q    Type
REMARK                         _______ _______ _______ _____ _____    ______ ____
ROOT
ATOM      1  C   UNL     1      -0.321  -4.157   3.266  0.00  0.00    +0.046 A 
ATOM      2  C   UNL     1      -1.291  -3.401   2.624  0.00  0.00    +0.026 A 
ATOM      3  C   UNL     1      -2.489  -3.134   3.258  0.00  0.00    +0.007 A 
ATOM      4  C   UNL     1      -2.721  -3.619   4.532  0.00  0.00    -0.030 A 
ATOM      5  C   UNL     1      -1.756  -4.373   5.174  0.00  0.00    +0.007 A 
ATOM      6  C   UNL     1      -0.559  -4.648   4.543  0.00  0.00    +0.026 A 
ENDROOT
BRANCH   1  11
ATOM      7  C   UNL     1       1.754  -3.498   2.115  0.00  0.00    +0.050 A 
ATOM      8  C   UNL     1       2.812  -4.146   1.585  0.00  0.00    +0.025 A 
ATOM      9  C   UNL     1       2.598  -5.527   1.768  0.00  0.00    +0.020 A 
ATOM     10  C   UNL     1       1.418  -5.673   2.404  0.00  0.00    +0.091 A 
ATOM     11  N   UNL     1       0.896  -4.431   2.625  0.00  0.00    -0.318 N 
BRANCH   7  12
ATOM     12  C   UNL     1       1.556  -2.005   2.146  0.00  0.00    +0.145 C 
BRANCH  12  13
ATOM     13  O   UNL     1       2.108  -1.427   0.961  0.00  0.00    -0.388 OA
ATOM     14  H   UNL     1       3.039  -1.645   0.814  0.00  0.00    +0.210 HD
ENDBRANCH  12  13
BRANCH  12  15
ATOM     15  C   UNL     1       2.260  -1.422   3.373  0.00  0.00    -0.041 C 
BRANCH  15  16
ATOM     16  N   UNL     1       2.061   0.033   3.406  0.00  0.00    +0.381 N 
ATOM     17  H   UNL     1       2.356   0.433   2.528  0.00  0.00    -0.082 HD
BRANCH  16  19
ATOM     18  C   UNL     1       0.411   1.838   3.537  0.00  0.00    -0.017 C 
ATOM     19  C   UNL     1       0.639   0.328   3.626  0.00  0.00    -0.082 C 
ENDBRANCH  16  19
BRANCH  16  20
ATOM     20  C   UNL     1       2.855   0.611   4.499  0.00  0.00    -0.082 C 
ATOM     21  C   UNL     1       4.345   0.437   4.194  0.00  0.00    -0.017 C 
ENDBRANCH  16  20
ENDBRANCH  15  16
ENDBRANCH  12  15
ENDBRANCH   7  12
ENDBRANCH   1  11
BRANCH   4  22
ATOM     22  C   UNL     1      -4.029  -3.325   5.221  0.00  0.00    +0.141 C 
BRANCH  22  23
ATOM     23  N   UNL     1      -4.995  -4.381   4.907  0.00  0.00    -0.295 N 
ATOM     24  C   UNL     1      -6.241  -4.329   5.418  0.00  0.00    +0.300 C 
ATOM     25  O   UNL     1      -6.564  -3.404   6.139  0.00  0.00    -0.253 OA
ATOM     26  N   UNL     1      -7.129  -5.300   5.129  0.00  0.00    -0.297 N 
ATOM     27  H   UNL     1      -4.737  -5.119   4.332  0.00  0.00    +0.151 HD
ATOM     28  H   UNL     1      -6.872  -6.037   4.553  0.00  0.00    +0.150 HD
BRANCH  26  29
ATOM     29  C   UNL     1      -8.484  -5.242   5.684  0.00  0.00    +0.068 C 
ATOM     30  C   UNL     1      -9.366  -4.372   4.786  0.00  0.00    +0.027 C 
ATOM     31  C   UNL     1      -9.066  -6.655   5.754  0.00  0.00    +0.027 C 
ENDBRANCH  26  29
ENDBRANCH  22  23
ENDBRANCH   4  22
TORSDOF 10
