REMARK  Name = ZINC08442387
REMARK  8 active torsions:
REMARK  status: ('A' for Active; 'I' for Inactive)
REMARK    1  A    between atoms: C_1  and  C_2
REMARK    2  A    between atoms: C_2  and  C_3
REMARK    3  A    between atoms: N_9  and  C_10
REMARK    4  A    between atoms: C_13  and  N_37
REMARK    5  A    between atoms: C_15  and  C_16
REMARK    6  A    between atoms: N_17  and  N_18
REMARK    7  A    between atoms: C_19  and  C_21
REMARK    8  A    between atoms: C_21  and  N_22
REMARK                            x       y       z     vdW  Elec       q    Type
REMARK                         _______ _______ _______ _____ _____    ______ ____
ROOT
ATOM      1  N   UNL     1       1.216   2.268  -3.674  0.00  0.00    -0.206 N 
ATOM      2  C   UNL     1       0.748   1.460  -4.645  0.00  0.00    +0.252 C 
ATOM      3  O   UNL     1       0.744   0.257  -4.485  0.00  0.00    -0.272 OA
ATOM      4  H   UNL     1       1.219   3.229  -3.802  0.00  0.00    +0.177 HD
ENDROOT
BRANCH   1   6
ATOM      5  C   UNL     1       2.150   2.498  -1.543  0.00  0.00    +0.140 C 
ATOM      6  N   UNL     1       1.698   1.719  -2.478  0.00  0.00    -0.188 NA
BRANCH   5  12
ATOM      7  C   UNL     1       2.654   0.530  -0.095  0.00  0.00    +0.039 A 
ATOM      8  C   UNL     1       3.139  -0.002   1.091  0.00  0.00    +0.026 A 
ATOM      9  C   UNL     1       3.617   0.835   2.081  0.00  0.00    +0.034 A 
ATOM     10  C   UNL     1       3.616   2.208   1.899  0.00  0.00    +0.127 A 
ATOM     11  C   UNL     1       3.138   2.755   0.727  0.00  0.00    +0.044 A 
ATOM     12  C   UNL     1       2.657   1.921  -0.285  0.00  0.00    +0.018 A 
BRANCH   7  18
ATOM     13  C   UNL     1       0.755  -0.698  -1.129  0.00  0.00    +0.073 C 
ATOM     14  C   UNL     1       0.659  -2.226  -1.180  0.00  0.00    +0.022 C 
ATOM     15  C   UNL     1       1.480  -2.746  -2.362  0.00  0.00    +0.003 C 
ATOM     16  C   UNL     1       2.950  -2.361  -2.172  0.00  0.00    +0.019 C 
ATOM     17  C   UNL     1       3.072  -0.835  -2.133  0.00  0.00    +0.105 C 
ATOM     18  N   UNL     1       2.172  -0.312  -1.095  0.00  0.00    -0.326 N 
BRANCH  13  20
ATOM     19  C   UNL     1      -1.447  -0.471   0.029  0.00  0.00    +0.006 C 
ATOM     20  C   UNL     1       0.052  -0.182   0.128  0.00  0.00    +0.019 C 
ENDBRANCH  13  20
ENDBRANCH   7  18
BRANCH  10  21
ATOM     21  N   UNL     1       4.130   3.093   2.968  0.00  0.00    +0.056 N 
ATOM     22  O   UNL     1       4.549   2.618   3.998  0.00  0.00    -0.126 OA
ATOM     23  O   UNL     1       4.130   4.292   2.812  0.00  0.00    -0.126 OA
ENDBRANCH  10  21
ENDBRANCH   5  12
ENDBRANCH   1   6
BRANCH   2  24
ATOM     24  C   UNL     1       0.229   2.050  -5.931  0.00  0.00    +0.219 C 
BRANCH  24  25
ATOM     25  N   UNL     1      -0.219   0.972  -6.817  0.00  0.00    -0.331 N 
ATOM     26  C   UNL     1       0.669   0.393  -7.705  0.00  0.00    +0.054 A 
ATOM     27  C   UNL     1       1.774   1.093  -8.175  0.00  0.00    +0.026 A 
ATOM     28  C   UNL     1       2.646   0.484  -9.054  0.00  0.00    +0.002 A 
ATOM     29  C   UNL     1       2.434  -0.821  -9.476  0.00  0.00    +0.001 A 
ATOM     30  C   UNL     1       1.347  -1.529  -9.027  0.00  0.00    +0.014 A 
ATOM     31  C   UNL     1       0.455  -0.929  -8.141  0.00  0.00    +0.046 A 
ATOM     32  C   UNL     1      -0.737  -1.642  -7.635  0.00  0.00    +0.197 A 
ATOM     33  O   UNL     1      -0.804  -2.858  -7.609  0.00  0.00    -0.287 OA
ATOM     34  C   UNL     1      -1.841  -0.781  -7.162  0.00  0.00    +0.046 A 
ATOM     35  C   UNL     1      -1.529   0.531  -6.761  0.00  0.00    +0.054 A 
ATOM     36  C   UNL     1      -2.550   1.363  -6.317  0.00  0.00    +0.026 A 
ATOM     37  C   UNL     1      -3.844   0.890  -6.265  0.00  0.00    +0.002 A 
ATOM     38  C   UNL     1      -4.142  -0.409  -6.652  0.00  0.00    +0.001 A 
ATOM     39  C   UNL     1      -3.155  -1.240  -7.105  0.00  0.00    +0.014 A 
ENDBRANCH  24  25
ENDBRANCH   2  24
TORSDOF 7
