REMARK  Name = ZINC22309921
REMARK  9 active torsions:
REMARK  status: ('A' for Active; 'I' for Inactive)
REMARK    1  A    between atoms: C_1  and  C_2
REMARK    2  A    between atoms: C_2  and  N_3
REMARK    3  A    between atoms: C_7  and  S_27
REMARK    4  A    between atoms: C_11  and  S_12
REMARK    5  A    between atoms: S_12  and  C_13
REMARK    6  A    between atoms: C_13  and  C_14
REMARK    7  A    between atoms: C_22  and  C_26
REMARK    8  A    between atoms: C_23  and  C_25
REMARK    9  A    between atoms: S_27  and  N_30
REMARK                            x       y       z     vdW  Elec       q    Type
REMARK                         _______ _______ _______ _____ _____    ______ ____
ROOT
ATOM      1  N   UNL     1      -0.749   3.044   1.275  0.00  0.00    -0.319 N 
ATOM      2  C   UNL     1       0.208   3.876   1.833  0.00  0.00    +0.070 A 
ATOM      3  C   UNL     1       1.398   3.654   2.510  0.00  0.00    +0.030 A 
ATOM      4  C   UNL     1       2.147   4.725   2.952  0.00  0.00    +0.030 A 
ATOM      5  C   UNL     1       1.717   6.024   2.724  0.00  0.00    +0.107 A 
ATOM      6  C   UNL     1       0.543   6.263   2.047  0.00  0.00    +0.058 A 
ATOM      7  C   UNL     1      -0.230   5.189   1.597  0.00  0.00    +0.092 A 
ATOM      8  N   UNL     1      -1.410   5.104   0.929  0.00  0.00    -0.222 NA
ATOM      9  C   UNL     1      -1.718   3.845   0.739  0.00  0.00    +0.170 A 
ENDROOT
BRANCH   5  10
ATOM     10  S   UNL     1       2.688   7.379   3.297  0.00  0.00    +0.056 S 
ATOM     11  O   UNL     1       1.802   8.481   3.441  0.00  0.00    -0.153 OA
ATOM     12  O   UNL     1       3.475   6.888   4.374  0.00  0.00    -0.153 OA
BRANCH  10  13
ATOM     13  N   UNL     1       3.742   7.774   2.082  0.00  0.00    -0.204 NA
ATOM     14  H   UNL     1       4.369   8.619   2.402  0.00  0.00    +0.144 HD
ATOM     15  H   UNL     1       3.175   8.056   1.183  0.00  0.00    +0.144 HD
ENDBRANCH  10  13
ENDBRANCH   5  10
BRANCH   1  17
ATOM     16  C   UNL     1      -0.013   1.086   0.008  0.00  0.00    +0.027 C 
ATOM     17  C   UNL     1      -0.729   1.579   1.267  0.00  0.00    +0.121 C 
ENDBRANCH   1  17
BRANCH   9  18
ATOM     18  S   UNL     1      -3.165   3.269  -0.086  0.00  0.00    -0.083 S 
BRANCH  18  19
ATOM     19  C   UNL     1      -3.939   4.851  -0.502  0.00  0.00    +0.113 C 
BRANCH  19  20
ATOM     20  C   UNL     1      -5.232   4.600  -1.234  0.00  0.00    -0.020 A 
ATOM     21  C   UNL     1      -6.402   4.470  -0.560  0.00  0.00    +0.097 A 
ATOM     22  C   UNL     1      -7.599   4.236  -1.270  0.00  0.00    +0.338 A 
ATOM     23  O   UNL     1      -8.643   4.120  -0.653  0.00  0.00    -0.245 OA
ATOM     24  O   UNL     1      -7.617   4.135  -2.608  0.00  0.00    -0.422 OA
ATOM     25  C   UNL     1      -6.488   4.255  -3.339  0.00  0.00    +0.140 A 
ATOM     26  C   UNL     1      -5.261   4.495  -2.697  0.00  0.00    +0.022 A 
ATOM     27  C   UNL     1      -4.091   4.626  -3.451  0.00  0.00    +0.015 A 
ATOM     28  C   UNL     1      -4.152   4.522  -4.823  0.00  0.00    -0.047 A 
ATOM     29  C   UNL     1      -5.364   4.290  -5.456  0.00  0.00    -0.044 A 
ATOM     30  C   UNL     1      -6.525   4.149  -4.723  0.00  0.00    +0.050 A 
ATOM     31  C   UNL     1      -5.413   4.179  -6.958  0.00  0.00    +0.044 C 
ATOM     32  C   UNL     1      -2.894   4.662  -5.641  0.00  0.00    +0.044 C 
ENDBRANCH  19  20
ENDBRANCH  18  19
ENDBRANCH   9  18
TORSDOF 6
