REMARK  Name = ZINC66384219
REMARK  8 active torsions:
REMARK  status: ('A' for Active; 'I' for Inactive)
REMARK    1  A    between atoms: C_1  and  C_2
REMARK    2  A    between atoms: C_2  and  C_4
REMARK    3  A    between atoms: C_2  and  N_14
REMARK    4  A    between atoms: N_6  and  C_7
REMARK    5  A    between atoms: C_7  and  C_8
REMARK    6  A    between atoms: N_17  and  C_18
REMARK    7  A    between atoms: C_18  and  C_19
REMARK    8  A    between atoms: C_19  and  N_20
REMARK                            x       y       z     vdW  Elec       q    Type
REMARK                         _______ _______ _______ _____ _____    ______ ____
ROOT
ATOM      1  N   UNL     1       0.711  -0.489   1.189  0.00  0.00    -0.288 N 
ATOM      2  C   UNL     1       2.054  -0.600   1.174  0.00  0.00    +0.300 C 
ATOM      3  O   UNL     1       2.677  -0.297   0.175  0.00  0.00    -0.253 OA
ATOM      4  N   UNL     1       2.706  -1.046   2.266  0.00  0.00    -0.301 N 
ATOM      5  H   UNL     1       0.213  -0.731   1.986  0.00  0.00    +0.151 HD
ATOM      6  H   UNL     1       2.208  -1.288   3.062  0.00  0.00    +0.150 HD
ENDROOT
BRANCH   1   8
ATOM      7  C   UNL     1      -0.019   1.526   0.010  0.00  0.00    +0.038 C 
ATOM      8  C   UNL     1       0.002  -0.004   0.002  0.00  0.00    +0.157 C 
BRANCH   8   9
ATOM      9  C   UNL     1      -1.412  -0.526   0.013  0.00  0.00    +0.233 C 
ATOM     10  O   UNL     1      -1.790  -1.233   0.922  0.00  0.00    -0.274 OA
ATOM     11  N   UNL     1      -2.256  -0.206  -0.988  0.00  0.00    -0.310 N 
ATOM     12  H   UNL     1      -1.953   0.360  -1.716  0.00  0.00    +0.149 HD
BRANCH  11  13
ATOM     13  C   UNL     1      -3.630  -0.713  -0.978  0.00  0.00    +0.139 C 
BRANCH  13  14
ATOM     14  C   UNL     1      -4.359  -0.214  -2.199  0.00  0.00    -0.030 A 
ATOM     15  C   UNL     1      -5.042   0.987  -2.153  0.00  0.00    +0.005 A 
ATOM     16  C   UNL     1      -5.710   1.445  -3.273  0.00  0.00    +0.000 A 
ATOM     17  C   UNL     1      -5.696   0.702  -4.439  0.00  0.00    +0.000 A 
ATOM     18  C   UNL     1      -5.012  -0.498  -4.485  0.00  0.00    +0.000 A 
ATOM     19  C   UNL     1      -4.340  -0.954  -3.366  0.00  0.00    +0.005 A 
ENDBRANCH  13  14
ENDBRANCH  11  13
ENDBRANCH   8   9
ENDBRANCH   1   8
BRANCH   4  20
ATOM     20  C   UNL     1       4.166  -1.166   2.249  0.00  0.00    +0.087 C 
BRANCH  20  21
ATOM     21  C   UNL     1       4.649  -1.692   3.602  0.00  0.00    -0.059 C 
BRANCH  21  22
ATOM     22  N   UNL     1       6.114  -1.812   3.586  0.00  0.00    +0.384 N 
ATOM     23  C   UNL     1       6.559  -2.457   4.828  0.00  0.00    -0.073 C 
ATOM     24  C   UNL     1       8.030  -2.880   4.668  0.00  0.00    +0.024 C 
ATOM     25  C   UNL     1       8.773  -1.717   4.096  0.00  0.00    -0.011 A 
ATOM     26  C   UNL     1       8.224  -0.602   3.536  0.00  0.00    -0.054 A 
ATOM     27  C   UNL     1       9.114   0.362   3.071  0.00  0.00    +0.009 A 
ATOM     28  C   UNL     1      10.448   0.163   3.184  0.00  0.00    +0.045 A 
ATOM     29  S   UNL     1      10.517  -1.438   3.975  0.00  0.00    -0.101 S 
ATOM     30  C   UNL     1       6.706  -0.476   3.450  0.00  0.00    -0.042 C 
ATOM     31  H   UNL     1       6.391  -2.380   2.799  0.00  0.00    -0.081 HD
ENDBRANCH  21  22
ENDBRANCH  20  21
ENDBRANCH   4  20
TORSDOF 7
