REMARK  Name = ZINC32118854
REMARK  7 active torsions:
REMARK  status: ('A' for Active; 'I' for Inactive)
REMARK    1  A    between atoms: C_3  and  C_6
REMARK    2  A    between atoms: N_8  and  N_9
REMARK    3  A    between atoms: N_9  and  C_10
REMARK    4  A    between atoms: C_10  and  N_12
REMARK    5  A    between atoms: C_13  and  C_15
REMARK    6  A    between atoms: C_16  and  C_17
REMARK    7  A    between atoms: C_21  and  N_23
REMARK                            x       y       z     vdW  Elec       q    Type
REMARK                         _______ _______ _______ _____ _____    ______ ____
ROOT
ATOM      1  N   UNL     1      -4.971   1.226   0.035  0.00  0.00    -0.263 N 
ATOM      2  C   UNL     1      -6.223   0.728   0.039  0.00  0.00    +0.242 C 
ATOM      3  O   UNL     1      -7.178   1.482   0.048  0.00  0.00    -0.270 OA
ATOM      4  H   UNL     1      -4.108   0.544   0.027  0.00  0.00    +0.157 HD
ENDROOT
BRANCH   1   5
ATOM      5  C   UNL     1      -4.776   2.560   0.041  0.00  0.00    +0.153 C 
ATOM      6  S   UNL     1      -6.120   3.620   0.053  0.00  0.00    -0.017 S 
BRANCH   5   7
ATOM      7  N   UNL     1      -3.524   3.058   0.037  0.00  0.00    -0.245 N 
ATOM      8  H   UNL     1      -3.365   4.146   0.042  0.00  0.00    +0.172 HD
BRANCH   7  11
ATOM      9  C   UNL     1      -1.173   2.688   0.022  0.00  0.00    +0.267 C 
ATOM     10  O   UNL     1      -0.997   3.893   0.028  0.00  0.00    -0.268 OA
ATOM     11  N   UNL     1      -2.425   2.190   0.027  0.00  0.00    -0.231 N 
ATOM     12  H   UNL     1      -2.583   1.101   0.022  0.00  0.00    +0.173 HD
BRANCH   9  15
ATOM     13  C   UNL     1       2.208   1.027  -0.013  0.00  0.00    +0.008 A 
ATOM     14  C   UNL     1       1.330   2.083   0.001  0.00  0.00    +0.021 A 
ATOM     15  C   UNL     1      -0.022   1.780   0.012  0.00  0.00    +0.075 A 
ATOM     16  S   UNL     1       0.002  -0.004   0.002  0.00  0.00    -0.092 S 
ATOM     17  C   UNL     1       1.719  -0.241  -0.016  0.00  0.00    +0.046 A 
ENDBRANCH   9  15
ENDBRANCH   7  11
ENDBRANCH   5   7
ENDBRANCH   1   5
BRANCH   2  18
ATOM     18  C   UNL     1      -6.434  -0.720   0.033  0.00  0.00    +0.068 C 
ATOM     19  C   UNL     1      -7.688  -1.219   0.037  0.00  0.00    +0.013 C 
BRANCH  19  20
ATOM     20  C   UNL     1      -7.900  -2.675   0.031  0.00  0.00    -0.023 A 
ATOM     21  C   UNL     1      -6.805  -3.545   0.021  0.00  0.00    +0.009 A 
ATOM     22  C   UNL     1      -7.011  -4.907   0.015  0.00  0.00    +0.023 A 
ATOM     23  C   UNL     1      -8.300  -5.416   0.020  0.00  0.00    +0.071 A 
ATOM     24  C   UNL     1      -9.389  -4.561   0.030  0.00  0.00    +0.145 A 
ATOM     25  C   UNL     1      -9.198  -3.196   0.041  0.00  0.00    +0.042 A 
ATOM     26 CL   UNL     1      -8.550  -7.134   0.013  0.00  0.00    -0.081 Cl
BRANCH  24  27
ATOM     27  N   UNL     1     -10.762  -5.114   0.035  0.00  0.00    +0.058 N 
ATOM     28  O   UNL     1     -11.722  -4.363   0.044  0.00  0.00    -0.126 OA
ATOM     29  O   UNL     1     -10.933  -6.320   0.030  0.00  0.00    -0.126 OA
ENDBRANCH  24  27
ENDBRANCH  19  20
ENDBRANCH   2  18
TORSDOF 7
