REMARK  Name = ZINC39748743
REMARK  13 active torsions:
REMARK  status: ('A' for Active; 'I' for Inactive)
REMARK    1  A    between atoms: C_1  and  C_2
REMARK    2  A    between atoms: C_2  and  C_4
REMARK    3  A    between atoms: C_2  and  S_14
REMARK    4  A    between atoms: N_6  and  C_7
REMARK    5  A    between atoms: C_12  and  O_13
REMARK    6  A    between atoms: S_14  and  C_15
REMARK    7  A    between atoms: C_18  and  C_21
REMARK    8  A    between atoms: N_19  and  C_20
REMARK    9  A    between atoms: C_21  and  C_23
REMARK   10  A    between atoms: C_21  and  N_26
REMARK   11  A    between atoms: C_23  and  C_24
REMARK   12  A    between atoms: C_23  and  C_25
REMARK   13  A    between atoms: C_27  and  C_29
REMARK                            x       y       z     vdW  Elec       q    Type
REMARK                         _______ _______ _______ _____ _____    ______ ____
ROOT
ATOM      1  C   UNL     1      -0.144  -0.128   2.818  0.00  0.00    +0.192 A 
ATOM      2  N   UNL     1      -1.276   0.532   2.737  0.00  0.00    -0.122 NA
ATOM      3  N   UNL     1      -1.751   0.733   3.914  0.00  0.00    -0.132 NA
ATOM      4  C   UNL     1      -0.957   0.218   4.810  0.00  0.00    +0.155 A 
ATOM      5  N   UNL     1       0.092  -0.354   4.144  0.00  0.00    -0.308 N 
ATOM      6  C   UNL     1       1.234  -1.059   4.732  0.00  0.00    +0.152 C 
ENDROOT
BRANCH   1   7
ATOM      7  S   UNL     1       0.874  -0.632   1.472  0.00  0.00    -0.074 S 
BRANCH   7   9
ATOM      8  C   UNL     1      -0.028   1.507   0.026  0.00  0.00    +0.029 C 
ATOM      9  C   UNL     1      -0.003  -0.023   0.006  0.00  0.00    +0.137 C 
BRANCH   9  10
ATOM     10  C   UNL     1       0.706  -0.497  -1.237  0.00  0.00    +0.230 C 
ATOM     11  O   UNL     1       1.864  -0.853  -1.176  0.00  0.00    -0.274 OA
ATOM     12  N   UNL     1       0.053  -0.526  -2.415  0.00  0.00    -0.282 N 
ATOM     13  H   UNL     1      -0.891  -0.303  -2.453  0.00  0.00    +0.155 HD
BRANCH  12  14
ATOM     14  C   UNL     1       0.737  -0.877  -3.587  0.00  0.00    +0.075 A 
ATOM     15  C   UNL     1       1.748  -1.826  -3.544  0.00  0.00    +0.027 A 
ATOM     16  C   UNL     1       2.421  -2.171  -4.700  0.00  0.00    +0.002 A 
ATOM     17  C   UNL     1       2.088  -1.573  -5.902  0.00  0.00    +0.004 A 
ATOM     18  C   UNL     1       1.082  -0.627  -5.953  0.00  0.00    +0.047 A 
ATOM     19  C   UNL     1       0.399  -0.280  -4.799  0.00  0.00    +0.138 A 
BRANCH  19  20
ATOM     20  O   UNL     1      -0.596   0.646  -4.848  0.00  0.00    -0.505 OA
ATOM     21  H   UNL     1      -0.294   1.555  -4.711  0.00  0.00    +0.292 HD
ENDBRANCH  19  20
ENDBRANCH  12  14
ENDBRANCH   9  10
ENDBRANCH   7   9
ENDBRANCH   1   7
BRANCH   4  22
ATOM     22  C   UNL     1      -1.160   0.242   6.303  0.00  0.00    +0.144 C 
BRANCH  22  23
ATOM     23  N   UNL     1      -2.550  -0.104   6.612  0.00  0.00    -0.301 N 
ATOM     24  C   UNL     1      -2.861  -0.634   7.812  0.00  0.00    +0.245 C 
ATOM     25  O   UNL     1      -1.989  -0.824   8.637  0.00  0.00    -0.270 OA
ATOM     26  H   UNL     1      -3.245   0.048   5.954  0.00  0.00    +0.150 HD
BRANCH  24  27
ATOM     27  C   UNL     1      -4.263  -0.983   8.124  0.00  0.00    +0.037 A 
ATOM     28  C   UNL     1      -5.266  -0.771   7.176  0.00  0.00    +0.013 A 
ATOM     29  C   UNL     1      -6.572  -1.100   7.474  0.00  0.00    +0.001 A 
ATOM     30  C   UNL     1      -6.890  -1.638   8.708  0.00  0.00    +0.000 A 
ATOM     31  C   UNL     1      -5.901  -1.850   9.652  0.00  0.00    +0.001 A 
ATOM     32  C   UNL     1      -4.589  -1.532   9.365  0.00  0.00    +0.013 A 
ENDBRANCH  24  27
ENDBRANCH  22  23
BRANCH  22  33
ATOM     33  C   UNL     1      -0.853   1.643   6.837  0.00  0.00    +0.011 C 
ATOM     34  C   UNL     1      -1.059   1.667   8.352  0.00  0.00    +0.009 C 
ATOM     35  C   UNL     1       0.598   2.005   6.514  0.00  0.00    +0.009 C 
ENDBRANCH  22  33
ENDBRANCH   4  22
TORSDOF 9
