REMARK  Name = ZINC20884618
REMARK  7 active torsions:
REMARK  status: ('A' for Active; 'I' for Inactive)
REMARK    1  A    between atoms: C_1  and  C_2
REMARK    2  A    between atoms: C_10  and  C_13
REMARK    3  A    between atoms: C_18  and  C_23
REMARK    4  A    between atoms: C_25  and  O_31
REMARK    5  A    between atoms: C_28  and  O_29
REMARK    6  A    between atoms: O_29  and  C_30
REMARK    7  A    between atoms: O_31  and  C_32
REMARK                            x       y       z     vdW  Elec       q    Type
REMARK                         _______ _______ _______ _____ _____    ______ ____
ROOT
ATOM      1  C   UNL     1       1.788   4.118   1.260  0.00  0.00    +0.143 C 
ATOM      2  C   UNL     1       3.260   3.824   1.415  0.00  0.00    +0.037 C 
ATOM      3  C   UNL     1       3.961   2.911   0.719  0.00  0.00    +0.017 C 
ATOM      4  C   UNL     1       5.447   2.723   0.969  0.00  0.00    +0.060 C 
ATOM      5  C   UNL     1       5.771   3.010   2.434  0.00  0.00    +0.036 C 
ATOM      6  C   UNL     1       5.356   4.457   2.728  0.00  0.00    +0.088 C 
ATOM      7  C   UNL     1       3.901   4.611   2.401  0.00  0.00    +0.163 C 
ATOM      8  O   UNL     1       3.250   5.442   3.003  0.00  0.00    -0.292 OA
ATOM      9  N   UNL     1       3.436   2.110  -0.243  0.00  0.00    -0.316 N 
ATOM     10  C   UNL     1       2.247   1.401  -0.125  0.00  0.00    +0.052 A 
ATOM     11  C   UNL     1       2.206   0.018  -0.148  0.00  0.00    +0.025 A 
ATOM     12  C   UNL     1       0.980  -0.625  -0.119  0.00  0.00    +0.002 A 
ATOM     13  C   UNL     1      -0.192   0.107  -0.066  0.00  0.00    +0.002 A 
ATOM     14  C   UNL     1      -0.152   1.491  -0.025  0.00  0.00    +0.025 A 
ATOM     15  C   UNL     1       1.074   2.135  -0.036  0.00  0.00    +0.049 A 
ATOM     16  N   UNL     1       1.173   3.521   0.093  0.00  0.00    -0.331 N 
ATOM     17  H   UNL     1       3.961   1.985  -1.201  0.00  0.00    +0.152 HD
ATOM     18  H   UNL     1       0.774   4.161  -0.707  0.00  0.00    +0.147 HD
ENDROOT
BRANCH   1  28
ATOM     19  C   UNL     1      -3.995   4.038   6.091  0.00  0.00    +0.044 C 
ATOM     20  C   UNL     1      -2.650   3.547   5.622  0.00  0.00    -0.050 A 
ATOM     21  C   UNL     1      -1.985   2.563   6.340  0.00  0.00    +0.007 A 
ATOM     22  C   UNL     1      -0.754   2.100   5.927  0.00  0.00    +0.047 A 
ATOM     23  C   UNL     1      -0.168   2.620   4.779  0.00  0.00    +0.138 A 
ATOM     24  C   UNL     1      -0.842   3.616   4.054  0.00  0.00    +0.065 A 
ATOM     25  C   UNL     1      -2.086   4.076   4.482  0.00  0.00    +0.018 A 
ATOM     26  C   UNL     1      -0.196   4.157   2.842  0.00  0.00    +0.198 A 
ATOM     27  O   UNL     1      -0.728   5.026   2.172  0.00  0.00    -0.287 OA
ATOM     28  C   UNL     1       1.070   3.619   2.486  0.00  0.00    +0.059 A 
ATOM     29  C   UNL     1       1.625   2.665   3.255  0.00  0.00    +0.205 A 
ATOM     30  O   UNL     1       1.036   2.184   4.354  0.00  0.00    -0.462 OA
ENDBRANCH   1  28
BRANCH   5  31
ATOM     31  C   UNL     1       7.250   2.845   2.671  0.00  0.00    +0.002 A 
ATOM     32  C   UNL     1       8.153   3.622   1.971  0.00  0.00    +0.053 A 
ATOM     33  C   UNL     1       9.514   3.473   2.193  0.00  0.00    +0.121 A 
ATOM     34  C   UNL     1       9.969   2.536   3.110  0.00  0.00    +0.049 A 
ATOM     35  C   UNL     1       9.066   1.756   3.806  0.00  0.00    +0.049 A 
ATOM     36  C   UNL     1       7.705   1.909   3.588  0.00  0.00    +0.124 A 
BRANCH  36  37
ATOM     37  O   UNL     1       6.816   1.141   4.273  0.00  0.00    -0.495 OA
ATOM     38  C   UNL     1       7.354   0.198   5.202  0.00  0.00    +0.277 C 
ENDBRANCH  36  37
BRANCH  33  39
ATOM     39  O   UNL     1      10.403   4.241   1.508  0.00  0.00    -0.495 OA
ATOM     40  C   UNL     1      11.790   4.030   1.783  0.00  0.00    +0.277 C 
ENDBRANCH  33  39
ENDBRANCH   5  31
TORSDOF 4
