REMARK  Name = ZINC14922662
REMARK  12 active torsions:
REMARK  status: ('A' for Active; 'I' for Inactive)
REMARK    1  A    between atoms: C_1  and  C_2
REMARK    2  A    between atoms: C_2  and  N_65
REMARK    3  A    between atoms: C_3  and  C_4
REMARK    4  A    between atoms: C_3  and  N_65
REMARK    5  A    between atoms: N_6  and  C_7
REMARK    6  A    between atoms: C_10  and  N_13
REMARK    7  A    between atoms: C_14  and  C_16
REMARK    8  A    between atoms: C_17  and  C_19
REMARK    9  A    between atoms: C_17  and  C_20
REMARK   10  A    between atoms: C_17  and  N_65
REMARK   11  A    between atoms: N_22  and  C_23
REMARK   12  A    between atoms: C_24  and  C_33
REMARK                            x       y       z     vdW  Elec       q    Type
REMARK                         _______ _______ _______ _____ _____    ______ ____
ROOT
ATOM      1  N   UNL     1      -5.659   7.993  -0.737  0.00  0.00    +0.393 N 
ATOM      2  H   UNL     1      -4.970   7.971  -1.497  0.00  0.00    -0.080 HD
ENDROOT
BRANCH   1   4
ATOM      3  C   UNL     1      -5.960   8.437   1.677  0.00  0.00    -0.017 C 
ATOM      4  C   UNL     1      -5.021   8.552   0.474  0.00  0.00    -0.081 C 
ENDBRANCH   1   4
BRANCH   1   5
ATOM      5  C   UNL     1      -6.798   8.842  -1.145  0.00  0.00    +0.017 C 
ATOM      6  C   UNL     1      -7.545   8.159  -2.293  0.00  0.00    -0.004 C 
BRANCH   5   7
ATOM      7  C   UNL     1      -6.269  10.174  -1.613  0.00  0.00    +0.204 C 
ATOM      8  O   UNL     1      -5.080  10.320  -1.804  0.00  0.00    -0.277 OA
ATOM      9  N   UNL     1      -7.116  11.202  -1.817  0.00  0.00    -0.280 N 
ATOM     10  H   UNL     1      -8.067  11.085  -1.663  0.00  0.00    +0.155 HD
BRANCH   9  11
ATOM     11  C   UNL     1      -6.629  12.428  -2.247  0.00  0.00    +0.090 A 
ATOM     12  C   UNL     1      -7.334  13.591  -2.510  0.00  0.00    +0.084 A 
ATOM     13  C   UNL     1      -6.581  14.755  -2.953  0.00  0.00    -0.018 A 
ATOM     14  C   UNL     1      -5.249  14.562  -3.068  0.00  0.00    -0.004 A 
ATOM     15  S   UNL     1      -4.990  12.878  -2.579  0.00  0.00    -0.077 S 
ATOM     16  C   UNL     1      -4.215  15.550  -3.510  0.00  0.00    +0.043 C 
ATOM     17  C   UNL     1      -4.408  16.863  -2.740  0.00  0.00    +0.005 C 
ATOM     18  C   UNL     1      -5.375  17.745  -3.523  0.00  0.00    +0.001 C 
ATOM     19  C   UNL     1      -6.405  16.881  -4.249  0.00  0.00    +0.005 C 
ATOM     20  C   UNL     1      -7.244  16.095  -3.248  0.00  0.00    +0.037 C 
BRANCH  12  21
ATOM     21  C   UNL     1      -8.756  13.645  -2.352  0.00  0.00    +0.102 C 
ATOM     22  N   UNL     1      -9.884  13.689  -2.226  0.00  0.00    -0.191 NA
ENDBRANCH  12  21
ENDBRANCH   9  11
ENDBRANCH   5   7
ENDBRANCH   1   5
BRANCH   1  23
ATOM     23  C   UNL     1      -6.126   6.616  -0.472  0.00  0.00    +0.020 C 
BRANCH  23  24
ATOM     24  C   UNL     1      -4.927   5.708  -0.378  0.00  0.00    +0.201 C 
ATOM     25  O   UNL     1      -3.809   6.165  -0.492  0.00  0.00    -0.278 OA
ATOM     26  N   UNL     1      -5.096   4.388  -0.167  0.00  0.00    -0.287 N 
ATOM     27  H   UNL     1      -5.985   4.032  -0.009  0.00  0.00    +0.155 HD
BRANCH  26  28
ATOM     28  C   UNL     1      -3.989   3.529  -0.176  0.00  0.00    +0.033 A 
ATOM     29  C   UNL     1      -3.984   2.394   0.624  0.00  0.00    +0.025 A 
ATOM     30  C   UNL     1      -2.893   1.548   0.614  0.00  0.00    +0.025 A 
ATOM     31  C   UNL     1      -1.802   1.832  -0.196  0.00  0.00    +0.033 A 
ATOM     32  C   UNL     1      -1.804   2.970  -0.992  0.00  0.00    +0.025 A 
ATOM     33  C   UNL     1      -2.897   3.813  -0.987  0.00  0.00    +0.025 A 
BRANCH  31  34
ATOM     34  N   UNL     1      -0.695   0.973  -0.206  0.00  0.00    -0.286 N 
ATOM     35  C   UNL     1      -0.873  -0.357  -0.075  0.00  0.00    +0.214 C 
ATOM     36  O   UNL     1      -1.980  -0.802   0.144  0.00  0.00    -0.276 OA
ATOM     37  C   UNL     1       0.303  -1.290  -0.203  0.00  0.00    +0.109 C 
ATOM     38  H   UNL     1       0.199   1.335  -0.302  0.00  0.00    +0.155 HD
ENDBRANCH  31  34
ENDBRANCH  26  28
ENDBRANCH  23  24
ENDBRANCH   1  23
TORSDOF 9
