REMARK  Name = ZINC12909744
REMARK  7 active torsions:
REMARK  status: ('A' for Active; 'I' for Inactive)
REMARK    1  A    between atoms: C_1  and  C_2
REMARK    2  A    between atoms: N_10  and  N_14
REMARK    3  A    between atoms: C_15  and  C_17
REMARK    4  A    between atoms: C_17  and  N_18
REMARK    5  A    between atoms: N_18  and  C_19
REMARK    6  A    between atoms: C_19  and  C_21
REMARK    7  A    between atoms: C_19  and  C_27
REMARK                            x       y       z     vdW  Elec       q    Type
REMARK                         _______ _______ _______ _____ _____    ______ ____
ROOT
ATOM      1  N   UNL     1       3.303  -5.678  -0.062  0.00  0.00    -0.223 N 
ATOM      2  C   UNL     1       3.812  -6.196  -1.197  0.00  0.00    +0.244 C 
ATOM      3  O   UNL     1       3.841  -5.528  -2.209  0.00  0.00    -0.273 OA
ATOM      4  H   UNL     1       3.280  -6.212   0.747  0.00  0.00    +0.174 HD
ENDROOT
BRANCH   1  14
ATOM      5  C   UNL     1      -0.019   1.526   0.010  0.00  0.00    +0.007 C 
ATOM      6  C   UNL     1       0.002  -0.004   0.002  0.00  0.00    -0.014 C 
ATOM      7  C   UNL     1       0.716  -0.497  -1.258  0.00  0.00    +0.006 C 
ATOM      8  C   UNL     1       0.727  -2.028  -1.271  0.00  0.00    +0.035 C 
ATOM      9  C   UNL     1       1.442  -2.543  -0.027  0.00  0.00    +0.114 C 
ATOM     10  C   UNL     1       0.753  -2.041   1.238  0.00  0.00    +0.035 C 
ATOM     11  C   UNL     1       0.742  -0.510   1.242  0.00  0.00    +0.006 C 
ATOM     12  C   UNL     1       1.495  -4.053  -0.035  0.00  0.00    +0.263 C 
ATOM     13  O   UNL     1       0.556  -4.821  -0.030  0.00  0.00    -0.271 OA
ATOM     14  N   UNL     1       2.807  -4.367  -0.051  0.00  0.00    -0.137 N 
ATOM     15  C   UNL     1       3.576  -3.272  -0.053  0.00  0.00    +0.326 C 
ATOM     16  O   UNL     1       4.791  -3.300  -0.065  0.00  0.00    -0.251 OA
ATOM     17  N   UNL     1       2.853  -2.136  -0.039  0.00  0.00    -0.284 N 
ATOM     18  H   UNL     1       3.196  -1.229  -0.038  0.00  0.00    +0.151 HD
ENDBRANCH   1  14
BRANCH   2  19
ATOM     19  C   UNL     1       4.345  -7.605  -1.210  0.00  0.00    +0.179 C 
BRANCH  19  20
ATOM     20  N   UNL     1       4.839  -7.930  -2.554  0.00  0.00    -0.297 NA
ATOM     21  H   UNL     1       4.118  -7.795  -3.247  0.00  0.00    +0.123 HD
BRANCH  20  22
ATOM     22  C   UNL     1       5.368  -9.300  -2.604  0.00  0.00    +0.122 C 
BRANCH  22  23
ATOM     23  C   UNL     1       5.291  -9.817  -4.017  0.00  0.00    -0.026 A 
ATOM     24  C   UNL     1       5.599  -8.983  -5.076  0.00  0.00    +0.005 A 
ATOM     25  C   UNL     1       5.528  -9.457  -6.373  0.00  0.00    +0.000 A 
ATOM     26  C   UNL     1       5.150 -10.765  -6.611  0.00  0.00    +0.000 A 
ATOM     27  C   UNL     1       4.843 -11.600  -5.552  0.00  0.00    +0.000 A 
ATOM     28  C   UNL     1       4.918 -11.127  -4.255  0.00  0.00    +0.005 A 
ENDBRANCH  22  23
BRANCH  22  29
ATOM     29  C   UNL     1       6.804  -9.301  -2.146  0.00  0.00    +0.011 A 
ATOM     30  C   UNL     1       7.451 -10.204  -1.369  0.00  0.00    +0.013 A 
ATOM     31  C   UNL     1       8.786  -9.999  -1.075  0.00  0.00    +0.008 A 
ATOM     32  C   UNL     1       9.408  -8.902  -1.571  0.00  0.00    +0.045 A 
ATOM     33  S   UNL     1       8.095  -8.118  -2.492  0.00  0.00    -0.100 S 
ENDBRANCH  22  29
ENDBRANCH  20  22
ENDBRANCH  19  20
ENDBRANCH   2  19
TORSDOF 6
