REMARK  Name = ZINC39963386
REMARK  6 active torsions:
REMARK  status: ('A' for Active; 'I' for Inactive)
REMARK    1  A    between atoms: C_4  and  C_7
REMARK    2  A    between atoms: C_7  and  C_8
REMARK    3  A    between atoms: C_8  and  C_9
REMARK    4  A    between atoms: N_11  and  C_12
REMARK    5  A    between atoms: C_16  and  C_19
REMARK    6  A    between atoms: C_19  and  C_20
REMARK                            x       y       z     vdW  Elec       q    Type
REMARK                         _______ _______ _______ _____ _____    ______ ____
ROOT
ATOM      1  C   UNL     1       7.365  -2.749   2.524  0.00  0.00    +0.216 C 
ATOM      2  N   UNL     1       7.737  -3.242   3.886  0.00  0.00    -0.227 NA
ATOM      3  N   UNL     1       9.163  -3.454   4.022  0.00  0.00    -0.241 NA
ATOM      4  C   UNL     1      10.025  -2.534   3.241  0.00  0.00    +0.134 C 
ATOM      5  S   UNL     1       8.785  -1.597   2.247  0.00  0.00    -0.101 S 
ATOM      6  H   UNL     1       7.223  -4.078   4.121  0.00  0.00    +0.143 HD
ATOM      7  H   UNL     1       9.436  -3.468   4.993  0.00  0.00    +0.142 HD
ENDROOT
BRANCH   1  10
ATOM      8  C   UNL     1       5.487  -1.699   1.381  0.00  0.00    +0.215 C 
ATOM      9  O   UNL     1       6.005  -1.990   0.324  0.00  0.00    -0.276 OA
ATOM     10  N   UNL     1       6.087  -2.034   2.541  0.00  0.00    -0.290 N 
ATOM     11  H   UNL     1       5.672  -1.801   3.386  0.00  0.00    +0.151 HD
BRANCH   8  12
ATOM     12  C   UNL     1       4.171  -0.963   1.399  0.00  0.00    +0.100 C 
BRANCH  12  13
ATOM     13  C   UNL     1       3.711  -0.707  -0.038  0.00  0.00    +0.044 C 
BRANCH  13  17
ATOM     14  C   UNL     1      -0.017   1.378   0.010  0.00  0.00    +0.000 A 
ATOM     15  C   UNL     1       1.171   2.086   0.002  0.00  0.00    +0.000 A 
ATOM     16  C   UNL     1       2.377   1.411  -0.013  0.00  0.00    +0.003 A 
ATOM     17  C   UNL     1       2.396   0.029  -0.020  0.00  0.00    -0.047 A 
ATOM     18  C   UNL     1       1.208  -0.679  -0.012  0.00  0.00    +0.003 A 
ATOM     19  C   UNL     1       0.002  -0.004   0.002  0.00  0.00    +0.000 A 
ENDBRANCH  13  17
ENDBRANCH  12  13
ENDBRANCH   8  12
ENDBRANCH   1  10
BRANCH   4  20
ATOM     20  C   UNL     1      10.806  -1.599   4.166  0.00  0.00    +0.068 C 
BRANCH  20  21
ATOM     21  C   UNL     1      11.669  -0.681   3.341  0.00  0.00    -0.020 A 
ATOM     22  C   UNL     1      11.258   0.585   2.729  0.00  0.00    +0.003 A 
ATOM     23  C   UNL     1      10.062   1.305   2.698  0.00  0.00    +0.010 A 
ATOM     24  C   UNL     1      10.001   2.489   2.020  0.00  0.00    +0.001 A 
ATOM     25  C   UNL     1      11.118   2.983   1.360  0.00  0.00    +0.002 A 
ATOM     26  C   UNL     1      12.308   2.289   1.378  0.00  0.00    +0.026 A 
ATOM     27  C   UNL     1      12.393   1.082   2.062  0.00  0.00    +0.047 A 
ATOM     28  N   UNL     1      13.411   0.175   2.263  0.00  0.00    -0.360 N 
ATOM     29  C   UNL     1      12.962  -0.865   3.031  0.00  0.00    +0.087 A 
ATOM     30  H   UNL     1      14.312   0.263   1.914  0.00  0.00    +0.165 HD
ENDBRANCH  20  21
ENDBRANCH   4  20
TORSDOF 6
