REMARK  Name = ZINC09004841
REMARK  15 active torsions:
REMARK  status: ('A' for Active; 'I' for Inactive)
REMARK    1  A    between atoms: C_1  and  C_2
REMARK    2  A    between atoms: C_2  and  O_3
REMARK    3  A    between atoms: O_3  and  C_4
REMARK    4  A    between atoms: C_7  and  C_13
REMARK    5  A    between atoms: C_9  and  O_10
REMARK    6  A    between atoms: O_10  and  C_11
REMARK    7  A    between atoms: C_11  and  C_12
REMARK    8  A    between atoms: C_13  and  C_14
REMARK    9  A    between atoms: C_14  and  N_15
REMARK   10  A    between atoms: C_16  and  C_18
REMARK   11  A    between atoms: C_18  and  N_19
REMARK   12  A    between atoms: C_30  and  C_34
REMARK   13  A    between atoms: C_34  and  C_35
REMARK   14  A    between atoms: C_34  and  C_36
REMARK   15  A    between atoms: C_34  and  C_37
REMARK                            x       y       z     vdW  Elec       q    Type
REMARK                         _______ _______ _______ _____ _____    ______ ____
ROOT
ATOM      1  C   UNL     1       7.678  -1.024   3.799  0.00  0.00    +0.244 C 
ENDROOT
BRANCH   1   2
ATOM      2  N   UNL     1       8.862  -0.162   3.812  0.00  0.00    -0.201 N 
ATOM      3  C   UNL     1       9.370   0.255   4.988  0.00  0.00    +0.279 A 
ATOM      4  O   UNL     1       8.853  -0.079   6.040  0.00  0.00    -0.265 OA
ATOM      5  C   UNL     1      10.533   1.095   4.979  0.00  0.00    +0.079 A 
ATOM      6  C   UNL     1      11.249   1.655   6.123  0.00  0.00    -0.023 A 
ATOM      7  C   UNL     1      12.323   2.429   5.854  0.00  0.00    -0.004 A 
ATOM      8  S   UNL     1      12.440   2.454   4.086  0.00  0.00    -0.071 S 
ATOM      9  C   UNL     1      11.043   1.424   3.713  0.00  0.00    +0.138 A 
ATOM     10  N   UNL     1      10.491   0.984   2.587  0.00  0.00    -0.123 NA
ATOM     11  N   UNL     1       9.449   0.225   2.603  0.00  0.00    -0.061 NA
ATOM     12  C   UNL     1      13.218   3.114   6.842  0.00  0.00    +0.046 C 
ATOM     13  C   UNL     1      12.519   3.114   8.210  0.00  0.00    -0.000 C 
ATOM     14  C   UNL     1      11.993   1.703   8.493  0.00  0.00    +0.009 C 
ATOM     15  C   UNL     1      10.820   1.390   7.563  0.00  0.00    +0.037 C 
BRANCH  13  16
ATOM     16  C   UNL     1      13.518   3.517   9.296  0.00  0.00    -0.035 C 
ATOM     17  C   UNL     1      14.687   2.530   9.305  0.00  0.00    +0.011 C 
ATOM     18  C   UNL     1      14.041   4.926   9.011  0.00  0.00    +0.011 C 
ATOM     19  C   UNL     1      12.823   3.497  10.660  0.00  0.00    +0.011 C 
ENDBRANCH  13  16
ENDBRANCH   1   2
BRANCH   1  21
ATOM     20  N   UNL     1       5.220  -0.753   3.738  0.00  0.00    -0.313 N 
ATOM     21  C   UNL     1       6.436  -0.172   3.756  0.00  0.00    +0.235 C 
ATOM     22  O   UNL     1       6.530   1.037   3.738  0.00  0.00    -0.274 OA
ATOM     23  H   UNL     1       5.144  -1.720   3.752  0.00  0.00    +0.149 HD
BRANCH  20  24
ATOM     24  C   UNL     1       4.013   0.076   3.696  0.00  0.00    +0.109 C 
BRANCH  24  25
ATOM     25  C   UNL     1       2.776  -0.825   3.682  0.00  0.00    +0.054 C 
BRANCH  25  29
ATOM     26  C   UNL     1      -0.745   1.600   3.566  0.00  0.00    +0.162 A 
ATOM     27  C   UNL     1      -0.201   1.221   4.783  0.00  0.00    +0.050 A 
ATOM     28  C   UNL     1       0.938   0.438   4.817  0.00  0.00    +0.007 A 
ATOM     29  C   UNL     1       1.534   0.028   3.639  0.00  0.00    -0.042 A 
ATOM     30  C   UNL     1       0.993   0.398   2.422  0.00  0.00    +0.053 A 
ATOM     31  C   UNL     1      -0.148   1.182   2.380  0.00  0.00    +0.162 A 
BRANCH  26  32
ATOM     32  O   UNL     1      -1.862   2.374   3.531  0.00  0.00    -0.489 OA
BRANCH  32  34
ATOM     33  C   UNL     1      -3.663   3.626   4.546  0.00  0.00    +0.048 C 
ATOM     34  C   UNL     1      -2.420   2.766   4.787  0.00  0.00    +0.226 C 
ENDBRANCH  32  34
ENDBRANCH  26  32
BRANCH  31  35
ATOM     35  O   UNL     1      -0.682   1.547   1.184  0.00  0.00    -0.489 OA
BRANCH  35  36
ATOM     36  C   UNL     1      -0.013   1.086   0.008  0.00  0.00    +0.226 C 
ATOM     37  C   UNL     1      -0.753   1.593  -1.232  0.00  0.00    +0.048 C 
ENDBRANCH  35  36
ENDBRANCH  31  35
ENDBRANCH  25  29
ENDBRANCH  24  25
ENDBRANCH  20  24
ENDBRANCH   1  21
TORSDOF 10
