REMARK  Name = ZINC52839425
REMARK  6 active torsions:
REMARK  status: ('A' for Active; 'I' for Inactive)
REMARK    1  A    between atoms: C_1  and  C_2
REMARK    2  A    between atoms: C_2  and  C_3
REMARK    3  A    between atoms: C_3  and  C_4
REMARK    4  A    between atoms: C_6  and  C_11
REMARK    5  A    between atoms: C_7  and  N_10
REMARK    6  A    between atoms: N_8  and  N_9
REMARK                            x       y       z     vdW  Elec       q    Type
REMARK                         _______ _______ _______ _____ _____    ______ ____
ROOT
ATOM      1  C   UNL     1       0.762  -2.018   1.233  0.00  0.00    +0.107 A 
ATOM      2  N   UNL     1       1.639  -2.759   0.617  0.00  0.00    -0.340 N 
ATOM      3  C   UNL     1       1.350  -4.061   0.827  0.00  0.00    +0.088 A 
ATOM      4  C   UNL     1       0.234  -4.119   1.615  0.00  0.00    +0.139 A 
ATOM      5  N   UNL     1      -0.129  -2.825   1.874  0.00  0.00    -0.241 N 
ATOM      6  H   UNL     1       2.383  -2.427   0.090  0.00  0.00    +0.167 HD
ENDROOT
BRANCH   3   7
ATOM      7  C   UNL     1       2.106  -5.220   0.297  0.00  0.00    +0.007 A 
ATOM      8  C   UNL     1       2.519  -5.234  -1.035  0.00  0.00    +0.059 A 
ATOM      9  C   UNL     1       3.225  -6.317  -1.527  0.00  0.00    +0.168 A 
ATOM     10  C   UNL     1       3.523  -7.392  -0.691  0.00  0.00    +0.184 A 
ATOM     11  C   UNL     1       3.111  -7.377   0.633  0.00  0.00    +0.087 A 
ATOM     12  C   UNL     1       2.410  -6.295   1.130  0.00  0.00    +0.034 A 
ATOM     13 CL   UNL     1       3.484  -8.718   1.671  0.00  0.00    -0.080 Cl
ATOM     14  O   UNL     1       4.219  -8.323  -1.410  0.00  0.00    -0.451 OA
ATOM     15  C   UNL     1       3.990  -7.992  -2.792  0.00  0.00    +0.466 C 
ATOM     16  O   UNL     1       3.735  -6.575  -2.767  0.00  0.00    -0.453 OA
ENDBRANCH   3   7
BRANCH   5  17
ATOM     17  N   UNL     1      -1.191  -2.418   2.631  0.00  0.00    -0.295 N 
ATOM     18  H   UNL     1      -2.020  -2.313   2.064  0.00  0.00    +0.163 HD
ATOM     19  H   UNL     1      -1.354  -3.054   3.396  0.00  0.00    +0.163 HD
ENDBRANCH   5  17
BRANCH   4  20
ATOM     20  N   UNL     1      -0.404  -5.268   2.070  0.00  0.00    -0.342 N 
ATOM     21  H   UNL     1      -0.059  -6.142   1.829  0.00  0.00    +0.144 HD
ATOM     22  H   UNL     1      -1.194  -5.196   2.628  0.00  0.00    +0.144 HD
ENDBRANCH   4  20
BRANCH   1  23
ATOM     23  C   UNL     1       0.742  -0.511   1.242  0.00  0.00    +0.074 C 
BRANCH  23  25
ATOM     24  C   UNL     1      -0.019   1.526   0.010  0.00  0.00    +0.004 C 
ATOM     25  C   UNL     1       0.002  -0.004   0.002  0.00  0.00    +0.004 C 
ENDBRANCH  23  25
ENDBRANCH   1  23
TORSDOF 5
