REMARK  Name = ZINC36502715
REMARK  12 active torsions:
REMARK  status: ('A' for Active; 'I' for Inactive)
REMARK    1  A    between atoms: C_1  and  C_2
REMARK    2  A    between atoms: C_2  and  C_33
REMARK    3  A    between atoms: C_3  and  C_4
REMARK    4  A    between atoms: N_6  and  C_7
REMARK    5  A    between atoms: N_6  and  C_13
REMARK    6  A    between atoms: C_7  and  C_8
REMARK    7  A    between atoms: C_13  and  C_15
REMARK    8  A    between atoms: C_13  and  C_24
REMARK    9  A    between atoms: C_16  and  O_23
REMARK   10  A    between atoms: C_18  and  O_22
REMARK   11  A    between atoms: C_20  and  O_21
REMARK   12  A    between atoms: N_26  and  C_27
REMARK                            x       y       z     vdW  Elec       q    Type
REMARK                         _______ _______ _______ _____ _____    ______ ____
ROOT
ATOM      1  C   UNL     1       0.008  -0.039   4.636  0.00  0.00    +0.200 C 
ENDROOT
BRANCH   1   2
ATOM      2  C   UNL     1       1.280  -0.550   5.263  0.00  0.00    +0.065 A 
ATOM      3  C   UNL     1       1.736  -1.825   4.966  0.00  0.00    +0.129 A 
ATOM      4  C   UNL     1       2.907  -2.295   5.543  0.00  0.00    +0.091 A 
ATOM      5  C   UNL     1       3.621  -1.488   6.417  0.00  0.00    +0.124 A 
ATOM      6  C   UNL     1       3.165  -0.213   6.713  0.00  0.00    +0.091 A 
ATOM      7  C   UNL     1       1.997   0.259   6.132  0.00  0.00    +0.129 A 
BRANCH   7   8
ATOM      8  O   UNL     1       1.553   1.510   6.419  0.00  0.00    -0.506 OA
ATOM      9  H   UNL     1       0.961   1.553   7.182  0.00  0.00    +0.292 HD
ENDBRANCH   7   8
BRANCH   5  10
ATOM     10  O   UNL     1       4.768  -1.949   6.983  0.00  0.00    -0.507 OA
ATOM     11  H   UNL     1       5.564  -1.759   6.468  0.00  0.00    +0.292 HD
ENDBRANCH   5  10
BRANCH   3  12
ATOM     12  O   UNL     1       1.036  -2.615   4.111  0.00  0.00    -0.506 OA
ATOM     13  H   UNL     1       1.355  -2.586   3.198  0.00  0.00    +0.292 HD
ENDBRANCH   3  12
ENDBRANCH   1   2
BRANCH   1  14
ATOM     14  C   UNL     1      -1.173  -0.741   5.255  0.00  0.00    +0.239 C 
ATOM     15  O   UNL     1      -1.566  -1.791   4.791  0.00  0.00    -0.273 OA
ATOM     16  N   UNL     1      -1.793  -0.202   6.323  0.00  0.00    -0.311 N 
ATOM     17  H   UNL     1      -1.479   0.637   6.694  0.00  0.00    +0.149 HD
BRANCH  16  18
ATOM     18  C   UNL     1      -2.942  -0.884   6.924  0.00  0.00    +0.073 C 
ATOM     19  C   UNL     1      -4.217  -0.495   6.173  0.00  0.00    +0.022 C 
ATOM     20  C   UNL     1      -5.417  -1.208   6.801  0.00  0.00    +0.002 C 
ATOM     21  C   UNL     1      -5.544  -0.795   8.268  0.00  0.00    +0.000 C 
ATOM     22  C   UNL     1      -4.269  -1.184   9.020  0.00  0.00    +0.002 C 
ATOM     23  C   UNL     1      -3.069  -0.471   8.392  0.00  0.00    +0.022 C 
ENDBRANCH  16  18
ENDBRANCH   1  14
BRANCH   1  26
ATOM     24  C   UNL     1       1.142  -0.029   2.479  0.00  0.00    +0.241 C 
ATOM     25  O   UNL     1       2.121   0.439   3.029  0.00  0.00    -0.271 OA
ATOM     26  N   UNL     1       0.034  -0.304   3.195  0.00  0.00    -0.275 N 
BRANCH  24  29
ATOM     27  C   UNL     1       3.415   0.700   0.968  0.00  0.00    +0.039 C 
ATOM     28  C   UNL     1       2.266  -0.036   0.329  0.00  0.00    -0.071 C 
ATOM     29  C   UNL     1       1.168  -0.294   1.033  0.00  0.00    +0.066 C 
ATOM     30  C   UNL     1       2.362  -0.479  -1.108  0.00  0.00    +0.039 C 
ENDBRANCH  24  29
BRANCH  26  31
ATOM     31  C   UNL     1      -1.145  -0.867   2.533  0.00  0.00    +0.183 C 
BRANCH  31  32
ATOM     32  C   UNL     1      -0.825  -2.251   2.030  0.00  0.00    +0.122 A 
ATOM     33  C   UNL     1      -1.105  -3.403   2.664  0.00  0.00    +0.046 A 
ATOM     34  C   UNL     1      -0.633  -4.450   1.840  0.00  0.00    +0.041 A 
ATOM     35  C   UNL     1      -0.093  -3.875   0.750  0.00  0.00    +0.195 A 
ATOM     36  O   UNL     1      -0.217  -2.543   0.868  0.00  0.00    -0.466 OA
ENDBRANCH  31  32
ENDBRANCH  26  31
ENDBRANCH   1  26
TORSDOF 10
