REMARK  Name = ZINC08934651
REMARK  12 active torsions:
REMARK  status: ('A' for Active; 'I' for Inactive)
REMARK    1  A    between atoms: C_1  and  N_56
REMARK    2  A    between atoms: C_2  and  N_56
REMARK    3  A    between atoms: C_3  and  C_4
REMARK    4  A    between atoms: C_3  and  N_56
REMARK    5  A    between atoms: C_4  and  N_5
REMARK    6  A    between atoms: C_6  and  C_25
REMARK    7  A    between atoms: C_8  and  C_13
REMARK    8  A    between atoms: C_9  and  O_12
REMARK    9  A    between atoms: C_13  and  C_15
REMARK   10  A    between atoms: C_18  and  O_21
REMARK   11  A    between atoms: O_21  and  C_22
REMARK   12  A    between atoms: C_22  and  C_23
REMARK                            x       y       z     vdW  Elec       q    Type
REMARK                         _______ _______ _______ _____ _____    ______ ____
ROOT
ATOM      1  N   UNL     1      -0.313   0.695   4.517  0.00  0.00    -0.285 N 
ATOM      2  C   UNL     1      -0.410  -0.505   5.356  0.00  0.00    +0.144 C 
ATOM      3  C   UNL     1       0.564  -0.303   6.494  0.00  0.00    +0.071 C 
ATOM      4  C   UNL     1       1.142   0.906   6.304  0.00  0.00    +0.188 C 
ATOM      5  C   UNL     1       0.593   1.519   5.076  0.00  0.00    +0.282 C 
ATOM      6  O   UNL     1       0.912   2.605   4.636  0.00  0.00    -0.267 OA
ENDROOT
BRANCH   2   7
ATOM      7  C   UNL     1      -0.028  -1.726   4.561  0.00  0.00    -0.022 A 
ATOM      8  C   UNL     1       1.132  -1.726   3.809  0.00  0.00    +0.007 A 
ATOM      9  C   UNL     1       1.486  -2.847   3.083  0.00  0.00    +0.015 A 
ATOM     10  C   UNL     1       0.673  -3.966   3.100  0.00  0.00    +0.018 A 
ATOM     11  C   UNL     1      -0.491  -3.964   3.848  0.00  0.00    +0.015 A 
ATOM     12  C   UNL     1      -0.841  -2.844   4.578  0.00  0.00    +0.007 A 
ATOM     13 BR   UNL     1       1.153  -5.499   2.101  0.00  0.00    -0.050 Br
ENDBRANCH   2   7
BRANCH   4  14
ATOM     14  O   UNL     1       2.074   1.465   7.109  0.00  0.00    -0.502 OA
ATOM     15  H   UNL     1       2.336   2.359   6.746  0.00  0.00    +0.292 HD
ENDBRANCH   4  14
BRANCH   3  16
ATOM     16  C   UNL     1       0.828  -1.235   7.595  0.00  0.00    +0.195 C 
ATOM     17  O   UNL     1       1.921  -1.761   7.698  0.00  0.00    -0.287 OA
BRANCH  16  18
ATOM     18  C   UNL     1      -0.231  -1.536   8.578  0.00  0.00    +0.022 A 
ATOM     19  C   UNL     1      -1.502  -0.970   8.434  0.00  0.00    +0.015 A 
ATOM     20  C   UNL     1      -2.489  -1.258   9.350  0.00  0.00    +0.046 A 
ATOM     21  C   UNL     1      -2.220  -2.101  10.423  0.00  0.00    +0.121 A 
ATOM     22  C   UNL     1      -0.956  -2.661  10.572  0.00  0.00    +0.046 A 
ATOM     23  C   UNL     1       0.035  -2.383   9.658  0.00  0.00    +0.015 A 
BRANCH  21  24
ATOM     24  O   UNL     1      -3.193  -2.377  11.326  0.00  0.00    -0.488 OA
BRANCH  24  25
ATOM     25  C   UNL     1      -4.469  -1.768  11.113  0.00  0.00    +0.256 C 
BRANCH  25  26
ATOM     26  C   UNL     1      -5.415  -2.187  12.208  0.00  0.00    +0.006 C 
ATOM     27  C   UNL     1      -6.180  -1.296  12.789  0.00  0.00    +0.007 C 
ENDBRANCH  25  26
ENDBRANCH  24  25
ENDBRANCH  21  24
ENDBRANCH  16  18
ENDBRANCH   3  16
BRANCH   1  28
ATOM     28  C   UNL     1      -1.073   0.954   3.291  0.00  0.00    +0.090 C 
BRANCH  28  29
ATOM     29  C   UNL     1      -0.293   0.422   2.087  0.00  0.00    -0.060 C 
BRANCH  29  32
ATOM     30  C   UNL     1      -0.459  -0.018  -0.288  0.00  0.00    -0.097 C 
ATOM     31  C   UNL     1      -1.159   2.123   0.597  0.00  0.00    -0.097 C 
ATOM     32  N   UNL     1      -1.081   0.671   0.861  0.00  0.00    +0.377 N 
ATOM     33  H   UNL     1      -2.031   0.305   0.996  0.00  0.00    -0.083 HD
ENDBRANCH  29  32
ENDBRANCH  28  29
ENDBRANCH   1  28
TORSDOF 10
