REMARK  Name = ZINC41658730
REMARK  5 active torsions:
REMARK  status: ('A' for Active; 'I' for Inactive)
REMARK    1  A    between atoms: C_1  and  C_2
REMARK    2  A    between atoms: C_2  and  C_3
REMARK    3  A    between atoms: C_2  and  C_13
REMARK    4  A    between atoms: C_2  and  N_16
REMARK    5  A    between atoms: N_16  and  C_17
REMARK                            x       y       z     vdW  Elec       q    Type
REMARK                         _______ _______ _______ _____ _____    ______ ____
ROOT
ATOM      1  C   UNL     1       0.171   1.407   0.282  0.00  0.00    +0.010 C 
ATOM      2  C   UNL     1       0.033  -0.101   0.059  0.00  0.00    +0.092 C 
ENDROOT
BRANCH   2   3
ATOM      3  C   UNL     1       0.802  -0.839   1.124  0.00  0.00    +0.106 A 
ATOM      4  C   UNL     1       0.566  -0.750   2.440  0.00  0.00    +0.052 A 
ATOM      5  C   UNL     1       1.544  -1.631   3.091  0.00  0.00    +0.021 A 
ATOM      6  C   UNL     1       1.818  -1.973   4.414  0.00  0.00    +0.027 A 
ATOM      7  C   UNL     1       2.837  -2.857   4.692  0.00  0.00    +0.019 A 
ATOM      8  C   UNL     1       3.588  -3.405   3.660  0.00  0.00    +0.019 A 
ATOM      9  C   UNL     1       3.327  -3.074   2.348  0.00  0.00    +0.048 A 
ATOM     10  C   UNL     1       2.303  -2.185   2.047  0.00  0.00    +0.135 A 
ATOM     11  O   UNL     1       1.819  -1.686   0.891  0.00  0.00    -0.461 OA
ATOM     12 BR   UNL     1       3.215  -3.327   6.484  0.00  0.00    -0.050 Br
ENDBRANCH   2   3
BRANCH   2  13
ATOM     13  C   UNL     1      -1.422  -0.487   0.130  0.00  0.00    +0.352 C 
ATOM     14  O   UNL     1      -1.933  -1.108  -0.787  0.00  0.00    -0.247 OA
ATOM     15  O   UNL     1      -2.087  -0.180   1.103  0.00  0.00    -0.247 OA
ENDBRANCH   2  13
BRANCH   2  16
ATOM     16  N   UNL     1       0.569  -0.451  -1.264  0.00  0.00    +0.396 N 
ATOM     17  H   UNL     1       0.498  -1.448  -1.401  0.00  0.00    -0.083 HD
ATOM     18  H   UNL     1       0.040   0.026  -1.978  0.00  0.00    -0.083 HD
BRANCH  16  19
ATOM     19  C   UNL     1       1.978  -0.044  -1.344  0.00  0.00    -0.070 C 
ATOM     20  C   UNL     1       2.076   1.478  -1.577  0.00  0.00    -0.016 C 
ATOM     21  C   UNL     1       3.284   1.638  -2.534  0.00  0.00    -0.002 C 
ATOM     22  C   UNL     1       3.138   0.418  -3.476  0.00  0.00    -0.002 C 
ATOM     23  C   UNL     1       2.653  -0.718  -2.552  0.00  0.00    -0.016 C 
ENDBRANCH  16  19
ENDBRANCH   2  16
TORSDOF 4
