REMARK  Name = ZINC19445413
REMARK  8 active torsions:
REMARK  status: ('A' for Active; 'I' for Inactive)
REMARK    1  A    between atoms: C_1  and  C_2
REMARK    2  A    between atoms: C_2  and  C_3
REMARK    3  A    between atoms: C_2  and  C_4
REMARK    4  A    between atoms: C_4  and  C_6
REMARK    5  A    between atoms: C_4  and  N_22
REMARK    6  A    between atoms: C_13  and  C_15
REMARK    7  A    between atoms: N_22  and  C_23
REMARK    8  A    between atoms: C_23  and  C_24
REMARK                            x       y       z     vdW  Elec       q    Type
REMARK                         _______ _______ _______ _____ _____    ______ ____
ROOT
ATOM      1  C   UNL     1      -2.091   0.291   1.239  0.00  0.00    +0.009 A 
ATOM      2  C   UNL     1      -3.136   1.127   1.042  0.00  0.00    +0.091 A 
ATOM      3  C   UNL     1      -3.731   1.777   2.142  0.00  0.00    +0.275 A 
ATOM      4  N   UNL     1      -3.256   1.562   3.385  0.00  0.00    -0.180 N 
ATOM      5  C   UNL     1      -2.201   0.717   3.576  0.00  0.00    +0.138 A 
ATOM      6  N   UNL     1      -1.620   0.075   2.499  0.00  0.00    -0.345 N 
ATOM      7  C   UNL     1      -1.938   0.690   4.913  0.00  0.00    +0.071 A 
ATOM      8  C   UNL     1      -2.850   1.536   5.546  0.00  0.00    +0.069 A 
ATOM      9  N   UNL     1      -3.637   2.057   4.638  0.00  0.00    -0.167 NA
ATOM     10  O   UNL     1      -4.672   2.531   1.970  0.00  0.00    -0.266 OA
ATOM     11  H   UNL     1      -0.873  -0.528   2.640  0.00  0.00    +0.167 HD
ENDROOT
BRANCH   8  12
ATOM     12  C   UNL     1      -2.918   1.804   7.027  0.00  0.00    +0.044 C 
ATOM     13  C   UNL     1      -1.504   1.789   7.616  0.00  0.00    +0.038 C 
ATOM     14  C   UNL     1      -1.589   1.984   9.132  0.00  0.00    +0.160 C 
ATOM     15  O   UNL     1      -2.406   0.957   9.698  0.00  0.00    -0.380 OA
ATOM     16  C   UNL     1      -3.753   0.953   9.220  0.00  0.00    +0.160 C 
ATOM     17  C   UNL     1      -3.755   0.717   7.707  0.00  0.00    +0.038 C 
ENDBRANCH   8  12
BRANCH   1  18
ATOM     18  C   UNL     1      -1.452  -0.406   0.065  0.00  0.00    -0.021 C 
BRANCH  18  20
ATOM     19  C   UNL     1      -0.440   1.750  -0.690  0.00  0.00    +0.006 C 
ATOM     20  C   UNL     1      -0.144   0.301  -0.297  0.00  0.00    -0.026 C 
ATOM     21  C   UNL     1       0.797   0.282   0.908  0.00  0.00    +0.006 C 
ENDBRANCH  18  20
BRANCH  18  22
ATOM     22  N   UNL     1      -1.171  -1.803   0.419  0.00  0.00    +0.387 N 
ATOM     23  H   UNL     1      -0.481  -1.832   1.155  0.00  0.00    -0.084 HD
ATOM     24  H   UNL     1      -2.020  -2.247   0.737  0.00  0.00    -0.084 HD
BRANCH  22  25
ATOM     25  C   UNL     1      -0.659  -2.514  -0.760  0.00  0.00    -0.043 C 
BRANCH  25  26
ATOM     26  C   UNL     1      -0.371  -3.948  -0.397  0.00  0.00    -0.029 A 
ATOM     27  C   UNL     1       0.924  -4.344  -0.120  0.00  0.00    +0.004 A 
ATOM     28  C   UNL     1       1.189  -5.659   0.213  0.00  0.00    +0.000 A 
ATOM     29  C   UNL     1       0.159  -6.580   0.270  0.00  0.00    +0.003 A 
ATOM     30  C   UNL     1      -1.137  -6.186  -0.005  0.00  0.00    +0.038 A 
ATOM     31  C   UNL     1      -1.404  -4.867  -0.334  0.00  0.00    +0.125 A 
ATOM     32  F   UNL     1      -2.671  -4.480  -0.599  0.00  0.00    -0.205 F 
ENDBRANCH  25  26
ENDBRANCH  22  25
ENDBRANCH  18  22
ENDBRANCH   1  18
TORSDOF 6
