REMARK  Name = ZINC09434482
REMARK  7 active torsions:
REMARK  status: ('A' for Active; 'I' for Inactive)
REMARK    1  A    between atoms: C_1  and  O_2
REMARK    2  A    between atoms: O_2  and  C_3
REMARK    3  A    between atoms: C_5  and  C_22
REMARK    4  A    between atoms: C_8  and  O_9
REMARK    5  A    between atoms: O_9  and  C_10
REMARK    6  A    between atoms: C_10  and  C_11
REMARK    7  A    between atoms: N_23  and  N_24
REMARK                            x       y       z     vdW  Elec       q    Type
REMARK                         _______ _______ _______ _____ _____    ______ ____
ROOT
ATOM      1  C   UNL     1      -5.587   3.548   1.282  0.00  0.00    +0.163 A 
ATOM      2  C   UNL     1      -6.881   4.035   1.299  0.00  0.00    +0.059 A 
ATOM      3  C   UNL     1      -7.546   4.283   0.096  0.00  0.00    -0.001 A 
ATOM      4  C   UNL     1      -6.899   4.044  -1.119  0.00  0.00    +0.027 A 
ATOM      5  C   UNL     1      -5.606   3.564  -1.128  0.00  0.00    +0.059 A 
ATOM      6  C   UNL     1      -4.946   3.317   0.067  0.00  0.00    +0.175 A 
ATOM      7  I   UNL     1      -4.636   3.206  -2.951  0.00  0.00    -0.040 I 
ENDROOT
BRANCH   1   9
ATOM      8  C   UNL     1      -5.657   3.558   3.659  0.00  0.00    +0.277 C 
ATOM      9  O   UNL     1      -4.939   3.299   2.451  0.00  0.00    -0.491 OA
ENDBRANCH   1   9
BRANCH   3  10
ATOM     10  C   UNL     1      -8.929   4.796   0.108  0.00  0.00    +0.138 C 
ATOM     11  N   UNL     1      -9.545   5.026  -1.010  0.00  0.00    -0.186 NA
BRANCH  11  12
ATOM     12  N   UNL     1     -10.859   5.514  -0.999  0.00  0.00    -0.191 N 
ATOM     13  C   UNL     1     -11.499   5.753  -2.160  0.00  0.00    +0.317 C 
ATOM     14  O   UNL     1     -12.639   6.176  -2.151  0.00  0.00    -0.251 OA
ATOM     15  N   UNL     1     -10.876   5.522  -3.333  0.00  0.00    -0.312 N 
ATOM     16  H   UNL     1     -11.307   5.679  -0.155  0.00  0.00    +0.179 HD
ATOM     17  H   UNL     1      -9.967   5.185  -3.341  0.00  0.00    +0.147 HD
ATOM     18  H   UNL     1     -11.337   5.694  -4.169  0.00  0.00    +0.147 HD
ENDBRANCH  11  12
ENDBRANCH   3  10
BRANCH   6  19
ATOM     19  O   UNL     1      -3.671   2.843   0.053  0.00  0.00    -0.483 OA
BRANCH  19  20
ATOM     20  C   UNL     1      -2.620   3.811   0.048  0.00  0.00    +0.265 C 
BRANCH  20  21
ATOM     21  C   UNL     1      -1.288   3.106   0.032  0.00  0.00    -0.003 A 
ATOM     22  C   UNL     1      -1.234   1.746   0.017  0.00  0.00    +0.007 A 
ATOM     23  C   UNL     1      -0.013   1.076   0.008  0.00  0.00    +0.001 A 
ATOM     24  C   UNL     1       1.163   1.762   0.000  0.00  0.00    +0.008 A 
ATOM     25  C   UNL     1       1.147   3.167   0.008  0.00  0.00    -0.018 A 
ATOM     26  C   UNL     1      -0.095   3.848   0.024  0.00  0.00    -0.011 A 
ATOM     27  C   UNL     1      -0.111   5.254   0.031  0.00  0.00    +0.009 A 
ATOM     28  C   UNL     1       1.064   5.940   0.023  0.00  0.00    +0.001 A 
ATOM     29  C   UNL     1       2.287   5.270   0.008  0.00  0.00    +0.001 A 
ATOM     30  C   UNL     1       2.340   3.910   0.000  0.00  0.00    +0.008 A 
ENDBRANCH  20  21
ENDBRANCH  19  20
ENDBRANCH   6  19
TORSDOF 6
