REMARK  Name = ZINC20882217
REMARK  9 active torsions:
REMARK  status: ('A' for Active; 'I' for Inactive)
REMARK    1  A    between atoms: C_1  and  O_2
REMARK    2  A    between atoms: O_2  and  C_3
REMARK    3  A    between atoms: C_8  and  C_9
REMARK    4  A    between atoms: C_14  and  C_24
REMARK    5  A    between atoms: C_26  and  O_33
REMARK    6  A    between atoms: C_27  and  O_32
REMARK    7  A    between atoms: C_28  and  O_30
REMARK    8  A    between atoms: O_30  and  C_31
REMARK    9  A    between atoms: O_33  and  C_34
REMARK                            x       y       z     vdW  Elec       q    Type
REMARK                         _______ _______ _______ _____ _____    ______ ____
ROOT
ATOM      1  C   UNL     1      -2.670  -0.028  -0.323  0.00  0.00    +0.035 C 
ATOM      2  C   UNL     1      -2.966  -0.758  -1.632  0.00  0.00    +0.060 C 
ATOM      3  C   UNL     1      -4.389  -1.290  -1.619  0.00  0.00    +0.017 C 
ATOM      4  C   UNL     1      -4.962  -1.678  -0.467  0.00  0.00    +0.036 C 
ATOM      5  C   UNL     1      -6.361  -2.223  -0.312  0.00  0.00    +0.136 C 
ATOM      6  N   UNL     1      -7.014  -2.564  -1.558  0.00  0.00    -0.331 N 
ATOM      7  C   UNL     1      -7.322  -1.583  -2.500  0.00  0.00    +0.049 A 
ATOM      8  C   UNL     1      -8.634  -1.279  -2.827  0.00  0.00    +0.025 A 
ATOM      9  C   UNL     1      -8.891  -0.266  -3.733  0.00  0.00    +0.002 A 
ATOM     10  C   UNL     1      -7.850   0.442  -4.307  0.00  0.00    +0.002 A 
ATOM     11  C   UNL     1      -6.538   0.129  -3.995  0.00  0.00    +0.025 A 
ATOM     12  C   UNL     1      -6.279  -0.900  -3.106  0.00  0.00    +0.052 A 
ATOM     13  N   UNL     1      -4.988  -1.340  -2.836  0.00  0.00    -0.316 N 
ATOM     14  C   UNL     1      -4.246  -1.585   0.751  0.00  0.00    +0.163 C 
ATOM     15  O   UNL     1      -4.779  -1.968   1.774  0.00  0.00    -0.292 OA
ATOM     16  C   UNL     1      -2.855  -1.030   0.824  0.00  0.00    +0.088 C 
ATOM     17  H   UNL     1      -7.275  -3.611  -1.774  0.00  0.00    +0.147 HD
ATOM     18  H   UNL     1      -4.446  -1.754  -3.699  0.00  0.00    +0.152 HD
ENDROOT
BRANCH   1  24
ATOM     19  C   UNL     1      -1.000   1.837  -0.189  0.00  0.00    +0.124 A 
ATOM     20  C   UNL     1       0.307   2.304  -0.203  0.00  0.00    +0.046 A 
ATOM     21  C   UNL     1       1.354   1.415  -0.353  0.00  0.00    +0.004 A 
ATOM     22  C   UNL     1       1.101   0.063  -0.489  0.00  0.00    +0.001 A 
ATOM     23  C   UNL     1      -0.200  -0.404  -0.476  0.00  0.00    +0.007 A 
ATOM     24  C   UNL     1      -1.251   0.481  -0.331  0.00  0.00    -0.002 A 
BRANCH  19  26
ATOM     25  C   UNL     1      -1.699   4.092   0.091  0.00  0.00    +0.277 C 
ATOM     26  O   UNL     1      -2.032   2.709  -0.043  0.00  0.00    -0.495 OA
ENDBRANCH  19  26
ENDBRANCH   1  24
BRANCH   5  27
ATOM     27  C   UNL     1      -7.200  -1.191   0.396  0.00  0.00    -0.016 A 
ATOM     28  C   UNL     1      -7.383   0.056  -0.171  0.00  0.00    +0.055 A 
ATOM     29  C   UNL     1      -8.159   1.006   0.475  0.00  0.00    +0.165 A 
ATOM     30  C   UNL     1      -8.744   0.708   1.700  0.00  0.00    +0.201 A 
ATOM     31  C   UNL     1      -8.553  -0.545   2.269  0.00  0.00    +0.165 A 
ATOM     32  C   UNL     1      -7.780  -1.492   1.614  0.00  0.00    +0.055 A 
BRANCH  31  33
ATOM     33  O   UNL     1      -9.122  -0.842   3.468  0.00  0.00    -0.491 OA
ATOM     34  C   UNL     1      -8.883  -2.149   3.994  0.00  0.00    +0.277 C 
ENDBRANCH  31  33
BRANCH  30  35
ATOM     35  O   UNL     1      -9.501   1.640   2.340  0.00  0.00    -0.501 OA
ATOM     36  H   UNL     1      -9.963   1.402   3.309  0.00  0.00    +0.292 HD
ENDBRANCH  30  35
BRANCH  29  37
ATOM     37  O   UNL     1      -8.344   2.231  -0.087  0.00  0.00    -0.491 OA
ATOM     38  C   UNL     1      -7.689   2.479  -1.333  0.00  0.00    +0.277 C 
ENDBRANCH  29  37
ENDBRANCH   5  27
TORSDOF 6
