REMARK  Name = ZINC21721950
REMARK  6 active torsions:
REMARK  status: ('A' for Active; 'I' for Inactive)
REMARK    1  A    between atoms: C_4  and  C_7
REMARK    2  A    between atoms: C_7  and  C_8
REMARK    3  A    between atoms: C_8  and  N_9
REMARK    4  A    between atoms: C_10  and  C_12
REMARK    5  A    between atoms: C_12  and  N_13
REMARK    6  A    between atoms: C_23  and  C_25
REMARK                            x       y       z     vdW  Elec       q    Type
REMARK                         _______ _______ _______ _____ _____    ______ ____
ROOT
ATOM      1  N   UNL     1      -1.581   5.271   2.565  0.00  0.00    -0.306 N 
ATOM      2  C   UNL     1      -2.428   5.676   1.529  0.00  0.00    +0.052 A 
ATOM      3  C   UNL     1      -2.751   4.876   0.451  0.00  0.00    +0.025 A 
ATOM      4  C   UNL     1      -3.629   5.367  -0.504  0.00  0.00    +0.002 A 
ATOM      5  C   UNL     1      -4.170   6.633  -0.374  0.00  0.00    +0.002 A 
ATOM      6  C   UNL     1      -3.833   7.437   0.705  0.00  0.00    +0.025 A 
ATOM      7  C   UNL     1      -2.946   6.950   1.646  0.00  0.00    +0.052 A 
ATOM      8  N   UNL     1      -2.504   7.701   2.740  0.00  0.00    -0.316 N 
ATOM      9  C   UNL     1      -1.218   8.168   2.720  0.00  0.00    +0.017 C 
ATOM     10  C   UNL     1      -0.172   7.323   2.562  0.00  0.00    +0.040 C 
ATOM     11  C   UNL     1      -0.236   5.815   2.460  0.00  0.00    +0.175 C 
ATOM     12  C   UNL     1       1.139   7.852   2.508  0.00  0.00    +0.163 C 
ATOM     13  O   UNL     1       2.072   7.091   2.344  0.00  0.00    -0.292 OA
ATOM     14  C   UNL     1       1.415   9.319   2.646  0.00  0.00    +0.080 C 
ATOM     15  C   UNL     1       0.324   9.949   3.520  0.00  0.00    +0.014 C 
ATOM     16  C   UNL     1      -1.027   9.657   2.865  0.00  0.00    +0.051 C 
ATOM     17  H   UNL     1      -3.183   7.899   3.582  0.00  0.00    +0.152 HD
ENDROOT
BRANCH  11  18
ATOM     18  C   UNL     1       0.608   5.223   3.559  0.00  0.00    +0.130 A 
ATOM     19  C   UNL     1       1.886   4.821   3.439  0.00  0.00    +0.047 A 
ATOM     20  C   UNL     1       2.284   4.337   4.706  0.00  0.00    +0.041 A 
ATOM     21  C   UNL     1       1.223   4.465   5.523  0.00  0.00    +0.195 A 
ATOM     22  O   UNL     1       0.211   5.003   4.823  0.00  0.00    -0.466 OA
ENDBRANCH  11  18
BRANCH   1  23
ATOM     23  C   UNL     1      -1.549   3.806   2.677  0.00  0.00    +0.201 C 
BRANCH  23  25
ATOM     24  N   UNL     1      -3.148   1.980   3.153  0.00  0.00    -0.314 N 
ATOM     25  C   UNL     1      -2.906   3.305   3.099  0.00  0.00    +0.230 C 
ATOM     26  O   UNL     1      -3.781   4.094   3.389  0.00  0.00    -0.274 OA
ATOM     27  H   UNL     1      -2.355   1.265   2.889  0.00  0.00    +0.149 HD
BRANCH  24  28
ATOM     28  C   UNL     1      -4.468   1.493   3.562  0.00  0.00    +0.109 C 
BRANCH  28  29
ATOM     29  C   UNL     1      -4.476  -0.037   3.539  0.00  0.00    +0.054 C 
BRANCH  29  33
ATOM     30  C   UNL     1      -8.323  -1.459   4.733  0.00  0.00    +0.000 A 
ATOM     31  C   UNL     1      -8.062  -1.209   3.399  0.00  0.00    +0.000 A 
ATOM     32  C   UNL     1      -6.817  -0.749   3.012  0.00  0.00    +0.004 A 
ATOM     33  C   UNL     1      -5.833  -0.538   3.960  0.00  0.00    -0.046 A 
ATOM     34  C   UNL     1      -6.093  -0.793   5.294  0.00  0.00    +0.004 A 
ATOM     35  C   UNL     1      -7.339  -1.248   5.681  0.00  0.00    +0.000 A 
ENDBRANCH  29  33
ENDBRANCH  28  29
ENDBRANCH  24  28
ENDBRANCH  23  25
ENDBRANCH   1  23
TORSDOF 6
