REMARK  Name = ZINC13033515
REMARK  11 active torsions:
REMARK  status: ('A' for Active; 'I' for Inactive)
REMARK    1  A    between atoms: C_1  and  O_2
REMARK    2  A    between atoms: O_2  and  C_3
REMARK    3  A    between atoms: C_7  and  C_17
REMARK    4  A    between atoms: C_14  and  O_15
REMARK    5  A    between atoms: O_15  and  C_16
REMARK    6  A    between atoms: C_17  and  N_67
REMARK    7  A    between atoms: C_18  and  C_19
REMARK    8  A    between atoms: C_18  and  N_67
REMARK    9  A    between atoms: C_25  and  C_26
REMARK   10  A    between atoms: C_25  and  N_67
REMARK   11  A    between atoms: N_30  and  C_31
REMARK                            x       y       z     vdW  Elec       q    Type
REMARK                         _______ _______ _______ _____ _____    ______ ____
ROOT
ATOM      1  N   UNL     1       2.932   4.471  -1.412  0.00  0.00    +0.390 N 
ATOM      2  H   UNL     1       1.957   4.787  -1.481  0.00  0.00    -0.080 HD
ENDROOT
BRANCH   1   3
ATOM      3  C   UNL     1       3.827   5.625  -1.642  0.00  0.00    -0.036 C 
BRANCH   3   8
ATOM      4  C   UNL     1       2.965   9.994   2.669  0.00  0.00    +0.162 A 
ATOM      5  C   UNL     1       3.548   8.879   2.107  0.00  0.00    +0.059 A 
ATOM      6  C   UNL     1       3.105   8.419   0.861  0.00  0.00    +0.002 A 
ATOM      7  C   UNL     1       3.698   7.236   0.239  0.00  0.00    +0.017 A 
ATOM      8  C   UNL     1       3.233   6.837  -0.972  0.00  0.00    +0.001 A 
ATOM      9  C   UNL     1       2.194   7.550  -1.604  0.00  0.00    +0.251 A 
ATOM     10  O   UNL     1       1.789   7.171  -2.690  0.00  0.00    -0.268 OA
ATOM     11  N   UNL     1       1.638   8.636  -1.040  0.00  0.00    -0.322 N 
ATOM     12  H   UNL     1       0.925   9.102  -1.502  0.00  0.00    +0.169 HD
ATOM     13  C   UNL     1       2.068   9.096   0.188  0.00  0.00    +0.053 A 
ATOM     14  C   UNL     1       1.492  10.219   0.769  0.00  0.00    +0.075 A 
ATOM     15  C   UNL     1       1.936  10.664   2.000  0.00  0.00    +0.163 A 
BRANCH   4  17
ATOM     16  C   UNL     1       4.446   9.712   4.509  0.00  0.00    +0.277 C 
ATOM     17  O   UNL     1       3.392  10.444   3.880  0.00  0.00    -0.491 OA
ENDBRANCH   4  17
BRANCH  15  18
ATOM     18  O   UNL     1       1.369  11.762   2.564  0.00  0.00    -0.491 OA
ATOM     19  C   UNL     1       0.323  12.402   1.830  0.00  0.00    +0.277 C 
ENDBRANCH  15  18
ENDBRANCH   3   8
ENDBRANCH   1   3
BRANCH   1  20
ATOM     20  C   UNL     1       3.162   3.915  -0.062  0.00  0.00    -0.040 C 
BRANCH  20  21
ATOM     21  C   UNL     1       4.545   3.326   0.038  0.00  0.00    -0.046 A 
ATOM     22  C   UNL     1       5.612   4.105   0.460  0.00  0.00    +0.005 A 
ATOM     23  C   UNL     1       6.867   3.521   0.536  0.00  0.00    +0.020 A 
ATOM     24  C   UNL     1       7.013   2.192   0.188  0.00  0.00    +0.111 A 
ATOM     25  N   UNL     1       5.975   1.479  -0.204  0.00  0.00    -0.263 NA
ATOM     26  C   UNL     1       4.767   2.002  -0.289  0.00  0.00    +0.112 A 
ENDBRANCH  20  21
ENDBRANCH   1  20
BRANCH   1  27
ATOM     27  C   UNL     1       3.174   3.432  -2.435  0.00  0.00    +0.001 C 
BRANCH  27  28
ATOM     28  C   UNL     1       1.976   2.518  -2.486  0.00  0.00    +0.135 A 
ATOM     29  N   UNL     1       1.766   1.462  -1.740  0.00  0.00    -0.115 NA
ATOM     30  N   UNL     1       0.634   0.951  -2.084  0.00  0.00    -0.023 NA
ATOM     31  N   UNL     1       0.121   1.650  -3.035  0.00  0.00    -0.044 NA
ATOM     32  N   UNL     1       0.919   2.626  -3.312  0.00  0.00    -0.228 N 
BRANCH  32  33
ATOM     33  C   UNL     1       0.713   3.656  -4.333  0.00  0.00    +0.111 C 
ATOM     34  C   UNL     1      -0.572   4.428  -4.026  0.00  0.00    +0.027 C 
ATOM     35  C   UNL     1      -0.788   5.503  -5.093  0.00  0.00    +0.002 C 
ATOM     36  C   UNL     1      -0.906   4.842  -6.468  0.00  0.00    +0.000 C 
ATOM     37  C   UNL     1       0.379   4.070  -6.774  0.00  0.00    +0.002 C 
ATOM     38  C   UNL     1       0.595   2.995  -5.708  0.00  0.00    +0.027 C 
ENDBRANCH  32  33
ENDBRANCH  27  28
ENDBRANCH   1  27
TORSDOF 9
