REMARK  Name = ZINC21222920
REMARK  11 active torsions:
REMARK  status: ('A' for Active; 'I' for Inactive)
REMARK    1  A    between atoms: C_1  and  C_2
REMARK    2  A    between atoms: C_2  and  O_3
REMARK    3  A    between atoms: O_3  and  C_4
REMARK    4  A    between atoms: C_5  and  C_12
REMARK    5  A    between atoms: C_9  and  O_10
REMARK    6  A    between atoms: O_10  and  C_11
REMARK    7  A    between atoms: C_17  and  C_22
REMARK    8  A    between atoms: C_25  and  O_28
REMARK    9  A    between atoms: O_28  and  C_29
REMARK   10  A    between atoms: C_29  and  C_30
REMARK   11  A    between atoms: C_29  and  C_31
REMARK                            x       y       z     vdW  Elec       q    Type
REMARK                         _______ _______ _______ _____ _____    ______ ____
ROOT
ATOM      1  C   UNL     1     -10.425   4.138  -0.407  0.00  0.00    +0.140 C 
ATOM      2  C   UNL     1      -8.919   4.240  -0.356  0.00  0.00    +0.037 C 
ATOM      3  C   UNL     1      -8.197   5.354  -0.565  0.00  0.00    +0.017 C 
ATOM      4  C   UNL     1      -6.680   5.314  -0.486  0.00  0.00    +0.059 C 
ATOM      5  C   UNL     1      -6.239   4.277   0.545  0.00  0.00    +0.032 C 
ATOM      6  C   UNL     1      -6.785   2.915   0.101  0.00  0.00    +0.088 C 
ATOM      7  C   UNL     1      -8.274   3.021  -0.042  0.00  0.00    +0.163 C 
ATOM      8  O   UNL     1      -8.950   2.024   0.118  0.00  0.00    -0.292 OA
ATOM      9  N   UNL     1      -8.719   6.569  -0.868  0.00  0.00    -0.316 N 
ATOM     10  C   UNL     1      -9.793   7.159  -0.212  0.00  0.00    +0.052 A 
ATOM     11  C   UNL     1      -9.664   8.324   0.523  0.00  0.00    +0.025 A 
ATOM     12  C   UNL     1     -10.786   8.883   1.111  0.00  0.00    +0.002 A 
ATOM     13  C   UNL     1     -12.024   8.284   0.963  0.00  0.00    +0.002 A 
ATOM     14  C   UNL     1     -12.151   7.109   0.244  0.00  0.00    +0.025 A 
ATOM     15  C   UNL     1     -11.027   6.536  -0.328  0.00  0.00    +0.049 A 
ATOM     16  N   UNL     1     -11.087   5.298  -0.966  0.00  0.00    -0.331 N 
ATOM     17  H   UNL     1      -8.289   7.164  -1.687  0.00  0.00    +0.152 HD
ATOM     18  H   UNL     1     -11.648   5.210  -1.908  0.00  0.00    +0.147 HD
ENDROOT
BRANCH   1  20
ATOM     19  C   UNL     1     -12.186   3.370   1.202  0.00  0.00    +0.167 A 
ATOM     20  C   UNL     1     -10.934   3.928   0.996  0.00  0.00    +0.023 A 
ATOM     21  C   UNL     1     -10.155   4.296   2.076  0.00  0.00    +0.009 A 
ATOM     22  C   UNL     1     -10.619   4.104   3.364  0.00  0.00    +0.004 A 
ATOM     23  C   UNL     1     -11.865   3.543   3.577  0.00  0.00    +0.049 A 
ATOM     24  C   UNL     1     -12.651   3.172   2.498  0.00  0.00    +0.162 A 
BRANCH  24  25
ATOM     25  O   UNL     1     -13.877   2.621   2.706  0.00  0.00    -0.491 OA
ATOM     26  C   UNL     1     -14.292   2.454   4.063  0.00  0.00    +0.277 C 
ENDBRANCH  24  25
BRANCH  19  27
ATOM     27  O   UNL     1     -12.956   3.013   0.139  0.00  0.00    -0.488 OA
BRANCH  27  29
ATOM     28  C   UNL     1     -13.731   1.462  -1.545  0.00  0.00    +0.048 C 
ATOM     29  C   UNL     1     -12.890   1.649  -0.281  0.00  0.00    +0.226 C 
ENDBRANCH  27  29
ENDBRANCH  19  27
ENDBRANCH   1  20
BRANCH   5  30
ATOM     30  C   UNL     1      -4.734   4.227   0.609  0.00  0.00    -0.043 A 
ATOM     31  C   UNL     1      -4.084   4.510   1.796  0.00  0.00    +0.007 A 
ATOM     32  C   UNL     1      -2.705   4.465   1.858  0.00  0.00    +0.046 A 
ATOM     33  C   UNL     1      -1.972   4.137   0.727  0.00  0.00    +0.121 A 
ATOM     34  C   UNL     1      -2.626   3.859  -0.465  0.00  0.00    +0.046 A 
ATOM     35  C   UNL     1      -4.006   3.900  -0.519  0.00  0.00    +0.007 A 
BRANCH  33  36
ATOM     36  O   UNL     1      -0.615   4.092   0.784  0.00  0.00    -0.489 OA
BRANCH  36  37
ATOM     37  C   UNL     1       0.080   3.860  -0.443  0.00  0.00    +0.167 C 
ATOM     38  C   UNL     1       0.169   2.354  -0.701  0.00  0.00    +0.051 C 
ATOM     39  C   UNL     1       1.490   4.445  -0.350  0.00  0.00    +0.051 C 
ENDBRANCH  36  37
ENDBRANCH  33  36
ENDBRANCH   5  30
TORSDOF 7
