REMARK  Name = ZINC54217590
REMARK  6 active torsions:
REMARK  status: ('A' for Active; 'I' for Inactive)
REMARK    1  A    between atoms: C_1  and  C_2
REMARK    2  A    between atoms: C_2  and  C_4
REMARK    3  A    between atoms: C_2  and  N_9
REMARK    4  A    between atoms: C_10  and  C_12
REMARK    5  A    between atoms: C_17  and  N_18
REMARK    6  A    between atoms: N_18  and  N_19
REMARK                            x       y       z     vdW  Elec       q    Type
REMARK                         _______ _______ _______ _____ _____    ______ ____
ROOT
ATOM      1  C   UNL     1      -3.358  -1.659  -1.288  0.00  0.00    +0.061 A 
ATOM      2  C   UNL     1      -3.932  -2.100  -0.092  0.00  0.00    +0.015 A 
ATOM      3  C   UNL     1      -5.300  -2.074   0.065  0.00  0.00    +0.004 A 
ATOM      4  C   UNL     1      -6.114  -1.613  -0.959  0.00  0.00    +0.040 A 
ATOM      5  C   UNL     1      -5.563  -1.175  -2.146  0.00  0.00    +0.146 A 
ATOM      6  C   UNL     1      -4.182  -1.188  -2.320  0.00  0.00    +0.089 A 
ATOM      7  F   UNL     1      -6.364  -0.728  -3.138  0.00  0.00    -0.203 F 
ENDROOT
BRANCH   1   9
ATOM      8  N   UNL     1      -1.099  -2.022  -0.426  0.00  0.00    -0.304 N 
ATOM      9  C   UNL     1      -1.894  -1.684  -1.461  0.00  0.00    +0.246 C 
ATOM     10  O   UNL     1      -1.404  -1.400  -2.537  0.00  0.00    -0.270 OA
ATOM     11  H   UNL     1      -1.490  -2.248   0.432  0.00  0.00    +0.150 HD
BRANCH   8  13
ATOM     12  C   UNL     1       0.919  -0.640  -0.381  0.00  0.00    +0.033 C 
ATOM     13  C   UNL     1       0.356  -2.046  -0.598  0.00  0.00    +0.107 C 
BRANCH  13  14
ATOM     14  C   UNL     1       0.964  -2.991   0.406  0.00  0.00    +0.010 A 
ATOM     15  C   UNL     1       1.986  -3.867   0.244  0.00  0.00    +0.013 A 
ATOM     16  C   UNL     1       2.381  -4.642   1.318  0.00  0.00    +0.008 A 
ATOM     17  C   UNL     1       1.736  -4.504   2.502  0.00  0.00    +0.045 A 
ATOM     18  S   UNL     1       0.531  -3.242   2.120  0.00  0.00    -0.100 S 
ENDBRANCH  13  14
ENDBRANCH   8  13
ENDBRANCH   1   9
BRANCH   6  19
ATOM     19  N   UNL     1      -3.623  -0.742  -3.512  0.00  0.00    -0.280 N 
ATOM     20  H   UNL     1      -2.774  -0.274  -3.505  0.00  0.00    +0.166 HD
BRANCH  19  21
ATOM     21  N   UNL     1      -4.270  -0.963  -4.695  0.00  0.00    -0.256 NA
ATOM     22  H   UNL     1      -3.747  -0.585  -5.470  0.00  0.00    +0.140 HD
ATOM     23  H   UNL     1      -4.454  -1.946  -4.828  0.00  0.00    +0.140 HD
ENDBRANCH  19  21
ENDBRANCH   6  19
TORSDOF 5
