REMARK  Name = ZINC39634690
REMARK  14 active torsions:
REMARK  status: ('A' for Active; 'I' for Inactive)
REMARK    1  A    between atoms: C_1  and  C_2
REMARK    2  A    between atoms: C_2  and  C_3
REMARK    3  A    between atoms: C_2  and  N_4
REMARK    4  A    between atoms: N_4  and  C_5
REMARK    5  A    between atoms: N_4  and  C_33
REMARK    6  A    between atoms: C_5  and  C_6
REMARK    7  A    between atoms: C_6  and  N_7
REMARK    8  A    between atoms: C_8  and  C_10
REMARK    9  A    between atoms: C_21  and  C_23
REMARK   10  A    between atoms: C_28  and  O_29
REMARK   11  A    between atoms: O_29  and  C_30
REMARK   12  A    between atoms: C_30  and  C_32
REMARK   13  A    between atoms: C_33  and  C_34
REMARK   14  A    between atoms: C_33  and  C_35
REMARK                            x       y       z     vdW  Elec       q    Type
REMARK                         _______ _______ _______ _____ _____    ______ ____
ROOT
ATOM      1  C   UNL     1      -8.521  -2.244  -1.932  0.00  0.00    +0.100 C 
ATOM      2  C   UNL     1      -8.333  -3.708  -2.389  0.00  0.00    +0.121 C 
ATOM      3  N   UNL     1      -9.686  -4.306  -2.297  0.00  0.00    -0.296 N 
ATOM      4  C   UNL     1     -10.594  -3.236  -2.776  0.00  0.00    +0.115 C 
ATOM      5  C   UNL     1     -10.005  -1.937  -2.192  0.00  0.00    -0.004 C 
ATOM      6  C   UNL     1     -10.141  -0.796  -3.196  0.00  0.00    -0.010 C 
ATOM      7  C   UNL     1     -11.624  -0.470  -3.393  0.00  0.00    -0.082 C 
ATOM      8  N   UNL     1     -12.219  -0.089  -2.106  0.00  0.00    +0.379 N 
ATOM      9  C   UNL     1     -12.167  -1.223  -1.175  0.00  0.00    -0.082 C 
ATOM     10  C   UNL     1     -10.707  -1.581  -0.884  0.00  0.00    -0.010 C 
ATOM     11  C   UNL     1     -10.016  -5.542  -1.874  0.00  0.00    +0.250 C 
ATOM     12  O   UNL     1     -11.167  -5.926  -1.958  0.00  0.00    -0.270 OA
ATOM     13  H   UNL     1     -11.705   0.687  -1.716  0.00  0.00    -0.086 HD
ATOM     14  H   UNL     1     -13.180   0.184  -2.248  0.00  0.00    -0.086 HD
ENDROOT
BRANCH  11  15
ATOM     15  C   UNL     1      -8.981  -6.430  -1.310  0.00  0.00    +0.079 A 
ATOM     16  C   UNL     1      -7.697  -6.449  -1.859  0.00  0.00    +0.017 A 
ATOM     17  C   UNL     1      -6.735  -7.280  -1.328  0.00  0.00    +0.001 A 
ATOM     18  C   UNL     1      -7.035  -8.098  -0.250  0.00  0.00    +0.004 A 
ATOM     19  C   UNL     1      -8.301  -8.088   0.302  0.00  0.00    +0.047 A 
ATOM     20  C   UNL     1      -9.280  -7.254  -0.217  0.00  0.00    +0.144 A 
BRANCH  20  21
ATOM     21  O   UNL     1     -10.522  -7.240   0.328  0.00  0.00    -0.425 OA
BRANCH  21  22
ATOM     22  C   UNL     1     -10.788  -6.317   1.267  0.00  0.00    +0.309 C 
ATOM     23  O   UNL     1      -9.959  -5.485   1.548  0.00  0.00    -0.251 OA
ATOM     24  C   UNL     1     -12.122  -6.320   1.970  0.00  0.00    +0.136 C 
ENDBRANCH  21  22
ENDBRANCH  20  21
ENDBRANCH  11  15
BRANCH   1  26
ATOM     25  N   UNL     1      -7.832  -0.913   0.035  0.00  0.00    -0.317 N 
ATOM     26  C   UNL     1      -8.205  -2.107  -0.465  0.00  0.00    +0.218 C 
ATOM     27  O   UNL     1      -8.286  -3.072   0.265  0.00  0.00    -0.275 OA
ATOM     28  H   UNL     1      -7.767  -0.141  -0.548  0.00  0.00    +0.149 HD
BRANCH  25  29
ATOM     29  C   UNL     1      -7.525  -0.780   1.462  0.00  0.00    +0.085 C 
BRANCH  29  30
ATOM     30  C   UNL     1      -7.132   0.667   1.766  0.00  0.00    -0.059 C 
BRANCH  30  31
ATOM     31  N   UNL     1      -6.794   0.793   3.190  0.00  0.00    +0.384 N 
ATOM     32  H   UNL     1      -7.568   0.468   3.750  0.00  0.00    -0.081 HD
BRANCH  31  34
ATOM     33  C   UNL     1      -7.673   3.071   3.000  0.00  0.00    -0.014 C 
ATOM     34  C   UNL     1      -6.520   2.202   3.505  0.00  0.00    -0.074 C 
ATOM     35  C   UNL     1      -6.382   2.368   5.020  0.00  0.00    -0.014 C 
ENDBRANCH  31  34
BRANCH  31  36
ATOM     36  C   UNL     1      -5.604  -0.015   3.485  0.00  0.00    -0.074 C 
ATOM     37  C   UNL     1      -4.372   0.647   2.864  0.00  0.00    -0.014 C 
ATOM     38  C   UNL     1      -5.419  -0.118   5.000  0.00  0.00    -0.014 C 
ENDBRANCH  31  36
ENDBRANCH  30  31
ENDBRANCH  29  30
ENDBRANCH  25  29
ENDBRANCH   1  26
TORSDOF 9
