REMARK  Name = ZINC38839670
REMARK  9 active torsions:
REMARK  status: ('A' for Active; 'I' for Inactive)
REMARK    1  A    between atoms: C_1  and  C_2
REMARK    2  A    between atoms: C_2  and  C_3
REMARK    3  A    between atoms: C_3  and  C_4
REMARK    4  A    between atoms: C_22  and  C_37
REMARK    5  A    between atoms: C_25  and  O_36
REMARK    6  A    between atoms: C_28  and  C_35
REMARK    7  A    between atoms: C_29  and  C_31
REMARK    8  A    between atoms: C_31  and  C_33
REMARK    9  A    between atoms: C_33  and  O_34
REMARK                            x       y       z     vdW  Elec       q    Type
REMARK                         _______ _______ _______ _____ _____    ______ ____
ROOT
ATOM      1  C   UNL     1       1.954  -1.618  -1.455  0.00  0.00    +0.252 C 
ATOM      2  O   UNL     1       0.499  -1.707  -1.532  0.00  0.00    -0.345 OA
ATOM      3  C   UNL     1       0.304  -2.890  -2.287  0.00  0.00    +0.161 C 
ATOM      4  C   UNL     1      -0.922  -3.087  -3.169  0.00  0.00    +0.039 C 
ATOM      5  C   UNL     1      -0.359  -4.023  -4.300  0.00  0.00    +0.004 C 
ATOM      6  C   UNL     1      -0.666  -5.449  -3.873  0.00  0.00    -0.000 C 
ATOM      7  C   UNL     1      -0.668  -5.534  -2.346  0.00  0.00    +0.008 C 
ATOM      8  C   UNL     1      -1.060  -6.941  -1.876  0.00  0.00    +0.032 C 
ATOM      9  C   UNL     1      -0.118  -7.914  -2.558  0.00  0.00    -0.056 C 
ATOM     10  C   UNL     1       0.617  -8.759  -1.854  0.00  0.00    +0.051 C 
ATOM     11  C   UNL     1       1.597  -9.619  -2.544  0.00  0.00    +0.179 C 
ATOM     12  O   UNL     1       2.472 -10.190  -1.920  0.00  0.00    -0.288 OA
ATOM     13  C   UNL     1       1.493  -9.768  -4.007  0.00  0.00    +0.047 C 
ATOM     14  C   UNL     1       0.719  -8.932  -4.693  0.00  0.00    -0.012 C 
ATOM     15  C   UNL     1      -0.069  -7.850  -4.059  0.00  0.00    +0.013 C 
ATOM     16  C   UNL     1       0.337  -6.440  -4.464  0.00  0.00    +0.035 C 
ATOM     17  C   UNL     1       1.719  -6.088  -3.902  0.00  0.00    +0.120 C 
ATOM     18  C   UNL     1       2.137  -4.759  -4.524  0.00  0.00    +0.042 C 
ATOM     19  C   UNL     1       1.123  -3.674  -4.399  0.00  0.00    +0.012 C 
ATOM     20  C   UNL     1       1.403  -2.626  -3.384  0.00  0.00    +0.164 C 
ATOM     21  O   UNL     1       2.508  -2.309  -2.612  0.00  0.00    -0.334 OA
ATOM     22  C   UNL     1       1.206  -2.901  -5.716  0.00  0.00    +0.015 C 
ATOM     23  C   UNL     1      -1.510  -8.027  -4.540  0.00  0.00    +0.020 C 
ENDROOT
BRANCH  20  24
ATOM     24  C   UNL     1       0.957  -1.333  -4.017  0.00  0.00    +0.193 C 
ATOM     25  O   UNL     1      -0.206  -1.012  -3.978  0.00  0.00    -0.292 OA
BRANCH  24  26
ATOM     26  C   UNL     1       1.963  -0.442  -4.698  0.00  0.00    +0.233 C 
BRANCH  26  27
ATOM     27  O   UNL     1       1.333   0.782  -5.081  0.00  0.00    -0.387 OA
ATOM     28  H   UNL     1       1.922   1.406  -5.526  0.00  0.00    +0.210 HD
ENDBRANCH  26  27
ENDBRANCH  24  26
ENDBRANCH  20  24
BRANCH  17  29
ATOM     29  O   UNL     1       2.659  -7.107  -4.249  0.00  0.00    -0.391 OA
ATOM     30  H   UNL     1       3.555  -6.944  -3.923  0.00  0.00    +0.210 HD
ENDBRANCH  17  29
BRANCH   1  31
ATOM     31  C   UNL     1       2.385  -0.150  -1.473  0.00  0.00    +0.061 C 
BRANCH  31  33
ATOM     32  C   UNL     1       2.320   2.010  -0.219  0.00  0.00    +0.004 C 
ATOM     33  C   UNL     1       1.889   0.542  -0.201  0.00  0.00    +0.002 C 
ENDBRANCH  31  33
ENDBRANCH   1  31
TORSDOF 6
