REMARK  Name = ZINC36406053
REMARK  7 active torsions:
REMARK  status: ('A' for Active; 'I' for Inactive)
REMARK    1  A    between atoms: C_1  and  C_2
REMARK    2  A    between atoms: C_2  and  C_3
REMARK    3  A    between atoms: C_2  and  N_10
REMARK    4  A    between atoms: C_14  and  C_16
REMARK    5  A    between atoms: C_16  and  N_17
REMARK    6  A    between atoms: N_20  and  C_23
REMARK    7  A    between atoms: C_23  and  C_24
REMARK                            x       y       z     vdW  Elec       q    Type
REMARK                         _______ _______ _______ _____ _____    ______ ____
ROOT
ATOM      1  N   UNL     1      -1.308  -0.659   0.028  0.00  0.00    -0.296 N 
ATOM      2  C   UNL     1      -2.021  -0.785  -1.109  0.00  0.00    +0.306 C 
ATOM      3  O   UNL     1      -1.576  -0.357  -2.156  0.00  0.00    -0.252 OA
ATOM      4  N   UNL     1      -3.226  -1.388  -1.085  0.00  0.00    -0.239 N 
ATOM      5  C   UNL     1      -3.939  -1.514  -2.223  0.00  0.00    +0.234 C 
ATOM      6  O   UNL     1      -3.495  -1.087  -3.267  0.00  0.00    -0.274 OA
ATOM      7  H   UNL     1      -1.663  -1.001   0.863  0.00  0.00    +0.151 HD
ATOM      8  H   UNL     1      -3.581  -1.730  -0.250  0.00  0.00    +0.159 HD
ENDROOT
BRANCH   1  10
ATOM      9  C   UNL     1      -0.182   1.510   0.121  0.00  0.00    +0.028 C 
ATOM     10  C   UNL     1       0.002  -0.004   0.002  0.00  0.00    +0.075 C 
BRANCH  10  11
ATOM     11  C   UNL     1       0.848  -0.509   1.173  0.00  0.00    +0.012 C 
ATOM     12  C   UNL     1       2.296   0.019   1.059  0.00  0.00    +0.009 C 
ATOM     13  C   UNL     1       3.175  -1.263   0.941  0.00  0.00    -0.010 C 
ATOM     14  C   UNL     1       3.104  -1.917   2.354  0.00  0.00    +0.004 C 
ATOM     15  C   UNL     1       1.656  -2.446   2.468  0.00  0.00    +0.004 C 
ATOM     16  C   UNL     1       0.988  -2.061   1.113  0.00  0.00    -0.006 C 
ATOM     17  C   UNL     1       2.209  -2.204   0.137  0.00  0.00    +0.007 C 
ENDBRANCH  10  11
ENDBRANCH   1  10
BRANCH   5  18
ATOM     18  C   UNL     1      -5.287  -2.188  -2.196  0.00  0.00    +0.180 C 
BRANCH  18  19
ATOM     19  N   UNL     1      -5.855  -2.200  -3.551  0.00  0.00    -0.298 NA
ATOM     20  C   UNL     1      -6.160  -0.836  -4.006  0.00  0.00    +0.066 C 
ATOM     21  C   UNL     1      -6.692  -0.887  -5.440  0.00  0.00    -0.063 C 
ATOM     22  N   UNL     1      -7.902  -1.719  -5.483  0.00  0.00    +0.387 N 
ATOM     23  C   UNL     1      -7.577  -3.084  -5.049  0.00  0.00    -0.063 C 
ATOM     24  C   UNL     1      -7.051  -3.051  -3.612  0.00  0.00    +0.066 C 
ATOM     25  H   UNL     1      -8.601  -1.328  -4.869  0.00  0.00    -0.081 HD
BRANCH  22  26
ATOM     26  C   UNL     1      -8.423  -1.753  -6.856  0.00  0.00    +0.019 C 
BRANCH  26  27
ATOM     27  C   UNL     1      -9.730  -2.503  -6.879  0.00  0.00    +0.199 C 
ATOM     28  O   UNL     1     -10.183  -2.964  -5.853  0.00  0.00    -0.278 OA
ATOM     29  N   UNL     1     -10.396  -2.662  -8.040  0.00  0.00    -0.303 N 
ATOM     30  C   UNL     1      -9.960  -2.163  -9.353  0.00  0.00    +0.108 C 
ATOM     31  C   UNL     1     -11.046  -2.558 -10.376  0.00  0.00    +0.020 C 
ATOM     32  C   UNL     1     -12.302  -2.762  -9.489  0.00  0.00    +0.020 C 
ATOM     33  C   UNL     1     -11.678  -3.370  -8.206  0.00  0.00    +0.108 C 
ENDBRANCH  26  27
ENDBRANCH  22  26
ENDBRANCH  18  19
ENDBRANCH   5  18
TORSDOF 6
