REMARK  Name = ZINC57311845
REMARK  11 active torsions:
REMARK  status: ('A' for Active; 'I' for Inactive)
REMARK    1  A    between atoms: C_1  and  C_2
REMARK    2  A    between atoms: C_2  and  N_3
REMARK    3  A    between atoms: N_3  and  C_4
REMARK    4  A    between atoms: N_3  and  C_6
REMARK    5  A    between atoms: C_4  and  C_5
REMARK    6  A    between atoms: C_9  and  C_13
REMARK    7  A    between atoms: C_10  and  O_12
REMARK    8  A    between atoms: N_22  and  C_25
REMARK    9  A    between atoms: C_25  and  C_26
REMARK   10  A    between atoms: C_25  and  C_27
REMARK   11  A    between atoms: C_28  and  O_30
REMARK                            x       y       z     vdW  Elec       q    Type
REMARK                         _______ _______ _______ _____ _____    ______ ____
ROOT
ATOM      1  C   UNL     1      -1.235  -6.297   0.400  0.00  0.00    +0.227 C 
ATOM      2  N   UNL     1      -1.065  -6.866  -0.949  0.00  0.00    -0.313 N 
ATOM      3  C   UNL     1      -2.205  -6.981  -1.711  0.00  0.00    +0.080 A 
ATOM      4  C   UNL     1      -3.477  -7.080  -1.131  0.00  0.00    +0.067 A 
ATOM      5  C   UNL     1      -4.582  -7.182  -2.061  0.00  0.00    -0.027 A 
ATOM      6  C   UNL     1      -4.223  -7.175  -3.368  0.00  0.00    -0.021 A 
ATOM      7  S   UNL     1      -2.459  -7.033  -3.349  0.00  0.00    -0.080 S 
ATOM      8  C   UNL     1      -5.149  -7.271  -4.539  0.00  0.00    -0.035 C 
ATOM      9  N   UNL     1      -6.457  -7.753  -4.058  0.00  0.00    +0.384 N 
ATOM     10  C   UNL     1      -6.889  -6.943  -2.911  0.00  0.00    -0.073 C 
ATOM     11  C   UNL     1      -6.051  -7.288  -1.675  0.00  0.00    +0.018 C 
ATOM     12  C   UNL     1      -3.553  -7.079   0.353  0.00  0.00    +0.220 C 
ATOM     13  N   UNL     1      -2.482  -6.737   1.014  0.00  0.00    -0.223 NA
ATOM     14  H   UNL     1      -0.197  -7.144  -1.282  0.00  0.00    +0.149 HD
ATOM     15  H   UNL     1      -6.377  -8.718  -3.777  0.00  0.00    -0.081 HD
ENDROOT
BRANCH   1  19
ATOM     16  C   UNL     1      -1.246  -2.031   0.123  0.00  0.00    +0.017 A 
ATOM     17  C   UNL     1      -0.629  -2.788  -0.855  0.00  0.00    +0.022 A 
ATOM     18  C   UNL     1      -0.625  -4.168  -0.765  0.00  0.00    +0.013 A 
ATOM     19  C   UNL     1      -1.239  -4.793   0.303  0.00  0.00    +0.036 A 
ATOM     20  C   UNL     1      -1.858  -4.036   1.286  0.00  0.00    +0.125 A 
ATOM     21  C   UNL     1      -1.855  -2.651   1.197  0.00  0.00    +0.067 A 
BRANCH  16  22
ATOM     22  N   UNL     1      -1.248  -0.636   0.029  0.00  0.00    -0.394 NA
ATOM     23  H   UNL     1      -1.734  -0.246   0.823  0.00  0.00    +0.126 HD
BRANCH  22  25
ATOM     24  C   UNL     1       0.134   1.385   0.035  0.00  0.00    +0.022 C 
ATOM     25  C   UNL     1       0.136  -0.144   0.013  0.00  0.00    +0.081 C 
ENDBRANCH  22  25
BRANCH  22  26
ATOM     26  C   UNL     1      -1.927  -0.230  -1.208  0.00  0.00    +0.081 C 
ATOM     27  C   UNL     1      -3.401  -0.633  -1.137  0.00  0.00    +0.022 C 
ENDBRANCH  22  26
ENDBRANCH  16  22
BRANCH  20  28
ATOM     28  O   UNL     1      -2.462  -4.649   2.338  0.00  0.00    -0.506 OA
ATOM     29  H   UNL     1      -1.879  -4.794   3.096  0.00  0.00    +0.292 HD
ENDBRANCH  20  28
ENDBRANCH   1  19
BRANCH   9  30
ATOM     30  C   UNL     1      -7.447  -7.639  -5.138  0.00  0.00    -0.074 C 
ATOM     31  C   UNL     1      -6.934  -8.371  -6.380  0.00  0.00    -0.014 C 
ATOM     32  C   UNL     1      -8.768  -8.264  -4.687  0.00  0.00    -0.014 C 
ENDBRANCH   9  30
BRANCH  12  33
ATOM     33  O   UNL     1      -4.694  -7.418   0.996  0.00  0.00    -0.492 OA
ATOM     34  H   UNL     1      -4.628  -7.381   1.960  0.00  0.00    +0.294 HD
ENDBRANCH  12  33
TORSDOF 7
