REMARK  Name = ZINC19591961
REMARK  8 active torsions:
REMARK  status: ('A' for Active; 'I' for Inactive)
REMARK    1  A    between atoms: C_1  and  N_2
REMARK    2  A    between atoms: N_2  and  S_3
REMARK    3  A    between atoms: S_3  and  C_6
REMARK    4  A    between atoms: C_9  and  C_12
REMARK    5  A    between atoms: C_12  and  C_13
REMARK    6  A    between atoms: C_13  and  C_14
REMARK    7  A    between atoms: N_16  and  C_17
REMARK    8  A    between atoms: C_24  and  C_26
REMARK                            x       y       z     vdW  Elec       q    Type
REMARK                         _______ _______ _______ _____ _____    ______ ____
ROOT
ATOM      1  C   UNL     1       2.319   0.938  -0.685  0.00  0.00    +0.214 C 
ATOM      2  O   UNL     1       2.044  -0.076  -1.290  0.00  0.00    -0.276 OA
ATOM      3  N   UNL     1       1.361   1.596  -0.002  0.00  0.00    -0.310 N 
ATOM      4  H   UNL     1       1.610   2.516   0.547  0.00  0.00    +0.149 HD
ENDROOT
BRANCH   3   5
ATOM      5  C   UNL     1      -0.013   1.086   0.008  0.00  0.00    +0.098 C 
ATOM      6  C   UNL     1      -0.761   1.597  -1.229  0.00  0.00    +0.033 C 
ATOM      7  C   UNL     1      -2.124   0.903  -1.291  0.00  0.00    +0.097 C 
ATOM      8  C   UNL     1      -2.802   0.989   0.046  0.00  0.00    +0.214 C 
ATOM      9  O   UNL     1      -3.997   0.788   0.097  0.00  0.00    -0.276 OA
ATOM     10  N   UNL     1      -2.161   1.274   1.180  0.00  0.00    -0.307 N 
ATOM     11  C   UNL     1      -0.735   1.582   1.261  0.00  0.00    +0.124 C 
ATOM     12  H   UNL     1      -2.775   1.267   2.092  0.00  0.00    +0.149 HD
BRANCH  11  13
ATOM     13  C   UNL     1      -0.144   0.913   2.475  0.00  0.00    -0.018 A 
ATOM     14  C   UNL     1       0.777   1.577   3.264  0.00  0.00    +0.013 A 
ATOM     15  C   UNL     1       1.290   0.947   4.348  0.00  0.00    +0.045 A 
ATOM     16  S   UNL     1       0.466  -0.635   4.280  0.00  0.00    -0.105 S 
ATOM     17  C   UNL     1      -0.511  -0.347   2.813  0.00  0.00    +0.050 A 
ENDBRANCH  11  13
ENDBRANCH   3   5
BRANCH   1  18
ATOM     18  C   UNL     1       3.731   1.463  -0.695  0.00  0.00    +0.100 C 
BRANCH  18  19
ATOM     19  C   UNL     1       4.613   0.537  -1.536  0.00  0.00    +0.044 C 
BRANCH  19  23
ATOM     20  C   UNL     1       8.617   2.025  -1.567  0.00  0.00    +0.105 A 
ATOM     21  C   UNL     1       8.218   1.135  -0.587  0.00  0.00    +0.029 A 
ATOM     22  C   UNL     1       6.922   0.654  -0.577  0.00  0.00    +0.005 A 
ATOM     23  C   UNL     1       6.026   1.062  -1.547  0.00  0.00    -0.047 A 
ATOM     24  C   UNL     1       6.427   1.948  -2.530  0.00  0.00    +0.005 A 
ATOM     25  C   UNL     1       7.721   2.432  -2.537  0.00  0.00    +0.029 A 
BRANCH  20  26
ATOM     26  S   UNL     1      10.269   2.638  -1.579  0.00  0.00    +0.058 S 
ATOM     27  O   UNL     1      10.238   3.875  -2.277  0.00  0.00    -0.153 OA
ATOM     28  O   UNL     1      10.754   2.526  -0.249  0.00  0.00    -0.153 OA
BRANCH  26  30
ATOM     29  C   UNL     1      10.895   1.461  -3.933  0.00  0.00    +0.127 C 
ATOM     30  N   UNL     1      11.171   1.598  -2.501  0.00  0.00    -0.193 NA
ATOM     31  H   UNL     1      11.858   0.898  -2.003  0.00  0.00    +0.148 HD
ENDBRANCH  26  30
ENDBRANCH  20  26
ENDBRANCH  19  23
ENDBRANCH  18  19
ENDBRANCH   1  18
TORSDOF 7
