REMARK  Name = ZINC02340134
REMARK  5 active torsions:
REMARK  status: ('A' for Active; 'I' for Inactive)
REMARK    1  A    between atoms: C_3  and  C_6
REMARK    2  A    between atoms: C_10  and  N_25
REMARK    3  A    between atoms: C_11  and  C_15
REMARK    4  A    between atoms: C_15  and  O_17
REMARK    5  A    between atoms: O_17  and  C_18
REMARK                            x       y       z     vdW  Elec       q    Type
REMARK                         _______ _______ _______ _____ _____    ______ ____
ROOT
ATOM      1  C   UNL     1       2.660  -8.950  -0.666  0.00  0.00    +0.107 A 
ATOM      2  C   UNL     1       4.019  -8.612  -0.716  0.00  0.00    +0.032 A 
ATOM      3  C   UNL     1       4.407  -7.311  -0.632  0.00  0.00    +0.014 A 
ATOM      4  C   UNL     1       3.421  -6.298  -0.493  0.00  0.00    +0.029 A 
ATOM      5  C   UNL     1       3.610  -4.861  -0.387  0.00  0.00    +0.055 A 
ATOM      6  C   UNL     1       2.492  -4.062  -0.257  0.00  0.00    +0.120 A 
ATOM      7  S   UNL     1       1.146  -5.230  -0.268  0.00  0.00    -0.060 S 
ATOM      8  C   UNL     1       2.076  -6.732  -0.452  0.00  0.00    +0.112 A 
ATOM      9  N   UNL     1       1.739  -8.000  -0.536  0.00  0.00    -0.236 NA
ENDROOT
BRANCH   1  12
ATOM     10  C   UNL     1       1.046 -12.230  -0.841  0.00  0.00    +0.042 A 
ATOM     11  C   UNL     1       0.971 -10.830  -0.718  0.00  0.00    +0.051 A 
ATOM     12  C   UNL     1       2.250 -10.364  -0.758  0.00  0.00    +0.153 A 
ATOM     13  O   UNL     1       3.076 -11.420  -0.891  0.00  0.00    -0.461 OA
ATOM     14  C   UNL     1       2.353 -12.549  -0.941  0.00  0.00    +0.196 A 
ENDBRANCH   1  12
BRANCH   5  15
ATOM     15  N   UNL     1       4.881  -4.306  -0.415  0.00  0.00    -0.356 N 
ATOM     16  H   UNL     1       4.992  -3.346  -0.342  0.00  0.00    +0.142 HD
ATOM     17  H   UNL     1       5.658  -4.880  -0.506  0.00  0.00    +0.142 HD
ENDBRANCH   5  15
BRANCH   6  18
ATOM     18  C   UNL     1       2.430  -2.655  -0.139  0.00  0.00    +0.353 C 
ATOM     19  O   UNL     1       3.454  -1.998  -0.144  0.00  0.00    -0.244 OA
BRANCH  18  20
ATOM     20  O   UNL     1       1.234  -2.039  -0.020  0.00  0.00    -0.422 OA
BRANCH  20  21
ATOM     21  C   UNL     1       1.212  -0.680  -0.029  0.00  0.00    +0.132 A 
ATOM     22  C   UNL     1       1.507   0.012  -1.194  0.00  0.00    +0.048 A 
ATOM     23  C   UNL     1       1.483   1.393  -1.201  0.00  0.00    +0.023 A 
ATOM     24  C   UNL     1       1.166   2.086  -0.046  0.00  0.00    +0.041 A 
ATOM     25  C   UNL     1       0.872   1.397   1.117  0.00  0.00    +0.023 A 
ATOM     26  C   UNL     1       0.894   0.016   1.128  0.00  0.00    +0.048 A 
ATOM     27 CL   UNL     1       1.137   3.822  -0.057  0.00  0.00    -0.084 Cl
ENDBRANCH  20  21
ENDBRANCH  18  20
ENDBRANCH   6  18
TORSDOF 5
