REMARK  Name = ZINC09939156
REMARK  7 active torsions:
REMARK  status: ('A' for Active; 'I' for Inactive)
REMARK    1  A    between atoms: C_1  and  C_2
REMARK    2  A    between atoms: C_8  and  C_31
REMARK    3  A    between atoms: C_19  and  C_21
REMARK    4  A    between atoms: C_21  and  S_22
REMARK    5  A    between atoms: S_22  and  C_23
REMARK    6  A    between atoms: C_25  and  C_30
REMARK    7  A    between atoms: C_27  and  C_29
REMARK                            x       y       z     vdW  Elec       q    Type
REMARK                         _______ _______ _______ _____ _____    ______ ____
ROOT
ATOM      1  C   UNL     1      -2.490   0.970   0.019  0.00  0.00    +0.044 C 
ATOM      2  C   UNL     1      -1.199   1.746   0.017  0.00  0.00    -0.050 A 
ATOM      3  C   UNL     1      -1.235   3.139   0.030  0.00  0.00    +0.005 A 
ATOM      4  C   UNL     1      -0.087   3.872   0.023  0.00  0.00    +0.029 A 
ATOM      5  C   UNL     1       1.153   3.217   0.008  0.00  0.00    +0.076 A 
ATOM      6  C   UNL     1       1.189   1.799   0.000  0.00  0.00    +0.022 A 
ATOM      7  C   UNL     1      -0.013   1.076   0.008  0.00  0.00    +0.015 A 
ATOM      8  C   UNL     1       2.444   1.162  -0.015  0.00  0.00    +0.051 A 
ATOM      9  N   UNL     1       3.527   1.910  -0.022  0.00  0.00    -0.219 NA
ATOM     10  C   UNL     1       3.456   3.239  -0.014  0.00  0.00    +0.222 A 
ATOM     11  N   UNL     1       2.310   3.890  -0.000  0.00  0.00    -0.214 NA
ATOM     12  N   UNL     1       4.636   3.969  -0.022  0.00  0.00    -0.254 N 
ATOM     13  C   UNL     1       4.595   5.341  -0.015  0.00  0.00    +0.202 A 
ATOM     14  N   UNL     1       5.759   6.044  -0.017  0.00  0.00    -0.295 N 
ATOM     15  H   UNL     1       6.610   5.578  -0.023  0.00  0.00    +0.172 HD
ATOM     16  C   UNL     1       5.727   7.394  -0.014  0.00  0.00    +0.253 A 
ATOM     17  O   UNL     1       6.761   8.041  -0.020  0.00  0.00    -0.268 OA
ATOM     18  C   UNL     1       4.478   8.040   0.001  0.00  0.00    +0.094 A 
ATOM     19  C   UNL     1       3.343   7.282   0.008  0.00  0.00    +0.060 A 
ATOM     20  N   UNL     1       3.429   5.953  -0.000  0.00  0.00    -0.220 NA
ATOM     21  C   UNL     1       2.545  -0.342  -0.023  0.00  0.00    +0.066 C 
ATOM     22  H   UNL     1       5.491   3.509  -0.033  0.00  0.00    +0.158 HD
ENDROOT
BRANCH  19  23
ATOM     23  C   UNL     1       1.992   7.949   0.025  0.00  0.00    +0.133 C 
BRANCH  23  24
ATOM     24  S   UNL     1       1.239   7.829  -1.617  0.00  0.00    -0.080 S 
BRANCH  24  25
ATOM     25  C   UNL     1      -0.283   8.664  -1.317  0.00  0.00    +0.189 A 
ATOM     26  N   UNL     1      -0.532   9.140  -0.105  0.00  0.00    -0.227 NA
ATOM     27  C   UNL     1      -1.663   9.777   0.151  0.00  0.00    +0.043 A 
ATOM     28  C   UNL     1      -2.596   9.933  -0.862  0.00  0.00    +0.046 A 
ATOM     29  C   UNL     1      -2.306   9.417  -2.115  0.00  0.00    +0.043 A 
ATOM     30  N   UNL     1      -1.154   8.796  -2.307  0.00  0.00    -0.227 NA
ATOM     31  C   UNL     1      -3.291   9.564  -3.247  0.00  0.00    +0.066 C 
ATOM     32  C   UNL     1      -1.935  10.321   1.530  0.00  0.00    +0.066 C 
ENDBRANCH  24  25
ENDBRANCH  23  24
ENDBRANCH  19  23
TORSDOF 3
