REMARK  Name = ZINC16130891
REMARK  5 active torsions:
REMARK  status: ('A' for Active; 'I' for Inactive)
REMARK    1  A    between atoms: C_4  and  O_22
REMARK    2  A    between atoms: C_5  and  C_7
REMARK    3  A    between atoms: N_9  and  N_10
REMARK    4  A    between atoms: N_10  and  S_11
REMARK    5  A    between atoms: S_11  and  C_14
REMARK                            x       y       z     vdW  Elec       q    Type
REMARK                         _______ _______ _______ _____ _____    ______ ____
ROOT
ATOM      1  N   UNL     1       0.396   4.214  -1.419  0.00  0.00    -0.108 NA
ATOM      2  H   UNL     1       0.900   4.632  -2.134  0.00  0.00    +0.172 HD
ENDROOT
BRANCH   1   5
ATOM      3  C   UNL     1      -1.839   4.709  -2.071  0.00  0.00    +0.262 C 
ATOM      4  O   UNL     1      -1.509   5.861  -2.277  0.00  0.00    -0.269 OA
ATOM      5  N   UNL     1      -0.930   3.816  -1.635  0.00  0.00    -0.228 N 
ATOM      6  H   UNL     1      -1.193   2.897  -1.470  0.00  0.00    +0.171 HD
BRANCH   3  11
ATOM      7  C   UNL     1      -4.924   2.581  -2.279  0.00  0.00    +0.001 A 
ATOM      8  C   UNL     1      -5.859   3.500  -2.728  0.00  0.00    +0.004 A 
ATOM      9  C   UNL     1      -5.494   4.810  -2.964  0.00  0.00    +0.046 A 
ATOM     10  C   UNL     1      -4.184   5.215  -2.753  0.00  0.00    +0.129 A 
ATOM     11  C   UNL     1      -3.235   4.290  -2.299  0.00  0.00    +0.079 A 
ATOM     12  C   UNL     1      -3.617   2.966  -2.069  0.00  0.00    +0.017 A 
BRANCH  10  13
ATOM     13  O   UNL     1      -3.824   6.503  -2.985  0.00  0.00    -0.506 OA
ATOM     14  H   UNL     1      -3.521   6.669  -3.888  0.00  0.00    +0.292 HD
ENDBRANCH  10  13
ENDBRANCH   3  11
ENDBRANCH   1   5
BRANCH   1  15
ATOM     15  S   UNL     1       1.103   3.971   0.059  0.00  0.00    +0.075 S 
ATOM     16  O   UNL     1       2.384   4.583   0.002  0.00  0.00    -0.152 OA
ATOM     17  O   UNL     1       0.930   2.595   0.371  0.00  0.00    -0.152 OA
BRANCH  15  18
ATOM     18  C   UNL     1       0.164   4.877   1.242  0.00  0.00    +0.122 A 
ATOM     19  C   UNL     1      -0.516   4.210   2.244  0.00  0.00    +0.045 A 
ATOM     20  C   UNL     1      -1.254   4.921   3.172  0.00  0.00    +0.020 A 
ATOM     21  C   UNL     1      -1.312   6.302   3.098  0.00  0.00    +0.016 A 
ATOM     22  C   UNL     1      -0.632   6.969   2.097  0.00  0.00    +0.018 A 
ATOM     23  C   UNL     1       0.106   6.257   1.168  0.00  0.00    +0.044 A 
ATOM     24 BR   UNL     1       1.029   7.170  -0.207  0.00  0.00    -0.048 Br
ATOM     25 BR   UNL     1      -2.183   4.008   4.542  0.00  0.00    -0.050 Br
ENDBRANCH  15  18
ENDBRANCH   1  15
TORSDOF 5
