REMARK  Name = ZINC12981941
REMARK  6 active torsions:
REMARK  status: ('A' for Active; 'I' for Inactive)
REMARK    1  A    between atoms: C_1  and  C_2
REMARK    2  A    between atoms: C_2  and  C_4
REMARK    3  A    between atoms: C_2  and  N_57
REMARK    4  A    between atoms: N_6  and  C_7
REMARK    5  A    between atoms: C_8  and  C_15
REMARK    6  A    between atoms: C_21  and  C_24
REMARK                            x       y       z     vdW  Elec       q    Type
REMARK                         _______ _______ _______ _____ _____    ______ ____
ROOT
ATOM      1  C   UNL     1       4.063   0.621   0.025  0.00  0.00    -0.004 C 
ATOM      2  C   UNL     1       3.549   1.520   1.151  0.00  0.00    +0.016 C 
ENDROOT
BRANCH   2   8
ATOM      3  C   UNL     1       1.390   2.082   0.209  0.00  0.00    -0.078 C 
ATOM      4  C   UNL     1      -0.119   2.017   0.456  0.00  0.00    -0.018 C 
ATOM      5  C   UNL     1      -0.563   0.552   0.488  0.00  0.00    +0.006 C 
ATOM      6  C   UNL     1       0.220  -0.187   1.577  0.00  0.00    +0.028 C 
ATOM      7  C   UNL     1       1.719  -0.058   1.298  0.00  0.00    -0.068 C 
ATOM      8  N   UNL     1       2.087   1.374   1.305  0.00  0.00    +0.388 N 
ATOM      9  H   UNL     1       1.803   1.787   2.201  0.00  0.00    -0.081 HD
BRANCH   6  10
ATOM     10  C   UNL     1      -0.169  -1.643   1.577  0.00  0.00    +0.081 A 
ATOM     11  N   UNL     1      -0.698  -2.338   2.544  0.00  0.00    -0.244 NA
ATOM     12  C   UNL     1      -1.001  -3.647   2.414  0.00  0.00    +0.078 A 
ATOM     13  C   UNL     1      -1.572  -4.527   3.360  0.00  0.00    +0.029 A 
ATOM     14  C   UNL     1      -1.808  -5.829   3.043  0.00  0.00    +0.002 A 
ATOM     15  C   UNL     1      -1.501  -6.341   1.790  0.00  0.00    +0.001 A 
ATOM     16  C   UNL     1      -0.941  -5.511   0.837  0.00  0.00    +0.017 A 
ATOM     17  C   UNL     1      -0.699  -4.195   1.147  0.00  0.00    +0.039 A 
ATOM     18  S   UNL     1      -0.027  -2.795   0.287  0.00  0.00    -0.072 S 
ENDBRANCH   6  10
ENDBRANCH   2   8
BRANCH   2  19
ATOM     19  C   UNL     1       4.212   1.131   2.447  0.00  0.00    +0.204 C 
ATOM     20  O   UNL     1       3.589   0.513   3.285  0.00  0.00    -0.277 OA
ATOM     21  N   UNL     1       5.497   1.468   2.675  0.00  0.00    -0.281 N 
ATOM     22  H   UNL     1       5.995   1.962   2.004  0.00  0.00    +0.155 HD
BRANCH  21  23
ATOM     23  C   UNL     1       6.107   1.109   3.867  0.00  0.00    +0.084 A 
ATOM     24  C   UNL     1       7.404   1.363   4.280  0.00  0.00    +0.068 A 
ATOM     25  C   UNL     1       7.803   0.870   5.598  0.00  0.00    -0.023 A 
ATOM     26  C   UNL     1       6.845   0.214   6.277  0.00  0.00    -0.004 A 
ATOM     27  S   UNL     1       5.430   0.244   5.204  0.00  0.00    -0.077 S 
ATOM     28  C   UNL     1       7.329  -0.258   7.621  0.00  0.00    +0.043 C 
ATOM     29  C   UNL     1       8.609   0.565   7.885  0.00  0.00    +0.010 C 
ATOM     30  C   UNL     1       9.071   0.895   6.452  0.00  0.00    +0.037 C 
BRANCH  24  31
ATOM     31  C   UNL     1       8.343   2.098   3.427  0.00  0.00    +0.244 C 
ATOM     32  O   UNL     1       8.417   3.310   3.508  0.00  0.00    -0.270 OA
ATOM     33  N   UNL     1       9.124   1.432   2.554  0.00  0.00    -0.325 N 
ATOM     34  H   UNL     1       9.065   0.466   2.490  0.00  0.00    +0.145 HD
ATOM     35  H   UNL     1       9.745   1.918   1.990  0.00  0.00    +0.145 HD
ENDBRANCH  24  31
ENDBRANCH  21  23
ENDBRANCH   2  19
TORSDOF 5
