REMARK  Name = ZINC63373392
REMARK  5 active torsions:
REMARK  status: ('A' for Active; 'I' for Inactive)
REMARK    1  A    between atoms: C_7  and  C_10
REMARK    2  A    between atoms: C_10  and  C_11
REMARK    3  A    between atoms: C_11  and  N_12
REMARK    4  A    between atoms: C_13  and  C_15
REMARK    5  A    between atoms: C_19  and  C_21
REMARK                            x       y       z     vdW  Elec       q    Type
REMARK                         _______ _______ _______ _____ _____    ______ ____
ROOT
ATOM      1  C   UNL     1      -1.734  -6.535  -2.622  0.00  0.00    +0.126 A 
ATOM      2  C   UNL     1      -2.091  -7.138  -3.833  0.00  0.00    +0.039 A 
ATOM      3  C   UNL     1      -2.954  -8.203  -3.821  0.00  0.00    -0.005 A 
ATOM      4  C   UNL     1      -3.477  -8.658  -2.597  0.00  0.00    +0.094 A 
ATOM      5  C   UNL     1      -3.052  -8.010  -1.413  0.00  0.00    +0.098 A 
ATOM      6  N   UNL     1      -2.212  -6.993  -1.470  0.00  0.00    -0.240 NA
ATOM      7  N   UNL     1      -4.358  -9.667  -2.811  0.00  0.00    -0.249 NA
ATOM      8  C   UNL     1      -4.592  -9.891  -4.059  0.00  0.00    +0.053 C 
ATOM      9  C   UNL     1      -3.542  -9.116  -4.855  0.00  0.00    +0.092 C 
ATOM     10  C   UNL     1      -4.267  -8.400  -5.959  0.00  0.00    -0.013 C 
ATOM     11  C   UNL     1      -5.383  -8.941  -6.460  0.00  0.00    -0.003 C 
ATOM     12  C   UNL     1      -5.952 -10.184  -5.949  0.00  0.00    +0.002 C 
ATOM     13  C   UNL     1      -5.562 -10.666  -4.729  0.00  0.00    +0.024 C 
ENDROOT
BRANCH   5  14
ATOM     14  C   UNL     1      -3.549  -8.480  -0.100  0.00  0.00    +0.006 A 
ATOM     15  C   UNL     1      -4.849  -8.971   0.021  0.00  0.00    +0.014 A 
ATOM     16  C   UNL     1      -5.311  -9.408   1.245  0.00  0.00    +0.050 A 
ATOM     17  C   UNL     1      -4.486  -9.361   2.359  0.00  0.00    +0.166 A 
ATOM     18  C   UNL     1      -3.185  -8.871   2.245  0.00  0.00    +0.167 A 
ATOM     19  C   UNL     1      -2.716  -8.438   1.018  0.00  0.00    +0.059 A 
ATOM     20  O   UNL     1      -2.588  -8.930   3.471  0.00  0.00    -0.453 OA
ATOM     21  C   UNL     1      -3.664  -9.076   4.416  0.00  0.00    +0.466 C 
ATOM     22  O   UNL     1      -4.701  -9.726   3.657  0.00  0.00    -0.453 OA
ENDBRANCH   5  14
BRANCH   1  24
ATOM     23  N   UNL     1      -0.458  -4.798  -1.460  0.00  0.00    -0.310 N 
ATOM     24  C   UNL     1      -0.811  -5.380  -2.623  0.00  0.00    +0.262 C 
ATOM     25  O   UNL     1      -0.370  -4.956  -3.674  0.00  0.00    -0.269 OA
ATOM     26  H   UNL     1      -0.810  -5.136  -0.622  0.00  0.00    +0.149 HD
BRANCH  23  27
ATOM     27  C   UNL     1       0.457  -3.653  -1.462  0.00  0.00    +0.109 C 
BRANCH  27  28
ATOM     28  C   UNL     1       0.691  -3.186  -0.024  0.00  0.00    +0.052 C 
BRANCH  28  35
ATOM     29  C   UNL     1      -0.016   1.348   0.009  0.00  0.00    +0.001 A 
ATOM     30  C   UNL     1       1.166   2.101   0.002  0.00  0.00    +0.002 A 
ATOM     31  C   UNL     1       2.391   1.535  -0.013  0.00  0.00    +0.026 A 
ATOM     32  C   UNL     1       2.529   0.120  -0.022  0.00  0.00    +0.043 A 
ATOM     33  N   UNL     1       3.587  -0.654  -0.037  0.00  0.00    -0.380 N 
ATOM     34  C   UNL     1       3.143  -2.053  -0.041  0.00  0.00    +0.144 C 
ATOM     35  C   UNL     1       1.631  -2.008  -0.025  0.00  0.00    -0.040 C 
ATOM     36  C   UNL     1       1.295  -0.698  -0.014  0.00  0.00    -0.001 A 
ATOM     37  C   UNL     1       0.002  -0.004   0.002  0.00  0.00    +0.010 A 
ATOM     38  H   UNL     1       4.509  -0.353  -0.045  0.00  0.00    +0.160 HD
ENDBRANCH  28  35
ENDBRANCH  27  28
ENDBRANCH  23  27
ENDBRANCH   1  24
TORSDOF 5
