REMARK  Name = ZINC09282263
REMARK  11 active torsions:
REMARK  status: ('A' for Active; 'I' for Inactive)
REMARK    1  A    between atoms: C_1  and  C_2
REMARK    2  A    between atoms: C_2  and  O_3
REMARK    3  A    between atoms: O_3  and  C_4
REMARK    4  A    between atoms: C_7  and  C_10
REMARK    5  A    between atoms: C_17  and  N_34
REMARK    6  A    between atoms: C_18  and  C_32
REMARK    7  A    between atoms: C_19  and  C_21
REMARK    8  A    between atoms: C_23  and  O_29
REMARK    9  A    between atoms: C_24  and  O_28
REMARK   10  A    between atoms: O_29  and  C_30
REMARK   11  A    between atoms: C_30  and  C_31
REMARK                            x       y       z     vdW  Elec       q    Type
REMARK                         _______ _______ _______ _____ _____    ______ ____
ROOT
ATOM      1  C   UNL     1      -2.035  -6.181  -0.020  0.00  0.00    +0.100 A 
ATOM      2  C   UNL     1      -2.999  -6.852   0.739  0.00  0.00    +0.054 A 
ATOM      3  C   UNL     1      -2.867  -8.190   0.502  0.00  0.00    +0.223 A 
ATOM      4  N   UNL     1      -1.856  -8.353  -0.376  0.00  0.00    -0.246 N 
ATOM      5  H   UNL     1      -1.537  -9.199  -0.728  0.00  0.00    +0.192 HD
ATOM      6  N   UNL     1      -1.350  -7.084  -0.696  0.00  0.00    -0.171 NA
ATOM      7  O   UNL     1      -3.658  -9.119   1.094  0.00  0.00    -0.423 OA
ATOM      8  C   UNL     1      -4.411  -8.724   2.140  0.00  0.00    +0.200 C 
ATOM      9  C   UNL     1      -4.626  -7.430   2.466  0.00  0.00    +0.098 C 
ATOM     10  C   UNL     1      -4.037  -6.289   1.674  0.00  0.00    +0.102 C 
ENDROOT
BRANCH  10  11
ATOM     11  C   UNL     1      -5.122  -5.609   0.880  0.00  0.00    -0.030 A 
ATOM     12  C   UNL     1      -5.337  -4.251   1.027  0.00  0.00    +0.054 A 
ATOM     13  C   UNL     1      -6.334  -3.623   0.297  0.00  0.00    +0.163 A 
ATOM     14  C   UNL     1      -7.117  -4.363  -0.583  0.00  0.00    +0.173 A 
ATOM     15  C   UNL     1      -6.897  -5.724  -0.727  0.00  0.00    +0.063 A 
ATOM     16  C   UNL     1      -5.897  -6.343   0.001  0.00  0.00    +0.023 A 
ATOM     17 BR   UNL     1      -7.960  -6.733  -1.922  0.00  0.00    -0.046 Br
BRANCH  14  18
ATOM     18  O   UNL     1      -8.098  -3.751  -1.301  0.00  0.00    -0.503 OA
ATOM     19  H   UNL     1      -7.804  -3.413  -2.158  0.00  0.00    +0.292 HD
ENDBRANCH  14  18
BRANCH  13  20
ATOM     20  O   UNL     1      -6.546  -2.288   0.442  0.00  0.00    -0.489 OA
BRANCH  20  21
ATOM     21  C   UNL     1      -5.633  -1.572   1.276  0.00  0.00    +0.226 C 
ATOM     22  C   UNL     1      -5.957  -0.078   1.223  0.00  0.00    +0.048 C 
ENDBRANCH  20  21
ENDBRANCH  13  20
ENDBRANCH  10  11
BRANCH   1  26
ATOM     23  C   UNL     1      -1.433  -1.972  -0.144  0.00  0.00    +0.121 A 
ATOM     24  C   UNL     1      -1.391  -2.712  -1.318  0.00  0.00    +0.046 A 
ATOM     25  C   UNL     1      -1.585  -4.077  -1.280  0.00  0.00    +0.013 A 
ATOM     26  C   UNL     1      -1.825  -4.713  -0.064  0.00  0.00    +0.003 A 
ATOM     27  C   UNL     1      -1.866  -3.966   1.113  0.00  0.00    +0.013 A 
ATOM     28  C   UNL     1      -1.666  -2.603   1.070  0.00  0.00    +0.046 A 
BRANCH  23  29
ATOM     29  O   UNL     1      -1.241  -0.627  -0.184  0.00  0.00    -0.492 OA
BRANCH  29  31
ATOM     30  C   UNL     1      -0.814   1.467  -1.312  0.00  0.00    +0.048 C 
ATOM     31  C   UNL     1      -1.006  -0.043  -1.467  0.00  0.00    +0.225 C 
ENDBRANCH  29  31
ENDBRANCH  23  29
ENDBRANCH   1  26
BRANCH   8  32
ATOM     32  N   UNL     1      -4.993  -9.692   2.920  0.00  0.00    -0.328 N 
ATOM     33  H   UNL     1      -4.857 -10.630   2.712  0.00  0.00    +0.145 HD
ATOM     34  H   UNL     1      -5.540  -9.439   3.680  0.00  0.00    +0.145 HD
ENDBRANCH   8  32
BRANCH   9  35
ATOM     35  C   UNL     1      -5.443  -7.131   3.604  0.00  0.00    +0.101 C 
ATOM     36  N   UNL     1      -6.090  -6.894   4.506  0.00  0.00    -0.191 NA
ENDBRANCH   9  35
TORSDOF 9
