REMARK  Name = ZINC18198921
REMARK  6 active torsions:
REMARK  status: ('A' for Active; 'I' for Inactive)
REMARK    1  A    between atoms: C_1  and  O_2
REMARK    2  A    between atoms: O_2  and  C_3
REMARK    3  A    between atoms: C_6  and  C_11
REMARK    4  A    between atoms: C_8  and  O_9
REMARK    5  A    between atoms: O_9  and  C_10
REMARK    6  A    between atoms: C_16  and  C_25
REMARK                            x       y       z     vdW  Elec       q    Type
REMARK                         _______ _______ _______ _____ _____    ______ ____
ROOT
ATOM      1  C   UNL     1      -3.382   5.035  -3.572  0.00  0.00    +0.032 C 
ATOM      2  C   UNL     1      -4.085   5.657  -2.364  0.00  0.00    +0.060 C 
ATOM      3  C   UNL     1      -3.256   5.431  -1.121  0.00  0.00    +0.020 C 
ATOM      4  C   UNL     1      -1.910   5.355  -1.190  0.00  0.00    +0.041 C 
ATOM      5  C   UNL     1      -1.054   5.133   0.037  0.00  0.00    +0.182 C 
ATOM      6  N   UNL     1      -1.845   5.340   1.243  0.00  0.00    -0.219 N 
ATOM      7  C   UNL     1      -3.199   5.416   1.244  0.00  0.00    +0.220 A 
ATOM      8  N   UNL     1      -3.595   5.593   2.475  0.00  0.00    -0.180 NA
ATOM      9  C   UNL     1      -2.529   5.640   3.286  0.00  0.00    +0.233 A 
ATOM     10  N   UNL     1      -1.437   5.490   2.568  0.00  0.00    -0.132 NA
ATOM     11  N   UNL     1      -2.570   5.819   4.670  0.00  0.00    -0.326 N 
ATOM     12  N   UNL     1      -3.929   5.312   0.071  0.00  0.00    -0.287 N 
ATOM     13  C   UNL     1      -1.242   5.479  -2.422  0.00  0.00    +0.164 C 
ATOM     14  O   UNL     1      -0.028   5.427  -2.447  0.00  0.00    -0.292 OA
ATOM     15  C   UNL     1      -1.997   5.676  -3.707  0.00  0.00    +0.088 C 
ATOM     16  H   UNL     1      -3.423   5.922   5.120  0.00  0.00    +0.145 HD
ATOM     17  H   UNL     1      -1.746   5.840   5.181  0.00  0.00    +0.145 HD
ATOM     18  H   UNL     1      -4.887   5.160   0.091  0.00  0.00    +0.155 HD
ENDROOT
BRANCH   1  22
ATOM     19  C   UNL     1      -5.665   5.788  -7.109  0.00  0.00    +0.161 A 
ATOM     20  C   UNL     1      -5.177   6.845  -6.358  0.00  0.00    +0.049 A 
ATOM     21  C   UNL     1      -4.444   6.598  -5.212  0.00  0.00    +0.008 A 
ATOM     22  C   UNL     1      -4.187   5.298  -4.819  0.00  0.00    -0.040 A 
ATOM     23  C   UNL     1      -4.671   4.239  -5.564  0.00  0.00    +0.053 A 
ATOM     24  C   UNL     1      -5.411   4.479  -6.710  0.00  0.00    +0.162 A 
BRANCH  19  26
ATOM     25  C   UNL     1      -6.613   7.397  -8.582  0.00  0.00    +0.277 C 
ATOM     26  O   UNL     1      -6.391   6.029  -8.233  0.00  0.00    -0.491 OA
ENDBRANCH  19  26
BRANCH  24  27
ATOM     27  O   UNL     1      -5.889   3.438  -7.444  0.00  0.00    -0.491 OA
ATOM     28  C   UNL     1      -5.590   2.122  -6.974  0.00  0.00    +0.277 C 
ENDBRANCH  24  27
ENDBRANCH   1  22
BRANCH   5  29
ATOM     29  C   UNL     1      -0.518   3.725   0.025  0.00  0.00    +0.019 A 
ATOM     30  C   UNL     1       0.770   3.301   0.012  0.00  0.00    +0.013 A 
ATOM     31  C   UNL     1       1.029   1.944   0.003  0.00  0.00    +0.008 A 
ATOM     32  C   UNL     1      -0.013   1.076   0.008  0.00  0.00    +0.045 A 
ATOM     33  S   UNL     1      -1.415   2.181   0.019  0.00  0.00    -0.099 S 
ENDBRANCH   5  29
TORSDOF 4
