REMARK  Name = ZINC39530837
REMARK  8 active torsions:
REMARK  status: ('A' for Active; 'I' for Inactive)
REMARK    1  A    between atoms: C_1  and  C_2
REMARK    2  A    between atoms: C_2  and  C_3
REMARK    3  A    between atoms: C_2  and  S_4
REMARK    4  A    between atoms: S_4  and  C_7
REMARK    5  A    between atoms: C_12  and  N_13
REMARK    6  A    between atoms: C_17  and  S_20
REMARK    7  A    between atoms: S_20  and  O_23
REMARK    8  A    between atoms: O_23  and  C_24
REMARK                            x       y       z     vdW  Elec       q    Type
REMARK                         _______ _______ _______ _____ _____    ______ ____
ROOT
ATOM      1  N   UNL     1      -0.267  -2.228  -2.065  0.00  0.00    -0.330 N 
ATOM      2  C   UNL     1       1.121  -1.741  -2.075  0.00  0.00    +0.086 C 
ATOM      3  C   UNL     1       1.756  -2.112  -3.420  0.00  0.00    -0.061 C 
ATOM      4  N   UNL     1       0.924  -1.594  -4.513  0.00  0.00    +0.398 N 
ATOM      5  C   UNL     1      -0.388  -2.254  -4.499  0.00  0.00    +0.133 C 
ATOM      6  C   UNL     1      -1.127  -1.895  -3.211  0.00  0.00    +0.115 C 
ATOM      7  H   UNL     1       0.799  -0.599  -4.396  0.00  0.00    -0.083 HD
ATOM      8  H   UNL     1       1.380  -1.772  -5.395  0.00  0.00    -0.083 HD
ENDROOT
BRANCH   1  14
ATOM      9  C   UNL     1      -1.238  -2.362   0.141  0.00  0.00    +0.110 A 
ATOM     10  C   UNL     1      -1.724  -3.117   1.190  0.00  0.00    +0.044 A 
ATOM     11  C   UNL     1      -1.721  -4.498   1.109  0.00  0.00    +0.020 A 
ATOM     12  C   UNL     1      -1.233  -5.127  -0.023  0.00  0.00    +0.017 A 
ATOM     13  C   UNL     1      -0.746  -4.377  -1.075  0.00  0.00    +0.026 A 
ATOM     14  C   UNL     1      -0.753  -2.989  -0.999  0.00  0.00    +0.055 A 
ATOM     15 BR   UNL     1      -2.386  -5.529   2.548  0.00  0.00    -0.050 Br
BRANCH   9  16
ATOM     16  S   UNL     1      -1.241  -0.603   0.245  0.00  0.00    +0.001 S 
ATOM     17  O   UNL     1      -2.485  -0.278   0.851  0.00  0.00    -0.169 OA
ATOM     18  O   UNL     1      -0.940  -0.161  -1.071  0.00  0.00    -0.169 OA
BRANCH  16  20
ATOM     19  C   UNL     1       0.260   1.320   1.483  0.00  0.00    +0.032 C 
ATOM     20  C   UNL     1       0.125  -0.200   1.368  0.00  0.00    +0.130 C 
ATOM     21  C   UNL     1      -0.158  -0.793   2.749  0.00  0.00    +0.032 C 
ENDBRANCH  16  20
ENDBRANCH   9  16
ENDBRANCH   1  14
BRANCH   5  22
ATOM     22  S   UNL     1      -1.357  -1.702  -5.929  0.00  0.00    +0.109 S 
ATOM     23  O   UNL     1      -2.554  -2.461  -6.031  0.00  0.00    -0.138 OA
ATOM     24  O   UNL     1      -1.394  -0.283  -5.978  0.00  0.00    -0.138 OA
BRANCH  22  25
ATOM     25  O   UNL     1      -0.534  -2.112  -7.142  0.00  0.00    -0.347 OA
BRANCH  25  26
ATOM     26  C   UNL     1      -0.574  -3.443  -7.414  0.00  0.00    +0.156 A 
ATOM     27  C   UNL     1       0.356  -4.298  -6.841  0.00  0.00    +0.048 A 
ATOM     28  C   UNL     1       0.313  -5.650  -7.119  0.00  0.00    +0.004 A 
ATOM     29  C   UNL     1      -0.657  -6.152  -7.967  0.00  0.00    +0.000 A 
ATOM     30  C   UNL     1      -1.585  -5.302  -8.540  0.00  0.00    +0.004 A 
ATOM     31  C   UNL     1      -1.550  -3.949  -8.260  0.00  0.00    +0.048 A 
ENDBRANCH  25  26
ENDBRANCH  22  25
ENDBRANCH   5  22
TORSDOF 6
