REMARK  Name = ZINC23788972
REMARK  12 active torsions:
REMARK  status: ('A' for Active; 'I' for Inactive)
REMARK    1  A    between atoms: C_1  and  N_2
REMARK    2  A    between atoms: N_2  and  C_3
REMARK    3  A    between atoms: N_2  and  C_4
REMARK    4  A    between atoms: C_4  and  C_6
REMARK    5  A    between atoms: C_4  and  C_28
REMARK    6  A    between atoms: C_6  and  N_7
REMARK    7  A    between atoms: C_8  and  C_10
REMARK    8  A    between atoms: C_12  and  S_22
REMARK    9  A    between atoms: C_15  and  N_16
REMARK   10  A    between atoms: S_22  and  N_25
REMARK   11  A    between atoms: N_25  and  C_26
REMARK   12  A    between atoms: N_25  and  C_27
REMARK                            x       y       z     vdW  Elec       q    Type
REMARK                         _______ _______ _______ _____ _____    ______ ____
ROOT
ATOM      1  C   UNL     1       3.582   4.294   2.789  0.00  0.00    +0.060 A 
ATOM      2  C   UNL     1       2.637   5.313   2.642  0.00  0.00    +0.043 A 
ATOM      3  C   UNL     1       3.048   6.625   2.570  0.00  0.00    +0.106 A 
ATOM      4  C   UNL     1       4.395   6.943   2.641  0.00  0.00    +0.030 A 
ATOM      5  C   UNL     1       5.340   5.948   2.785  0.00  0.00    +0.026 A 
ATOM      6  C   UNL     1       4.945   4.619   2.867  0.00  0.00    +0.042 A 
ENDROOT
BRANCH   6   7
ATOM      7  N   UNL     1       5.894   3.616   3.018  0.00  0.00    -0.329 N 
ATOM      8  C   UNL     1       6.594   3.744   4.303  0.00  0.00    +0.105 C 
ATOM      9  C   UNL     1       7.524   2.545   4.500  0.00  0.00    +0.019 C 
ATOM     10  C   UNL     1       8.535   2.495   3.350  0.00  0.00    +0.003 C 
ATOM     11  C   UNL     1       7.779   2.411   2.021  0.00  0.00    +0.019 C 
ATOM     12  C   UNL     1       6.841   3.614   1.896  0.00  0.00    +0.105 C 
ENDBRANCH   6   7
BRANCH   1  14
ATOM     13  N   UNL     1       1.839   2.580   2.797  0.00  0.00    -0.313 N 
ATOM     14  C   UNL     1       3.149   2.886   2.867  0.00  0.00    +0.246 C 
ATOM     15  O   UNL     1       3.975   2.003   2.994  0.00  0.00    -0.270 OA
ATOM     16  H   UNL     1       1.092   3.379   2.682  0.00  0.00    +0.149 HD
BRANCH  13  17
ATOM     17  C   UNL     1       1.409   1.181   2.875  0.00  0.00    +0.094 C 
BRANCH  17  18
ATOM     18  C   UNL     1      -0.093   1.093   2.597  0.00  0.00    -0.020 C 
BRANCH  18  19
ATOM     19  C   UNL     1      -0.557  -0.327   2.791  0.00  0.00    -0.041 A 
ATOM     20  C   UNL     1      -0.806  -1.129   1.692  0.00  0.00    +0.003 A 
ATOM     21  C   UNL     1      -1.232  -2.432   1.870  0.00  0.00    +0.000 A 
ATOM     22  C   UNL     1      -1.410  -2.934   3.146  0.00  0.00    +0.001 A 
ATOM     23  C   UNL     1      -1.162  -2.133   4.245  0.00  0.00    +0.020 A 
ATOM     24  C   UNL     1      -0.730  -0.831   4.067  0.00  0.00    +0.043 A 
ATOM     25 CL   UNL     1      -0.411   0.174   5.447  0.00  0.00    -0.083 Cl
ENDBRANCH  18  19
BRANCH  18  27
ATOM     26  C   UNL     1       0.682   1.018   0.304  0.00  0.00    -0.096 C 
ATOM     27  N   UNL     1      -0.360   1.512   1.214  0.00  0.00    +0.382 N 
ATOM     28  C   UNL     1      -0.491   2.972   1.122  0.00  0.00    -0.096 C 
ATOM     29  H   UNL     1      -1.318   1.066   0.905  0.00  0.00    -0.082 HD
ENDBRANCH  18  27
ENDBRANCH  17  18
ENDBRANCH  13  17
ENDBRANCH   1  14
BRANCH   3  30
ATOM     30  S   UNL     1       1.854   7.908   2.385  0.00  0.00    +0.060 S 
ATOM     31  O   UNL     1       2.530   9.010   1.794  0.00  0.00    -0.153 OA
ATOM     32  O   UNL     1       0.706   7.313   1.796  0.00  0.00    -0.153 OA
BRANCH  30  33
ATOM     33  N   UNL     1       1.410   8.387   3.907  0.00  0.00    -0.183 NA
ATOM     34  C   UNL     1       2.143   9.463   4.580  0.00  0.00    +0.131 C 
ATOM     35  C   UNL     1       0.285   7.734   4.581  0.00  0.00    +0.131 C 
ENDBRANCH  30  33
ENDBRANCH   3  30
TORSDOF 8
