REMARK  Name = ZINC48797055
REMARK  6 active torsions:
REMARK  status: ('A' for Active; 'I' for Inactive)
REMARK    1  A    between atoms: C_3  and  C_9
REMARK    2  A    between atoms: C_4  and  O_8
REMARK    3  A    between atoms: C_9  and  N_10
REMARK    4  A    between atoms: N_10  and  C_11
REMARK    5  A    between atoms: C_13  and  S_18
REMARK    6  A    between atoms: S_18  and  N_21
REMARK                            x       y       z     vdW  Elec       q    Type
REMARK                         _______ _______ _______ _____ _____    ______ ____
ROOT
ATOM      1  C   UNL     1       5.397   2.915  -1.648  0.00  0.00    +0.048 A 
ATOM      2  C   UNL     1       6.092   3.527  -0.613  0.00  0.00    +0.053 A 
ATOM      3  C   UNL     1       7.276   4.187  -0.873  0.00  0.00    +0.107 A 
ATOM      4  C   UNL     1       7.771   4.241  -2.163  0.00  0.00    +0.030 A 
ATOM      5  C   UNL     1       7.083   3.633  -3.197  0.00  0.00    +0.024 A 
ATOM      6  C   UNL     1       5.900   2.966  -2.943  0.00  0.00    +0.062 A 
ATOM      7 CL   UNL     1       5.040   2.197  -4.240  0.00  0.00    -0.082 Cl
ENDROOT
BRANCH   3   8
ATOM      8  S   UNL     1       8.158   4.964   0.440  0.00  0.00    +0.056 S 
ATOM      9  O   UNL     1       8.955   5.981  -0.151  0.00  0.00    -0.153 OA
ATOM     10  O   UNL     1       7.208   5.238   1.461  0.00  0.00    -0.153 OA
BRANCH   8  11
ATOM     11  N   UNL     1       9.205   3.840   1.058  0.00  0.00    -0.204 NA
ATOM     12  H   UNL     1       9.237   2.947   0.681  0.00  0.00    +0.144 HD
ATOM     13  H   UNL     1       9.788   4.075   1.798  0.00  0.00    +0.144 HD
ENDBRANCH   8  11
ENDBRANCH   3   8
BRANCH   1  14
ATOM     14  N   UNL     1       4.199   2.245  -1.388  0.00  0.00    -0.338 N 
ATOM     15  H   UNL     1       3.716   1.815  -2.111  0.00  0.00    +0.146 HD
BRANCH  14  16
ATOM     16  C   UNL     1       3.670   2.193  -0.023  0.00  0.00    +0.140 C 
BRANCH  16  19
ATOM     17  C   UNL     1      -0.017   1.378   0.010  0.00  0.00    +0.002 A 
ATOM     18  C   UNL     1       1.170   2.088   0.002  0.00  0.00    +0.009 A 
ATOM     19  C   UNL     1       2.378   1.418  -0.013  0.00  0.00    +0.012 A 
ATOM     20  C   UNL     1       2.400   0.031  -0.021  0.00  0.00    +0.135 A 
ATOM     21  C   UNL     1       1.208  -0.680  -0.013  0.00  0.00    +0.060 A 
ATOM     22  C   UNL     1       0.002  -0.004   0.002  0.00  0.00    +0.019 A 
ATOM     23 BR   UNL     1       1.233  -2.571  -0.024  0.00  0.00    -0.047 Br
BRANCH  20  24
ATOM     24  O   UNL     1       3.587  -0.631  -0.037  0.00  0.00    -0.505 OA
ATOM     25  H   UNL     1       3.940  -0.827   0.842  0.00  0.00    +0.292 HD
ENDBRANCH  20  24
ENDBRANCH  16  19
ENDBRANCH  14  16
ENDBRANCH   1  14
TORSDOF 6
