REMARK  Name = ZINC43289266
REMARK  7 active torsions:
REMARK  status: ('A' for Active; 'I' for Inactive)
REMARK    1  A    between atoms: C_1  and  C_2
REMARK    2  A    between atoms: C_2  and  C_4
REMARK    3  A    between atoms: C_2  and  N_22
REMARK    4  A    between atoms: C_4  and  C_6
REMARK    5  A    between atoms: C_4  and  O_12
REMARK    6  A    between atoms: O_12  and  C_13
REMARK    7  A    between atoms: C_18  and  C_19
REMARK                            x       y       z     vdW  Elec       q    Type
REMARK                         _______ _______ _______ _____ _____    ______ ____
ROOT
ATOM      1  C   UNL     1       0.751  -0.519   1.250  0.00  0.00    +0.196 C 
ENDROOT
BRANCH   1   2
ATOM      2  C   UNL     1       0.860  -2.021   1.302  0.00  0.00    +0.029 A 
ATOM      3  C   UNL     1       1.902  -2.814   0.951  0.00  0.00    +0.030 A 
ATOM      4  C   UNL     1       1.777  -4.184   1.085  0.00  0.00    +0.025 A 
ATOM      5  C   UNL     1       0.615  -4.694   1.563  0.00  0.00    +0.060 A 
ATOM      6  S   UNL     1      -0.346  -3.217   1.849  0.00  0.00    -0.097 S 
ATOM      7 BR   UNL     1       3.203  -5.330   0.607  0.00  0.00    -0.050 Br
ENDBRANCH   1   2
BRANCH   1   9
ATOM      8  C   UNL     1      -0.145   1.418  -0.049  0.00  0.00    -0.010 C 
ATOM      9  C   UNL     1      -0.034  -0.107   0.004  0.00  0.00    -0.032 C 
BRANCH   9  10
ATOM     10  N   UNL     1       0.663  -0.590  -1.196  0.00  0.00    +0.382 N 
ATOM     11  H   UNL     1       1.587  -0.186  -1.233  0.00  0.00    -0.089 HD
ATOM     12  H   UNL     1       0.736  -1.595  -1.161  0.00  0.00    -0.089 HD
ATOM     13  H   UNL     1       0.145  -0.318  -2.018  0.00  0.00    -0.089 HD
ENDBRANCH   9  10
ENDBRANCH   1   9
BRANCH   1  14
ATOM     14  O   UNL     1       0.073  -0.050   2.417  0.00  0.00    -0.485 OA
BRANCH  14  15
ATOM     15  C   UNL     1       0.538   1.092   2.983  0.00  0.00    +0.133 A 
ATOM     16  C   UNL     1       1.548   1.815   2.364  0.00  0.00    +0.046 A 
ATOM     17  C   UNL     1       2.020   2.977   2.941  0.00  0.00    +0.004 A 
ATOM     18  C   UNL     1       1.492   3.429   4.139  0.00  0.00    +0.001 A 
ATOM     19  C   UNL     1       0.488   2.724   4.767  0.00  0.00    +0.017 A 
ATOM     20  C   UNL     1      -0.003   1.550   4.191  0.00  0.00    +0.078 A 
BRANCH  20  21
ATOM     21  C   UNL     1      -1.082   0.793   4.855  0.00  0.00    +0.245 C 
ATOM     22  O   UNL     1      -1.503  -0.231   4.354  0.00  0.00    -0.270 OA
ATOM     23  N   UNL     1      -1.600   1.238   6.018  0.00  0.00    -0.325 N 
ATOM     24  H   UNL     1      -1.264   2.055   6.417  0.00  0.00    +0.145 HD
ATOM     25  H   UNL     1      -2.309   0.740   6.454  0.00  0.00    +0.145 HD
ENDBRANCH  20  21
ENDBRANCH  14  15
ENDBRANCH   1  14
TORSDOF 6
