REMARK  Name = ZINC37055763
REMARK  6 active torsions:
REMARK  status: ('A' for Active; 'I' for Inactive)
REMARK    1  A    between atoms: C_1  and  C_2
REMARK    2  A    between atoms: C_2  and  N_3
REMARK    3  A    between atoms: N_3  and  C_4
REMARK    4  A    between atoms: N_3  and  S_10
REMARK    5  A    between atoms: S_10  and  C_13
REMARK    6  A    between atoms: C_16  and  N_20
REMARK                            x       y       z     vdW  Elec       q    Type
REMARK                         _______ _______ _______ _____ _____    ______ ____
ROOT
ATOM      1  S   UNL     1       0.075  -0.519  -2.639  0.00  0.00    +0.064 S 
ATOM      2  O   UNL     1       0.954  -1.252  -3.480  0.00  0.00    -0.153 OA
ATOM      3  O   UNL     1      -1.275  -0.909  -2.423  0.00  0.00    -0.153 OA
ENDROOT
BRANCH   1   4
ATOM      4  C   UNL     1       0.029   1.126  -3.269  0.00  0.00    +0.142 A 
ATOM      5  C   UNL     1      -1.060   1.938  -3.002  0.00  0.00    +0.070 A 
ATOM      6  C   UNL     1      -1.098   3.228  -3.495  0.00  0.00    +0.044 A 
ATOM      7  C   UNL     1      -0.043   3.711  -4.258  0.00  0.00    +0.027 A 
ATOM      8  C   UNL     1       1.049   2.894  -4.524  0.00  0.00    +0.044 A 
ATOM      9  C   UNL     1       1.084   1.605  -4.024  0.00  0.00    +0.070 A 
ATOM     10 CL   UNL     1       2.451   0.586  -4.351  0.00  0.00    -0.081 Cl
ATOM     11 CL   UNL     1      -2.378   1.334  -2.048  0.00  0.00    -0.081 Cl
BRANCH   7  12
ATOM     12  N   UNL     1      -0.079   5.014  -4.758  0.00  0.00    -0.358 N 
ATOM     13  H   UNL     1      -0.842   5.584  -4.572  0.00  0.00    +0.142 HD
ATOM     14  H   UNL     1       0.659   5.350  -5.291  0.00  0.00    +0.142 HD
ENDBRANCH   7  12
ENDBRANCH   1   4
BRANCH   1  15
ATOM     15  N   UNL     1       0.792  -0.452  -1.147  0.00  0.00    -0.174 NA
BRANCH  15  16
ATOM     16  C   UNL     1       2.245  -0.598  -1.026  0.00  0.00    +0.080 C 
ATOM     17  C   UNL     1       2.564  -1.710  -0.025  0.00  0.00    +0.020 C 
ATOM     18  C   UNL     1       4.081  -1.861   0.101  0.00  0.00    +0.002 C 
ATOM     19  C   UNL     1       4.686  -0.544   0.592  0.00  0.00    +0.000 C 
ATOM     20  C   UNL     1       4.367   0.568  -0.409  0.00  0.00    +0.002 C 
ATOM     21  C   UNL     1       2.850   0.719  -0.536  0.00  0.00    +0.020 C 
ENDBRANCH  15  16
BRANCH  15  23
ATOM     22  C   UNL     1      -0.397  -1.605   0.652  0.00  0.00    +0.022 C 
ATOM     23  C   UNL     1      -0.026  -0.248   0.050  0.00  0.00    +0.106 C 
ENDBRANCH  15  23
ENDBRANCH   1  15
TORSDOF 5
