REMARK  Name = ZINC39685805
REMARK  12 active torsions:
REMARK  status: ('A' for Active; 'I' for Inactive)
REMARK    1  A    between atoms: C_1  and  C_2
REMARK    2  A    between atoms: C_4  and  C_9
REMARK    3  A    between atoms: C_13  and  C_22
REMARK    4  A    between atoms: N_24  and  C_25
REMARK    5  A    between atoms: C_25  and  C_27
REMARK    6  A    between atoms: C_25  and  C_30
REMARK    7  A    between atoms: C_27  and  C_28
REMARK    8  A    between atoms: C_27  and  C_29
REMARK    9  A    between atoms: N_32  and  C_33
REMARK   10  A    between atoms: C_33  and  C_34
REMARK   11  A    between atoms: C_33  and  C_35
REMARK   12  A    between atoms: C_33  and  C_36
REMARK                            x       y       z     vdW  Elec       q    Type
REMARK                         _______ _______ _______ _____ _____    ______ ____
ROOT
ATOM      1  C   UNL     1      -0.200  -2.579  -2.273  0.00  0.00    +0.247 C 
ATOM      2  O   UNL     1      -0.204  -2.110  -3.394  0.00  0.00    -0.270 OA
ATOM      3  N   UNL     1       0.063  -3.888  -2.091  0.00  0.00    -0.296 N 
ATOM      4  C   UNL     1      -0.019  -4.665  -0.831  0.00  0.00    +0.121 C 
ATOM      5  C   UNL     1      -0.610  -6.029  -1.252  0.00  0.00    +0.100 C 
ATOM      6  C   UNL     1      -0.265  -6.163  -2.744  0.00  0.00    -0.004 C 
ATOM      7  C   UNL     1       0.494  -4.878  -3.107  0.00  0.00    +0.115 C 
ATOM      8  C   UNL     1       0.621  -7.384  -2.974  0.00  0.00    -0.010 C 
ATOM      9  C   UNL     1       0.904  -7.529  -4.472  0.00  0.00    -0.082 C 
ATOM     10  N   UNL     1      -0.363  -7.676  -5.199  0.00  0.00    +0.379 N 
ATOM     11  C   UNL     1      -1.170  -6.459  -5.048  0.00  0.00    -0.082 C 
ATOM     12  C   UNL     1      -1.540  -6.268  -3.575  0.00  0.00    -0.010 C 
ATOM     13  H   UNL     1      -0.172  -7.832  -6.177  0.00  0.00    -0.086 HD
ATOM     14  H   UNL     1      -0.873  -8.464  -4.828  0.00  0.00    -0.086 HD
ENDROOT
BRANCH   1  18
ATOM     15  C   UNL     1      -2.085   1.638  -0.390  0.00  0.00    +0.047 C 
ATOM     16  C   UNL     1      -1.390   0.315  -0.198  0.00  0.00    -0.015 A 
ATOM     17  C   UNL     1      -1.128  -0.488  -1.288  0.00  0.00    +0.019 A 
ATOM     18  C   UNL     1      -0.483  -1.714  -1.109  0.00  0.00    +0.037 A 
ATOM     19  C   UNL     1      -0.108  -2.119   0.174  0.00  0.00    +0.016 A 
ATOM     20  C   UNL     1      -0.375  -1.309   1.256  0.00  0.00    +0.039 A 
ATOM     21  C   UNL     1      -1.011  -0.090   1.072  0.00  0.00    +0.126 A 
ATOM     22  F   UNL     1      -1.265   0.703   2.135  0.00  0.00    -0.205 F 
ENDBRANCH   1  18
BRANCH   5  23
ATOM     23  C   UNL     1      -2.104  -6.037  -1.054  0.00  0.00    +0.219 C 
ATOM     24  O   UNL     1      -2.743  -5.019  -1.216  0.00  0.00    -0.275 OA
ATOM     25  N   UNL     1      -2.731  -7.176  -0.698  0.00  0.00    -0.303 N 
ATOM     26  H   UNL     1      -2.232  -8.005  -0.638  0.00  0.00    +0.149 HD
BRANCH  25  27
ATOM     27  C   UNL     1      -4.165  -7.160  -0.401  0.00  0.00    +0.161 C 
BRANCH  27  28
ATOM     28  C   UNL     1      -4.437  -8.015   0.810  0.00  0.00    +0.234 C 
ATOM     29  O   UNL     1      -3.582  -8.770   1.224  0.00  0.00    -0.274 OA
ATOM     30  N   UNL     1      -5.629  -7.941   1.434  0.00  0.00    -0.309 N 
ATOM     31  H   UNL     1      -6.332  -7.378   1.073  0.00  0.00    +0.149 HD
BRANCH  30  32
ATOM     32  C   UNL     1      -5.864  -8.709   2.659  0.00  0.00    +0.026 C 
ATOM     33  C   UNL     1      -4.859  -8.282   3.731  0.00  0.00    +0.031 C 
ATOM     34  C   UNL     1      -7.286  -8.448   3.160  0.00  0.00    +0.031 C 
ATOM     35  C   UNL     1      -5.693 -10.201   2.366  0.00  0.00    +0.031 C 
ENDBRANCH  30  32
ENDBRANCH  27  28
BRANCH  27  36
ATOM     36  C   UNL     1      -4.940  -7.713  -1.599  0.00  0.00    +0.012 C 
ATOM     37  C   UNL     1      -4.792  -6.759  -2.786  0.00  0.00    +0.009 C 
ATOM     38  C   UNL     1      -4.384  -9.087  -1.976  0.00  0.00    +0.009 C 
ENDBRANCH  27  36
ENDBRANCH  25  27
ENDBRANCH   5  23
TORSDOF 6
