REMARK  Name = ZINC39266183
REMARK  14 active torsions:
REMARK  status: ('A' for Active; 'I' for Inactive)
REMARK    1  A    between atoms: C_1  and  C_2
REMARK    2  A    between atoms: C_2  and  C_3
REMARK    3  A    between atoms: C_2  and  C_4
REMARK    4  A    between atoms: C_2  and  C_35
REMARK    5  A    between atoms: C_4  and  N_5
REMARK    6  A    between atoms: C_6  and  C_8
REMARK    7  A    between atoms: C_8  and  N_9
REMARK    8  A    between atoms: C_10  and  C_29
REMARK    9  A    between atoms: C_19  and  O_21
REMARK   10  A    between atoms: O_21  and  C_22
REMARK   11  A    between atoms: C_22  and  C_23
REMARK   12  A    between atoms: C_35  and  N_36
REMARK   13  A    between atoms: N_36  and  C_37
REMARK   14  A    between atoms: N_36  and  C_38
REMARK                            x       y       z     vdW  Elec       q    Type
REMARK                         _______ _______ _______ _____ _____    ______ ____
ROOT
ATOM      1  N   UNL     1      -4.659   2.481   3.140  0.00  0.00    -0.281 N 
ATOM      2  C   UNL     1      -6.031   2.885   2.856  0.00  0.00    +0.139 C 
ATOM      3  C   UNL     1      -6.439   2.184   4.140  0.00  0.00    +0.139 C 
ATOM      4  C   UNL     1      -4.988   1.850   4.275  0.00  0.00    +0.243 C 
ATOM      5  O   UNL     1      -4.348   1.236   5.102  0.00  0.00    -0.273 OA
ATOM      6  C   UNL     1      -7.375   0.977   3.962  0.00  0.00    +0.039 C 
ATOM      7  C   UNL     1      -8.137   0.931   5.314  0.00  0.00    +0.022 C 
ATOM      8  C   UNL     1      -8.268   2.438   5.651  0.00  0.00    +0.112 C 
ATOM      9  N   UNL     1      -7.004   3.041   5.186  0.00  0.00    -0.251 N 
ATOM     10  C   UNL     1      -6.461   4.186   5.646  0.00  0.00    +0.404 C 
ATOM     11  O   UNL     1      -5.438   4.615   5.149  0.00  0.00    -0.226 OA
ENDROOT
BRANCH   2  12
ATOM     12  C   UNL     1      -6.238   4.377   2.892  0.00  0.00    -0.024 A 
ATOM     13  C   UNL     1      -5.152   5.228   2.802  0.00  0.00    +0.005 A 
ATOM     14  C   UNL     1      -5.341   6.597   2.835  0.00  0.00    +0.000 A 
ATOM     15  C   UNL     1      -6.617   7.115   2.958  0.00  0.00    +0.000 A 
ATOM     16  C   UNL     1      -7.703   6.265   3.048  0.00  0.00    +0.000 A 
ATOM     17  C   UNL     1      -7.514   4.896   3.010  0.00  0.00    +0.005 A 
ENDBRANCH   2  12
BRANCH   1  18
ATOM     18  C   UNL     1      -3.389   2.684   2.438  0.00  0.00    +0.204 C 
BRANCH  18  20
ATOM     19  N   UNL     1      -1.999   1.477   0.786  0.00  0.00    -0.314 N 
ATOM     20  C   UNL     1      -3.119   1.508   1.535  0.00  0.00    +0.230 C 
ATOM     21  O   UNL     1      -3.910   0.591   1.483  0.00  0.00    -0.274 OA
ATOM     22  H   UNL     1      -1.367   2.211   0.828  0.00  0.00    +0.149 HD
BRANCH  19  23
ATOM     23  C   UNL     1      -1.738   0.333  -0.092  0.00  0.00    +0.108 C 
BRANCH  23  25
ATOM     24  C   UNL     1      -0.490   1.824  -1.661  0.00  0.00    +0.010 C 
ATOM     25  C   UNL     1      -0.411   0.546  -0.824  0.00  0.00    -0.034 C 
ATOM     26  C   UNL     1       0.721   0.674   0.197  0.00  0.00    +0.010 C 
BRANCH  25  27
ATOM     27  C   UNL     1      -0.138  -0.648  -1.741  0.00  0.00    -0.072 C 
BRANCH  27  28
ATOM     28  N   UNL     1       1.177  -0.486  -2.377  0.00  0.00    +0.376 N 
ATOM     29  C   UNL     1       2.221  -0.995  -1.478  0.00  0.00    -0.097 C 
ATOM     30  C   UNL     1       1.207  -1.239  -3.638  0.00  0.00    -0.097 C 
ATOM     31  H   UNL     1       1.341   0.491  -2.564  0.00  0.00    -0.083 HD
ENDBRANCH  27  28
ENDBRANCH  25  27
ENDBRANCH  23  25
ENDBRANCH  19  23
ENDBRANCH  18  20
ENDBRANCH   1  18
BRANCH  10  32
ATOM     32  O   UNL     1      -7.051   4.853   6.655  0.00  0.00    -0.445 OA
BRANCH  32  33
ATOM     33  C   UNL     1      -6.421   6.059   7.092  0.00  0.00    +0.269 C 
BRANCH  33  34
ATOM     34  C   UNL     1      -7.218   6.662   8.219  0.00  0.00    -0.010 A 
ATOM     35  C   UNL     1      -8.234   7.559   7.945  0.00  0.00    +0.007 A 
ATOM     36  C   UNL     1      -8.965   8.113   8.980  0.00  0.00    +0.000 A 
ATOM     37  C   UNL     1      -8.681   7.769  10.288  0.00  0.00    +0.000 A 
ATOM     38  C   UNL     1      -7.665   6.872  10.562  0.00  0.00    +0.000 A 
ATOM     39  C   UNL     1      -6.937   6.315   9.527  0.00  0.00    +0.007 A 
ENDBRANCH  33  34
ENDBRANCH  32  33
ENDBRANCH  10  32
TORSDOF 10
