REMARK  Name = ZINC05197606
REMARK  7 active torsions:
REMARK  status: ('A' for Active; 'I' for Inactive)
REMARK    1  A    between atoms: C_1  and  O_2
REMARK    2  A    between atoms: O_2  and  C_3
REMARK    3  A    between atoms: C_7  and  C_9
REMARK    4  A    between atoms: C_16  and  N_30
REMARK    5  A    between atoms: C_17  and  C_28
REMARK    6  A    between atoms: C_18  and  C_20
REMARK    7  A    between atoms: C_25  and  O_26
REMARK                            x       y       z     vdW  Elec       q    Type
REMARK                         _______ _______ _______ _____ _____    ______ ____
ROOT
ATOM      1  C   UNL     1       1.332  -4.080  -2.301  0.00  0.00    +0.074 A 
ATOM      2  C   UNL     1       1.077  -4.832  -3.398  0.00  0.00    +0.054 A 
ATOM      3  C   UNL     1       1.246  -6.186  -3.049  0.00  0.00    +0.245 A 
ATOM      4  N   UNL     1       1.587  -6.246  -1.794  0.00  0.00    -0.135 NA
ATOM      5  N   UNL     1       1.657  -4.939  -1.289  0.00  0.00    -0.273 N 
ATOM      6  H   UNL     1       1.893  -4.689  -0.382  0.00  0.00    +0.189 HD
ATOM      7  O   UNL     1       1.061  -7.191  -3.949  0.00  0.00    -0.421 OA
ATOM      8  C   UNL     1       0.977  -6.851  -5.250  0.00  0.00    +0.201 C 
ATOM      9  C   UNL     1       0.805  -5.592  -5.703  0.00  0.00    +0.098 C 
ATOM     10  C   UNL     1       0.678  -4.401  -4.787  0.00  0.00    +0.105 C 
ENDROOT
BRANCH  10  11
ATOM     11  C   UNL     1      -0.748  -3.914  -4.778  0.00  0.00    +0.008 A 
ATOM     12  C   UNL     1      -1.765  -4.763  -4.386  0.00  0.00    +0.028 A 
ATOM     13  C   UNL     1      -3.075  -4.317  -4.378  0.00  0.00    +0.041 A 
ATOM     14  C   UNL     1      -3.369  -3.021  -4.762  0.00  0.00    +0.023 A 
ATOM     15  C   UNL     1      -2.354  -2.169  -5.154  0.00  0.00    +0.047 A 
ATOM     16  C   UNL     1      -1.040  -2.613  -5.158  0.00  0.00    +0.121 A 
ATOM     17 CL   UNL     1      -4.352  -5.386  -3.886  0.00  0.00    -0.084 Cl
BRANCH  16  18
ATOM     18  O   UNL     1      -0.040  -1.774  -5.537  0.00  0.00    -0.506 OA
ATOM     19  H   UNL     1       0.155  -1.797  -6.484  0.00  0.00    +0.292 HD
ENDBRANCH  16  18
ENDBRANCH  10  11
BRANCH   1  24
ATOM     20  C   UNL     1       0.606  -0.607  -1.056  0.00  0.00    +0.121 A 
ATOM     21  C   UNL     1       1.173   0.163  -2.062  0.00  0.00    +0.045 A 
ATOM     22  C   UNL     1       1.789  -0.446  -3.140  0.00  0.00    +0.004 A 
ATOM     23  C   UNL     1       1.843  -1.822  -3.223  0.00  0.00    +0.010 A 
ATOM     24  C   UNL     1       1.276  -2.604  -2.216  0.00  0.00    +0.004 A 
ATOM     25  C   UNL     1       0.660  -1.989  -1.126  0.00  0.00    +0.055 A 
BRANCH  20  27
ATOM     26  C   UNL     1      -0.017   1.425   0.010  0.00  0.00    +0.277 C 
ATOM     27  O   UNL     1       0.002  -0.004   0.002  0.00  0.00    -0.495 OA
ENDBRANCH  20  27
ENDBRANCH   1  24
BRANCH   8  28
ATOM     28  N   UNL     1       1.075  -7.856  -6.180  0.00  0.00    -0.328 N 
ATOM     29  H   UNL     1       1.199  -8.774  -5.891  0.00  0.00    +0.145 HD
ATOM     30  H   UNL     1       1.019  -7.649  -7.126  0.00  0.00    +0.145 HD
ENDBRANCH   8  28
BRANCH   9  31
ATOM     31  C   UNL     1       0.739  -5.376  -7.117  0.00  0.00    +0.101 C 
ATOM     32  N   UNL     1       0.686  -5.205  -8.239  0.00  0.00    -0.191 NA
ENDBRANCH   9  31
TORSDOF 6
