REMARK  Name = ZINC13117439
REMARK  9 active torsions:
REMARK  status: ('A' for Active; 'I' for Inactive)
REMARK    1  A    between atoms: C_1  and  C_2
REMARK    2  A    between atoms: C_2  and  C_4
REMARK    3  A    between atoms: C_2  and  N_14
REMARK    4  A    between atoms: C_15  and  C_17
REMARK    5  A    between atoms: C_17  and  S_18
REMARK    6  A    between atoms: S_18  and  C_19
REMARK    7  A    between atoms: C_22  and  C_25
REMARK    8  A    between atoms: N_23  and  N_24
REMARK    9  A    between atoms: C_25  and  C_26
REMARK                            x       y       z     vdW  Elec       q    Type
REMARK                         _______ _______ _______ _____ _____    ______ ____
ROOT
ATOM      1  C   UNL     1      -7.133   1.682  -4.999  0.00  0.00    +0.209 A 
ATOM      2  N   UNL     1      -7.473   0.597  -4.342  0.00  0.00    -0.121 NA
ATOM      3  N   UNL     1      -8.732   0.380  -4.481  0.00  0.00    -0.132 NA
ATOM      4  C   UNL     1      -9.266   1.304  -5.229  0.00  0.00    +0.155 A 
ATOM      5  N   UNL     1      -8.268   2.170  -5.581  0.00  0.00    -0.228 N 
ENDROOT
BRANCH   5   6
ATOM      6  N   UNL     1      -8.382   3.288  -6.356  0.00  0.00    -0.295 N 
ATOM      7  H   UNL     1      -8.325   3.056  -7.336  0.00  0.00    +0.163 HD
ATOM      8  H   UNL     1      -9.235   3.785  -6.151  0.00  0.00    +0.163 HD
ENDBRANCH   5   6
BRANCH   1   9
ATOM      9  S   UNL     1      -5.518   2.379  -5.104  0.00  0.00    -0.075 S 
BRANCH   9  10
ATOM     10  C   UNL     1      -4.597   1.194  -4.092  0.00  0.00    +0.173 C 
BRANCH  10  12
ATOM     11  N   UNL     1      -2.266   0.861  -3.336  0.00  0.00    -0.312 N 
ATOM     12  C   UNL     1      -3.147   1.601  -4.038  0.00  0.00    +0.224 C 
ATOM     13  O   UNL     1      -2.773   2.594  -4.625  0.00  0.00    -0.275 OA
ATOM     14  H   UNL     1      -2.565   0.066  -2.867  0.00  0.00    +0.149 HD
BRANCH  11  16
ATOM     15  C   UNL     1      -0.125   0.701  -4.507  0.00  0.00    +0.028 C 
ATOM     16  C   UNL     1      -0.856   1.256  -3.283  0.00  0.00    +0.076 C 
BRANCH  16  17
ATOM     17  C   UNL     1      -0.217   0.697  -2.010  0.00  0.00    -0.010 C 
ATOM     18  C   UNL     1      -0.949   1.251  -0.786  0.00  0.00    +0.012 C 
ATOM     19  C   UNL     1      -0.310   0.692   0.486  0.00  0.00    -0.010 C 
ATOM     20  C   UNL     1       1.162   1.105   0.542  0.00  0.00    +0.007 C 
ATOM     21  C   UNL     1       1.894   0.550  -0.682  0.00  0.00    -0.010 C 
ATOM     22  C   UNL     1       1.255   1.109  -1.955  0.00  0.00    +0.012 C 
ATOM     23  C   UNL     1       1.792  -0.976  -0.689  0.00  0.00    +0.007 C 
ATOM     24  C   UNL     1       0.320  -1.389  -0.744  0.00  0.00    -0.010 C 
ATOM     25  C   UNL     1      -0.412  -0.834   0.480  0.00  0.00    +0.007 C 
ATOM     26  C   UNL     1      -0.319  -0.830  -2.017  0.00  0.00    +0.012 C 
ENDBRANCH  16  17
ENDBRANCH  11  16
ENDBRANCH  10  12
ENDBRANCH   9  10
ENDBRANCH   1   9
BRANCH   4  27
ATOM     27  C   UNL     1     -10.716   1.404  -5.627  0.00  0.00    +0.113 C 
BRANCH  27  28
ATOM     28  C   UNL     1     -10.915   0.750  -6.970  0.00  0.00    -0.032 A 
ATOM     29  C   UNL     1     -10.901   1.501  -8.105  0.00  0.00    +0.004 A 
ATOM     30  C   UNL     1     -11.076   0.913  -9.356  0.00  0.00    +0.001 A 
ATOM     31  C   UNL     1     -11.279  -0.427  -9.479  0.00  0.00    +0.008 A 
ATOM     32  C   UNL     1     -11.306  -1.234  -8.329  0.00  0.00    -0.018 A 
ATOM     33  C   UNL     1     -11.121  -0.637  -7.056  0.00  0.00    -0.014 A 
ATOM     34  C   UNL     1     -11.149  -1.444  -5.906  0.00  0.00    +0.009 A 
ATOM     35  C   UNL     1     -11.352  -2.784  -6.029  0.00  0.00    +0.001 A 
ATOM     36  C   UNL     1     -11.534  -3.371  -7.280  0.00  0.00    +0.001 A 
ATOM     37  C   UNL     1     -11.514  -2.621  -8.415  0.00  0.00    +0.008 A 
ENDBRANCH  27  28
ENDBRANCH   4  27
TORSDOF 8
