REMARK  Name = ZINC05053815
REMARK  6 active torsions:
REMARK  status: ('A' for Active; 'I' for Inactive)
REMARK    1  A    between atoms: C_1  and  C_2
REMARK    2  A    between atoms: C_5  and  N_8
REMARK    3  A    between atoms: C_10  and  N_24
REMARK    4  A    between atoms: C_11  and  N_23
REMARK    5  A    between atoms: N_15  and  C_16
REMARK    6  A    between atoms: C_16  and  C_17
REMARK                            x       y       z     vdW  Elec       q    Type
REMARK                         _______ _______ _______ _____ _____    ______ ____
ROOT
ATOM      1  N   UNL     1       7.162  -2.641  -4.572  0.00  0.00    -0.297 N 
ATOM      2  C   UNL     1       6.873  -2.288  -3.262  0.00  0.00    +0.160 A 
ATOM      3  C   UNL     1       7.670  -2.745  -2.216  0.00  0.00    +0.205 A 
ATOM      4  C   UNL     1       7.341  -2.366  -0.918  0.00  0.00    +0.154 A 
ATOM      5  N   UNL     1       6.282  -1.585  -0.720  0.00  0.00    -0.197 NA
ATOM      6  C   UNL     1       5.545  -1.169  -1.739  0.00  0.00    +0.219 A 
ATOM      7  N   UNL     1       5.826  -1.514  -2.987  0.00  0.00    -0.197 NA
ATOM      8  N   UNL     1       4.451  -0.359  -1.494  0.00  0.00    -0.309 N 
ATOM      9  H   UNL     1       7.969  -3.141  -4.773  0.00  0.00    +0.154 HD
ATOM     10  H   UNL     1       3.903  -0.047  -2.231  0.00  0.00    +0.149 HD
ENDROOT
BRANCH   1  15
ATOM     11  C   UNL     1       3.630  -1.157  -8.754  0.00  0.00    +0.044 C 
ATOM     12  C   UNL     1       4.569  -1.551  -7.643  0.00  0.00    -0.050 A 
ATOM     13  C   UNL     1       5.929  -1.620  -7.881  0.00  0.00    +0.005 A 
ATOM     14  C   UNL     1       6.792  -1.982  -6.865  0.00  0.00    +0.023 A 
ATOM     15  C   UNL     1       6.292  -2.275  -5.603  0.00  0.00    +0.032 A 
ATOM     16  C   UNL     1       4.924  -2.209  -5.368  0.00  0.00    +0.023 A 
ATOM     17  C   UNL     1       4.067  -1.842  -6.387  0.00  0.00    +0.005 A 
ENDBRANCH   1  15
BRANCH   4  18
ATOM     18  N   UNL     1       8.107  -2.796   0.154  0.00  0.00    -0.341 N 
ATOM     19  H   UNL     1       7.872  -2.528   1.056  0.00  0.00    +0.144 HD
ATOM     20  H   UNL     1       8.878  -3.365   0.003  0.00  0.00    +0.144 HD
ENDBRANCH   4  18
BRANCH   3  21
ATOM     21  N   UNL     1       8.840  -3.613  -2.479  0.00  0.00    +0.063 N 
ATOM     22  O   UNL     1       8.709  -4.824  -2.493  0.00  0.00    -0.126 OA
ATOM     23  O   UNL     1       9.934  -3.116  -2.681  0.00  0.00    -0.126 OA
ENDBRANCH   3  21
BRANCH   8  24
ATOM     24  C   UNL     1       4.120   0.029  -0.120  0.00  0.00    +0.139 C 
BRANCH  24  25
ATOM     25  C   UNL     1       2.894   0.906  -0.127  0.00  0.00    -0.030 A 
ATOM     26  C   UNL     1       1.638   0.339  -0.024  0.00  0.00    +0.005 A 
ATOM     27  C   UNL     1       0.514   1.143  -0.031  0.00  0.00    +0.000 A 
ATOM     28  C   UNL     1       0.646   2.515  -0.140  0.00  0.00    +0.000 A 
ATOM     29  C   UNL     1       1.903   3.082  -0.243  0.00  0.00    +0.000 A 
ATOM     30  C   UNL     1       3.027   2.278  -0.236  0.00  0.00    +0.005 A 
ENDBRANCH  24  25
ENDBRANCH   8  24
TORSDOF 5
