REMARK  Name = ZINC45680327
REMARK  10 active torsions:
REMARK  status: ('A' for Active; 'I' for Inactive)
REMARK    1  A    between atoms: C_1  and  C_2
REMARK    2  A    between atoms: C_2  and  C_4
REMARK    3  A    between atoms: C_2  and  O_17
REMARK    4  A    between atoms: N_6  and  C_7
REMARK    5  A    between atoms: C_9  and  N_14
REMARK    6  A    between atoms: O_17  and  C_18
REMARK    7  A    between atoms: C_18  and  C_20
REMARK    8  A    between atoms: C_26  and  O_28
REMARK    9  A    between atoms: O_28  and  C_29
REMARK   10  A    between atoms: C_29  and  C_30
REMARK                            x       y       z     vdW  Elec       q    Type
REMARK                         _______ _______ _______ _____ _____    ______ ____
ROOT
ATOM      1  O   UNL     1      -1.333  -0.519   0.003  0.00  0.00    -0.452 OA
ENDROOT
BRANCH   1   3
ATOM      2  C   UNL     1      -0.021   1.510  -0.007  0.00  0.00    +0.062 C 
ATOM      3  C   UNL     1       0.006  -0.020  -0.006  0.00  0.00    +0.259 C 
BRANCH   3   4
ATOM      4  C   UNL     1       0.732  -0.509   1.220  0.00  0.00    +0.258 C 
ATOM      5  O   UNL     1       0.136  -1.139   2.068  0.00  0.00    -0.271 OA
ATOM      6  N   UNL     1       2.045  -0.246   1.375  0.00  0.00    -0.281 N 
ATOM      7  H   UNL     1       2.537   0.201   0.669  0.00  0.00    +0.155 HD
BRANCH   6   8
ATOM      8  C   UNL     1       2.699  -0.618   2.556  0.00  0.00    +0.054 A 
ATOM      9  C   UNL     1       2.333  -1.783   3.217  0.00  0.00    +0.057 A 
ATOM     10  C   UNL     1       2.980  -2.147   4.381  0.00  0.00    +0.128 A 
ATOM     11  C   UNL     1       3.991  -1.353   4.890  0.00  0.00    +0.034 A 
ATOM     12  C   UNL     1       4.359  -0.192   4.236  0.00  0.00    +0.024 A 
ATOM     13  C   UNL     1       3.719   0.176   3.067  0.00  0.00    +0.062 A 
ATOM     14 CL   UNL     1       4.185   1.630   2.241  0.00  0.00    -0.082 Cl
BRANCH  10  15
ATOM     15  N   UNL     1       2.590  -3.389   5.086  0.00  0.00    +0.056 N 
ATOM     16  O   UNL     1       1.705  -4.084   4.642  0.00  0.00    -0.126 OA
ATOM     17  O   UNL     1       3.156  -3.709   6.105  0.00  0.00    -0.126 OA
ENDBRANCH  10  15
ENDBRANCH   6   8
ENDBRANCH   3   4
ENDBRANCH   1   3
BRANCH   1  18
ATOM     18  C   UNL     1      -1.912  -0.734  -1.189  0.00  0.00    +0.311 C 
ATOM     19  O   UNL     1      -1.302  -0.504  -2.207  0.00  0.00    -0.251 OA
BRANCH  18  20
ATOM     20  C   UNL     1      -3.322  -1.260  -1.259  0.00  0.00    +0.101 C 
ATOM     21  C   UNL     1      -3.394  -2.620  -0.562  0.00  0.00    +0.034 C 
ATOM     22  C   UNL     1      -4.836  -3.136  -0.604  0.00  0.00    +0.112 C 
ATOM     23  N   UNL     1      -5.293  -3.148  -2.000  0.00  0.00    -0.267 N 
ATOM     24  C   UNL     1      -5.184  -1.914  -2.791  0.00  0.00    +0.112 C 
ATOM     25  C   UNL     1      -3.738  -1.412  -2.724  0.00  0.00    +0.034 C 
ATOM     26  C   UNL     1      -5.802  -4.270  -2.546  0.00  0.00    +0.403 C 
ATOM     27  O   UNL     1      -5.887  -5.285  -1.883  0.00  0.00    -0.226 OA
BRANCH  26  28
ATOM     28  O   UNL     1      -6.217  -4.268  -3.827  0.00  0.00    -0.441 OA
BRANCH  28  29
ATOM     29  C   UNL     1      -6.746  -5.492  -4.340  0.00  0.00    +0.346 C 
BRANCH  29  30
ATOM     30  C   UNL     1      -7.162  -5.295  -5.800  0.00  0.00    +0.424 C 
ATOM     31  F   UNL     1      -6.047  -4.916  -6.555  0.00  0.00    -0.167 F 
ATOM     32  F   UNL     1      -7.680  -6.494  -6.302  0.00  0.00    -0.167 F 
ATOM     33  F   UNL     1      -8.139  -4.297  -5.876  0.00  0.00    -0.167 F 
ENDBRANCH  29  30
ENDBRANCH  28  29
ENDBRANCH  26  28
ENDBRANCH  18  20
ENDBRANCH   1  18
TORSDOF 9
