REMARK  Name = ZINC01690047
REMARK  6 active torsions:
REMARK  status: ('A' for Active; 'I' for Inactive)
REMARK    1  A    between atoms: C_1  and  C_2
REMARK    2  A    between atoms: C_5  and  S_8
REMARK    3  A    between atoms: S_8  and  N_11
REMARK    4  A    between atoms: C_14  and  C_18
REMARK    5  A    between atoms: C_15  and  N_17
REMARK    6  A    between atoms: C_18  and  C_19
REMARK                            x       y       z     vdW  Elec       q    Type
REMARK                         _______ _______ _______ _____ _____    ______ ____
ROOT
ATOM      1  N   UNL     1      -3.183  -0.151   3.450  0.00  0.00    -0.028 N 
ATOM      2  C   UNL     1      -2.538  -0.341   2.282  0.00  0.00    +0.312 A 
ATOM      3  O   UNL     1      -1.764  -1.246   2.008  0.00  0.00    -0.263 OA
ATOM      4  C   UNL     1      -2.939   0.715   1.441  0.00  0.00    +0.085 A 
ATOM      5  C   UNL     1      -3.798   1.449   2.213  0.00  0.00    +0.222 A 
ATOM      6  O   UNL     1      -3.879   0.838   3.402  0.00  0.00    -0.337 OA
ENDROOT
BRANCH   1   7
ATOM      7  S   UNL     1      -3.042  -1.137   4.772  0.00  0.00    +0.114 S 
ATOM      8  O   UNL     1      -4.272  -1.049   5.477  0.00  0.00    -0.145 OA
ATOM      9  O   UNL     1      -2.520  -2.373   4.303  0.00  0.00    -0.145 OA
BRANCH   7  14
ATOM     10  C   UNL     1       1.176   1.270   8.353  0.00  0.00    +0.044 C 
ATOM     11  C   UNL     1       0.122   0.668   7.459  0.00  0.00    -0.050 A 
ATOM     12  C   UNL     1      -1.203   1.029   7.613  0.00  0.00    +0.005 A 
ATOM     13  C   UNL     1      -2.170   0.477   6.792  0.00  0.00    +0.029 A 
ATOM     14  C   UNL     1      -1.810  -0.434   5.818  0.00  0.00    +0.114 A 
ATOM     15  C   UNL     1      -0.486  -0.799   5.667  0.00  0.00    +0.029 A 
ATOM     16  C   UNL     1       0.481  -0.245   6.485  0.00  0.00    +0.005 A 
ENDBRANCH   7  14
ENDBRANCH   1   7
BRANCH   5  17
ATOM     17  N   UNL     1      -4.457   2.597   1.838  0.00  0.00    -0.327 N 
ATOM     18  H   UNL     1      -4.330   2.960   0.947  0.00  0.00    +0.145 HD
ATOM     19  H   UNL     1      -5.048   3.044   2.464  0.00  0.00    +0.145 HD
ENDBRANCH   5  17
BRANCH   4  20
ATOM     20  C   UNL     1      -2.514   0.980   0.019  0.00  0.00    +0.081 C 
BRANCH  20  21
ATOM     21  C   UNL     1      -1.219   1.751   0.017  0.00  0.00    -0.043 A 
ATOM     22  C   UNL     1      -0.013   1.076   0.008  0.00  0.00    +0.004 A 
ATOM     23  C   UNL     1       1.175   1.783   0.000  0.00  0.00    +0.000 A 
ATOM     24  C   UNL     1       1.156   3.165   0.008  0.00  0.00    +0.000 A 
ATOM     25  C   UNL     1      -0.050   3.840   0.022  0.00  0.00    +0.000 A 
ATOM     26  C   UNL     1      -1.238   3.133   0.030  0.00  0.00    +0.004 A 
ENDBRANCH  20  21
ENDBRANCH   4  20
TORSDOF 5
