REMARK  Name = ZINC63547061
REMARK  8 active torsions:
REMARK  status: ('A' for Active; 'I' for Inactive)
REMARK    1  A    between atoms: C_1  and  C_2
REMARK    2  A    between atoms: C_5  and  C_8
REMARK    3  A    between atoms: C_12  and  C_22
REMARK    4  A    between atoms: C_17  and  C_19
REMARK    5  A    between atoms: N_24  and  C_25
REMARK    6  A    between atoms: C_25  and  C_26
REMARK    7  A    between atoms: C_26  and  C_27
REMARK    8  A    between atoms: C_30  and  C_36
REMARK                            x       y       z     vdW  Elec       q    Type
REMARK                         _______ _______ _______ _____ _____    ______ ____
ROOT
ATOM      1  C   UNL     1       0.059  -4.255  -0.021  0.00  0.00    +0.070 C 
ATOM      2  N   UNL     1       0.067  -4.883  -1.171  0.00  0.00    -0.254 NA
ATOM      3  C   UNL     1       0.092  -6.348  -1.206  0.00  0.00    +0.246 C 
ATOM      4  C   UNL     1       1.000  -6.851  -2.304  0.00  0.00    +0.073 C 
ATOM      5  H   UNL     1       2.172  -8.356   0.223  0.00  0.00    +0.170 HD
ATOM      6  C   UNL     1       1.908  -7.660  -1.719  0.00  0.00    +0.100 C 
ATOM      7  N   UNL     1       1.716  -7.738  -0.370  0.00  0.00    -0.269 N 
ATOM      8  N   UNL     1       0.750  -6.803   0.039  0.00  0.00    -0.223 N 
ATOM      9  C   UNL     1       0.442  -6.280   1.270  0.00  0.00    +0.095 C 
ATOM     10  C   UNL     1       0.075  -4.972   1.257  0.00  0.00    +0.054 C 
ENDROOT
BRANCH   1  15
ATOM     11  C   UNL     1      -0.018   1.503   0.010  0.00  0.00    +0.044 C 
ATOM     12  C   UNL     1       0.002  -0.004   0.002  0.00  0.00    -0.050 A 
ATOM     13  C   UNL     1       0.006  -0.686  -1.201  0.00  0.00    +0.004 A 
ATOM     14  C   UNL     1       0.024  -2.066  -1.215  0.00  0.00    +0.010 A 
ATOM     15  C   UNL     1       0.040  -2.772  -0.013  0.00  0.00    +0.000 A 
ATOM     16  C   UNL     1       0.036  -2.079   1.196  0.00  0.00    +0.010 A 
ATOM     17  C   UNL     1       0.023  -0.699   1.198  0.00  0.00    +0.004 A 
ENDBRANCH   1  15
BRANCH   4  18
ATOM     18  C   UNL     1       0.914  -6.535  -3.680  0.00  0.00    +0.245 C 
ATOM     19  O   UNL     1       1.714  -7.011  -4.465  0.00  0.00    -0.270 OA
ATOM     20  N   UNL     1      -0.053  -5.707  -4.122  0.00  0.00    -0.311 N 
ATOM     21  H   UNL     1      -0.690  -5.328  -3.497  0.00  0.00    +0.149 HD
BRANCH  20  22
ATOM     22  C   UNL     1      -0.142  -5.380  -5.547  0.00  0.00    +0.109 C 
BRANCH  22  23
ATOM     23  C   UNL     1      -1.317  -4.428  -5.780  0.00  0.00    +0.052 C 
BRANCH  23  24
ATOM     24  C   UNL     1      -1.408  -4.092  -7.246  0.00  0.00    -0.040 C 
ATOM     25  C   UNL     1      -2.188  -4.695  -8.172  0.00  0.00    -0.001 A 
ATOM     26  C   UNL     1      -3.148  -5.803  -8.094  0.00  0.00    +0.013 A 
ATOM     27  C   UNL     1      -3.791  -6.194  -9.218  0.00  0.00    -0.050 A 
ATOM     28  C   UNL     1      -3.565  -5.568 -10.452  0.00  0.00    +0.005 A 
ATOM     29  C   UNL     1      -2.699  -4.544 -10.602  0.00  0.00    +0.026 A 
ATOM     30  C   UNL     1      -1.968  -4.051  -9.486  0.00  0.00    +0.043 A 
ATOM     31  N   UNL     1      -1.086  -3.087  -9.377  0.00  0.00    -0.380 N 
ATOM     32  C   UNL     1      -0.651  -3.007  -7.979  0.00  0.00    +0.144 C 
ATOM     33  C   UNL     1      -4.777  -7.331  -9.141  0.00  0.00    +0.044 C 
ATOM     34  H   UNL     1      -0.776  -2.519 -10.100  0.00  0.00    +0.160 HD
ENDBRANCH  23  24
ENDBRANCH  22  23
ENDBRANCH  20  22
ENDBRANCH   4  18
BRANCH   9  35
ATOM     35  C   UNL     1       0.511  -7.093   2.537  0.00  0.00    +0.387 C 
ATOM     36  F   UNL     1       0.142  -6.293   3.624  0.00  0.00    -0.202 F 
ATOM     37  F   UNL     1      -0.362  -8.181   2.441  0.00  0.00    -0.202 F 
ENDBRANCH   9  35
TORSDOF 6
