REMARK  Name = ZINC35454833
REMARK  5 active torsions:
REMARK  status: ('A' for Active; 'I' for Inactive)
REMARK    1  A    between atoms: C_1  and  C_2
REMARK    2  A    between atoms: C_5  and  C_17
REMARK    3  A    between atoms: C_7  and  S_8
REMARK    4  A    between atoms: S_8  and  N_11
REMARK    5  A    between atoms: C_26  and  N_29
REMARK                            x       y       z     vdW  Elec       q    Type
REMARK                         _______ _______ _______ _____ _____    ______ ____
ROOT
ATOM      1  C   UNL     1       0.636  -4.152  -0.282  0.00  0.00    +0.093 A 
ATOM      2  C   UNL     1       0.681  -4.787  -1.528  0.00  0.00    +0.033 A 
ATOM      3  C   UNL     1       0.961  -6.141  -1.556  0.00  0.00    +0.047 A 
ATOM      4  C   UNL     1       1.181  -6.790  -0.340  0.00  0.00    +0.144 A 
ATOM      5  N   UNL     1       1.119  -6.107   0.794  0.00  0.00    -0.134 NA
ATOM      6  N   UNL     1       0.864  -4.850   0.822  0.00  0.00    -0.147 NA
ATOM      7  N   UNL     1       1.465  -8.151  -0.319  0.00  0.00    -0.314 N 
ATOM      8  C   UNL     1       1.708  -8.845   0.953  0.00  0.00    +0.105 C 
ATOM      9  C   UNL     1       0.769 -10.053   1.043  0.00  0.00    +0.004 C 
ATOM     10  C   UNL     1       0.955 -10.930  -0.198  0.00  0.00    -0.066 C 
ATOM     11  C   UNL     1       0.593 -10.129  -1.450  0.00  0.00    +0.004 C 
ATOM     12  C   UNL     1       1.523  -8.923  -1.567  0.00  0.00    +0.105 C 
ENDROOT
BRANCH   1  17
ATOM     13  C   UNL     1      -0.512   1.482   0.048  0.00  0.00    +0.046 C 
ATOM     14  C   UNL     1      -0.211   0.007  -0.038  0.00  0.00    -0.024 A 
ATOM     15  C   UNL     1      -0.275  -0.638  -1.260  0.00  0.00    +0.006 A 
ATOM     16  C   UNL     1      -0.001  -1.988  -1.345  0.00  0.00    +0.010 A 
ATOM     17  C   UNL     1       0.341  -2.701  -0.197  0.00  0.00    +0.004 A 
ATOM     18  C   UNL     1       0.404  -2.045   1.031  0.00  0.00    +0.039 A 
ATOM     19  C   UNL     1       0.133  -0.694   1.103  0.00  0.00    +0.109 A 
BRANCH  19  20
ATOM     20  S   UNL     1       0.219   0.139   2.654  0.00  0.00    +0.061 S 
ATOM     21  O   UNL     1      -0.933   0.967   2.735  0.00  0.00    -0.153 OA
ATOM     22  O   UNL     1       0.517  -0.850   3.630  0.00  0.00    -0.153 OA
BRANCH  20  23
ATOM     23  N   UNL     1       1.527   1.153   2.593  0.00  0.00    -0.177 NA
ATOM     24  C   UNL     1       2.872   0.661   2.924  0.00  0.00    +0.109 C 
ATOM     25  C   UNL     1       3.817   0.992   1.765  0.00  0.00    +0.017 C 
ATOM     26  C   UNL     1       3.752   2.492   1.471  0.00  0.00    +0.003 C 
ATOM     27  C   UNL     1       2.328   2.871   1.056  0.00  0.00    +0.017 C 
ATOM     28  C   UNL     1       1.367   2.560   2.201  0.00  0.00    +0.109 C 
ENDBRANCH  20  23
ENDBRANCH  19  20
ENDBRANCH   1  17
BRANCH  10  29
ATOM     29  N   UNL     1       0.080 -12.107  -0.100  0.00  0.00    +0.382 N 
ATOM     30  C   UNL     1       0.424 -12.870   1.106  0.00  0.00    -0.078 C 
ATOM     31  C   UNL     1      -0.537 -14.052   1.256  0.00  0.00    -0.019 C 
ATOM     32  C   UNL     1      -0.421 -14.957   0.027  0.00  0.00    -0.004 C 
ATOM     33  C   UNL     1      -0.708 -14.132  -1.231  0.00  0.00    -0.019 C 
ATOM     34  C   UNL     1       0.259 -12.947  -1.289  0.00  0.00    -0.078 C 
ATOM     35  H   UNL     1      -0.881 -11.806  -0.042  0.00  0.00    -0.081 HD
ENDBRANCH  10  29
TORSDOF 4
