REMARK  Name = ZINC58989636
REMARK  7 active torsions:
REMARK  status: ('A' for Active; 'I' for Inactive)
REMARK    1  A    between atoms: C_6  and  C_7
REMARK    2  A    between atoms: N_8  and  N_9
REMARK    3  A    between atoms: C_10  and  C_12
REMARK    4  A    between atoms: C_12  and  S_13
REMARK    5  A    between atoms: S_13  and  C_14
REMARK    6  A    between atoms: C_17  and  C_20
REMARK    7  A    between atoms: N_18  and  N_19
REMARK                            x       y       z     vdW  Elec       q    Type
REMARK                         _______ _______ _______ _____ _____    ______ ____
ROOT
ATOM      1  S   UNL     1      -3.355  -6.679  -0.001  0.00  0.00    -0.075 S 
ENDROOT
BRANCH   1   2
ATOM      2  C   UNL     1      -4.946  -7.436   0.011  0.00  0.00    +0.209 A 
ATOM      3  N   UNL     1      -6.104  -6.816   0.020  0.00  0.00    -0.121 NA
ATOM      4  N   UNL     1      -7.063  -7.672   0.027  0.00  0.00    -0.127 NA
ATOM      5  C   UNL     1      -6.576  -8.891   0.023  0.00  0.00    +0.182 A 
ATOM      6  N   UNL     1      -5.205  -8.777   0.007  0.00  0.00    -0.224 N 
BRANCH   5   7
ATOM      7  C   UNL     1      -7.354 -10.148   0.028  0.00  0.00    +0.021 A 
ATOM      8  C   UNL     1      -6.729 -11.357   0.342  0.00  0.00    +0.013 A 
ATOM      9  C   UNL     1      -7.460 -12.527   0.345  0.00  0.00    +0.016 A 
ATOM     10  C   UNL     1      -8.810 -12.503   0.038  0.00  0.00    +0.018 A 
ATOM     11  C   UNL     1      -9.435 -11.308  -0.274  0.00  0.00    +0.016 A 
ATOM     12  C   UNL     1      -8.716 -10.130  -0.274  0.00  0.00    +0.013 A 
ATOM     13 BR   UNL     1      -9.805 -14.112   0.044  0.00  0.00    -0.050 Br
ENDBRANCH   5   7
BRANCH   6  14
ATOM     14  N   UNL     1      -4.293  -9.794  -0.008  0.00  0.00    -0.295 N 
ATOM     15  H   UNL     1      -4.042 -10.069   0.930  0.00  0.00    +0.163 HD
ATOM     16  H   UNL     1      -4.638 -10.582  -0.535  0.00  0.00    +0.163 HD
ENDBRANCH   6  14
ENDBRANCH   1   2
BRANCH   1  17
ATOM     17  C   UNL     1      -3.715  -4.901   0.013  0.00  0.00    +0.174 C 
BRANCH  17  19
ATOM     18  N   UNL     1      -2.444  -2.779   0.011  0.00  0.00    -0.206 N 
ATOM     19  C   UNL     1      -2.422  -4.127   0.004  0.00  0.00    +0.242 C 
ATOM     20  O   UNL     1      -1.362  -4.716  -0.010  0.00  0.00    -0.273 OA
ATOM     21  H   UNL     1      -3.292  -2.308   0.022  0.00  0.00    +0.177 HD
BRANCH  18  23
ATOM     22  C   UNL     1      -1.263  -0.762   0.011  0.00  0.00    +0.138 C 
ATOM     23  N   UNL     1      -1.242  -2.059   0.003  0.00  0.00    -0.188 NA
BRANCH  22  29
ATOM     24  C   UNL     1      -0.017   1.393   0.010  0.00  0.00    +0.010 A 
ATOM     25  C   UNL     1       1.170   2.095   0.002  0.00  0.00    +0.016 A 
ATOM     26  C   UNL     1       2.378   1.419  -0.013  0.00  0.00    +0.018 A 
ATOM     27  C   UNL     1       2.404   0.035  -0.021  0.00  0.00    +0.016 A 
ATOM     28  C   UNL     1       1.225  -0.680  -0.014  0.00  0.00    +0.010 A 
ATOM     29  C   UNL     1       0.002  -0.004   0.002  0.00  0.00    -0.005 A 
ATOM     30 BR   UNL     1       4.000   2.391  -0.024  0.00  0.00    -0.050 Br
ENDBRANCH  22  29
ENDBRANCH  18  23
ENDBRANCH  17  19
ENDBRANCH   1  17
TORSDOF 7
