REMARK  Name = ZINC39656859
REMARK  7 active torsions:
REMARK  status: ('A' for Active; 'I' for Inactive)
REMARK    1  A    between atoms: C_1  and  C_2
REMARK    2  A    between atoms: C_2  and  C_4
REMARK    3  A    between atoms: C_2  and  N_11
REMARK    4  A    between atoms: C_12  and  C_14
REMARK    5  A    between atoms: C_25  and  C_27
REMARK    6  A    between atoms: C_27  and  C_28
REMARK    7  A    between atoms: C_28  and  C_29
REMARK                            x       y       z     vdW  Elec       q    Type
REMARK                         _______ _______ _______ _____ _____    ______ ____
ROOT
ATOM      1  C   UNL     1       0.712  -1.094  -3.598  0.00  0.00    +0.100 C 
ATOM      2  C   UNL     1       1.342  -2.483  -3.349  0.00  0.00    +0.121 C 
ATOM      3  N   UNL     1       0.333  -3.447  -3.848  0.00  0.00    -0.300 N 
ATOM      4  C   UNL     1      -0.202  -2.817  -5.079  0.00  0.00    +0.115 C 
ATOM      5  C   UNL     1      -0.298  -1.317  -4.737  0.00  0.00    -0.004 C 
ATOM      6  C   UNL     1       0.078  -0.473  -5.950  0.00  0.00    -0.010 C 
ATOM      7  C   UNL     1      -0.973  -0.667  -7.047  0.00  0.00    -0.082 C 
ATOM      8  N   UNL     1      -2.291  -0.269  -6.540  0.00  0.00    +0.379 N 
ATOM      9  C   UNL     1      -2.687  -1.147  -5.431  0.00  0.00    -0.082 C 
ATOM     10  C   UNL     1      -1.709  -0.973  -4.266  0.00  0.00    -0.010 C 
ATOM     11  C   UNL     1      -0.019  -4.629  -3.304  0.00  0.00    +0.216 C 
ATOM     12  O   UNL     1      -0.870  -5.311  -3.836  0.00  0.00    -0.276 OA
ATOM     13  H   UNL     1      -2.251   0.685  -6.214  0.00  0.00    -0.086 HD
ATOM     14  H   UNL     1      -2.971  -0.340  -7.282  0.00  0.00    -0.086 HD
ENDROOT
BRANCH   1  16
ATOM     15  N   UNL     1      -0.108   0.714  -2.123  0.00  0.00    -0.308 N 
ATOM     16  C   UNL     1       0.006  -0.608  -2.358  0.00  0.00    +0.219 C 
ATOM     17  O   UNL     1      -0.459  -1.407  -1.573  0.00  0.00    -0.275 OA
ATOM     18  H   UNL     1       0.264   1.353  -2.751  0.00  0.00    +0.149 HD
BRANCH  15  20
ATOM     19  C   UNL     1      -2.299   1.252  -1.180  0.00  0.00    +0.033 C 
ATOM     20  C   UNL     1      -0.793   1.186  -0.917  0.00  0.00    +0.100 C 
BRANCH  20  21
ATOM     21  C   UNL     1      -0.286   2.558  -0.556  0.00  0.00    -0.027 A 
ATOM     22  C   UNL     1      -0.042   3.489  -1.549  0.00  0.00    +0.006 A 
ATOM     23  C   UNL     1       0.423   4.748  -1.218  0.00  0.00    +0.015 A 
ATOM     24  C   UNL     1       0.644   5.076   0.108  0.00  0.00    +0.018 A 
ATOM     25  C   UNL     1       0.401   4.145   1.101  0.00  0.00    +0.015 A 
ATOM     26  C   UNL     1      -0.069   2.888   0.769  0.00  0.00    +0.006 A 
ATOM     27 BR   UNL     1       1.281   6.798   0.561  0.00  0.00    -0.050 Br
ENDBRANCH  20  21
ENDBRANCH  15  20
ENDBRANCH   1  16
BRANCH  11  28
ATOM     28  C   UNL     1       0.644  -5.103  -2.037  0.00  0.00    +0.096 C 
BRANCH  28  29
ATOM     29  C   UNL     1       0.067  -6.463  -1.637  0.00  0.00    +0.013 C 
BRANCH  29  30
ATOM     30  C   UNL     1       0.741  -6.944  -0.351  0.00  0.00    -0.011 C 
ATOM     31  C   UNL     1       2.224  -7.271  -0.621  0.00  0.00    +0.003 C 
ATOM     32  C   UNL     1       2.505  -8.514   0.259  0.00  0.00    +0.000 C 
ATOM     33  C   UNL     1       1.190  -9.324   0.137  0.00  0.00    +0.000 C 
ATOM     34  C   UNL     1       0.083  -8.249   0.132  0.00  0.00    +0.003 C 
ENDBRANCH  29  30
ENDBRANCH  28  29
ENDBRANCH  11  28
TORSDOF 6
