REMARK  Name = ZINC38650509
REMARK  13 active torsions:
REMARK  status: ('A' for Active; 'I' for Inactive)
REMARK    1  A    between atoms: C_1  and  C_2
REMARK    2  A    between atoms: C_2  and  O_3
REMARK    3  A    between atoms: O_3  and  C_4
REMARK    4  A    between atoms: C_9  and  C_10
REMARK    5  A    between atoms: C_15  and  O_24
REMARK    6  A    between atoms: C_19  and  N_23
REMARK    7  A    between atoms: C_20  and  C_21
REMARK    8  A    between atoms: O_24  and  C_25
REMARK    9  A    between atoms: C_25  and  C_27
REMARK   10  A    between atoms: C_30  and  O_33
REMARK   11  A    between atoms: O_33  and  C_34
REMARK   12  A    between atoms: C_34  and  C_35
REMARK   13  A    between atoms: C_34  and  C_36
REMARK                            x       y       z     vdW  Elec       q    Type
REMARK                         _______ _______ _______ _____ _____    ______ ____
ROOT
ATOM      1  C   UNL     1      -3.584  -1.359   0.295  0.00  0.00    +0.101 C 
ATOM      2  C   UNL     1      -4.438  -1.651   1.501  0.00  0.00    +0.008 A 
ATOM      3  C   UNL     1      -4.051  -1.173   2.741  0.00  0.00    +0.012 A 
ATOM      4  C   UNL     1      -4.823  -1.431   3.857  0.00  0.00    +0.047 A 
ATOM      5  C   UNL     1      -5.990  -2.171   3.737  0.00  0.00    +0.135 A 
ATOM      6  C   UNL     1      -6.380  -2.651   2.498  0.00  0.00    +0.093 A 
ATOM      7  C   UNL     1      -5.603  -2.392   1.376  0.00  0.00    +0.138 A 
ATOM      8  O   UNL     1      -5.998  -2.868   0.170  0.00  0.00    -0.441 OA
ATOM      9  C   UNL     1      -5.507  -2.328  -0.958  0.00  0.00    +0.199 C 
ATOM     10  C   UNL     1      -4.367  -1.603  -0.964  0.00  0.00    +0.098 C 
ENDROOT
BRANCH   1  16
ATOM     11  C   UNL     1      -1.101  -1.706   0.359  0.00  0.00    +0.125 A 
ATOM     12  C   UNL     1       0.011  -2.536   0.380  0.00  0.00    +0.046 A 
ATOM     13  C   UNL     1      -0.151  -3.907   0.349  0.00  0.00    +0.004 A 
ATOM     14  C   UNL     1      -1.420  -4.454   0.297  0.00  0.00    +0.001 A 
ATOM     15  C   UNL     1      -2.530  -3.630   0.276  0.00  0.00    +0.008 A 
ATOM     16  C   UNL     1      -2.374  -2.257   0.312  0.00  0.00    +0.007 A 
BRANCH  11  17
ATOM     17  O   UNL     1      -0.945  -0.357   0.390  0.00  0.00    -0.492 OA
BRANCH  17  19
ATOM     18  C   UNL     1       0.370   1.669   0.466  0.00  0.00    +0.048 C 
ATOM     19  C   UNL     1       0.395   0.140   0.437  0.00  0.00    +0.225 C 
ENDBRANCH  17  19
ENDBRANCH  11  17
ENDBRANCH   1  16
BRANCH   9  20
ATOM     20  N   UNL     1      -6.183  -2.519  -2.137  0.00  0.00    -0.328 N 
ATOM     21  H   UNL     1      -7.002  -3.038  -2.148  0.00  0.00    +0.145 HD
ATOM     22  H   UNL     1      -5.841  -2.135  -2.960  0.00  0.00    +0.145 HD
ENDBRANCH   9  20
BRANCH  10  23
ATOM     23  C   UNL     1      -3.896  -1.055  -2.200  0.00  0.00    +0.101 C 
ATOM     24  N   UNL     1      -3.522  -0.620  -3.181  0.00  0.00    -0.191 NA
ENDBRANCH  10  23
BRANCH   5  25
ATOM     25  O   UNL     1      -6.750  -2.426   4.835  0.00  0.00    -0.422 OA
BRANCH  25  26
ATOM     26  C   UNL     1      -7.372  -1.388   5.428  0.00  0.00    +0.344 C 
ATOM     27  O   UNL     1      -7.325  -0.283   4.925  0.00  0.00    -0.245 OA
BRANCH  26  28
ATOM     28  C   UNL     1      -8.110  -1.593   6.689  0.00  0.00    +0.060 A 
ATOM     29  C   UNL     1      -8.160  -2.862   7.273  0.00  0.00    +0.018 A 
ATOM     30  C   UNL     1      -8.850  -3.049   8.450  0.00  0.00    +0.046 A 
ATOM     31  C   UNL     1      -9.495  -1.978   9.057  0.00  0.00    +0.121 A 
ATOM     32  C   UNL     1      -9.447  -0.715   8.480  0.00  0.00    +0.046 A 
ATOM     33  C   UNL     1      -8.755  -0.518   7.306  0.00  0.00    +0.018 A 
BRANCH  31  34
ATOM     34  O   UNL     1     -10.173  -2.167  10.217  0.00  0.00    -0.489 OA
BRANCH  34  35
ATOM     35  C   UNL     1     -10.116  -3.471  10.798  0.00  0.00    +0.167 C 
ATOM     36  C   UNL     1      -8.826  -3.612  11.609  0.00  0.00    +0.051 C 
ATOM     37  C   UNL     1     -11.322  -3.674  11.717  0.00  0.00    +0.051 C 
ENDBRANCH  34  35
ENDBRANCH  31  34
ENDBRANCH  26  28
ENDBRANCH  25  26
ENDBRANCH   5  25
TORSDOF 10
