REMARK  Name = ZINC63853910
REMARK  5 active torsions:
REMARK  status: ('A' for Active; 'I' for Inactive)
REMARK    1  A    between atoms: C_7  and  C_10
REMARK    2  A    between atoms: C_10  and  C_11
REMARK    3  A    between atoms: C_11  and  C_13
REMARK    4  A    between atoms: C_11  and  N_27
REMARK    5  A    between atoms: C_28  and  C_30
REMARK                            x       y       z     vdW  Elec       q    Type
REMARK                         _______ _______ _______ _____ _____    ______ ____
ROOT
ATOM      1  C   UNL     1       0.456  -3.653  -1.461  0.00  0.00    +0.163 C 
ENDROOT
BRANCH   1   2
ATOM      2  C   UNL     1      -0.279  -4.968  -1.449  0.00  0.00    +0.236 C 
ATOM      3  O   UNL     1      -1.458  -5.007  -1.732  0.00  0.00    -0.274 OA
ATOM      4  N   UNL     1       0.373  -6.102  -1.122  0.00  0.00    -0.300 N 
ATOM      5  C   UNL     1       1.768  -6.059  -0.665  0.00  0.00    +0.108 C 
ATOM      6  C   UNL     1       1.868  -6.788   0.678  0.00  0.00    +0.023 C 
ATOM      7  C   UNL     1       1.301  -8.203   0.531  0.00  0.00    -0.005 C 
ATOM      8  C   UNL     1       1.431  -8.938   1.867  0.00  0.00    +0.004 C 
ATOM      9  C   UNL     1       0.862 -10.351   1.732  0.00  0.00    +0.000 C 
ATOM     10  C   UNL     1      -0.615 -10.269   1.339  0.00  0.00    +0.000 C 
ATOM     11  C   UNL     1      -0.745  -9.538   0.002  0.00  0.00    +0.005 C 
ATOM     12  C   UNL     1      -0.174  -8.124   0.131  0.00  0.00    +0.010 C 
ATOM     13  C   UNL     1      -0.300  -7.405  -1.210  0.00  0.00    +0.111 C 
ENDBRANCH   1   2
BRANCH   1  14
ATOM     14  N   UNL     1      -0.198  -2.737  -2.398  0.00  0.00    -0.300 N 
ATOM     15  C   UNL     1       0.504  -1.735  -2.963  0.00  0.00    +0.245 C 
ATOM     16  O   UNL     1       1.682  -1.592  -2.696  0.00  0.00    -0.270 OA
ATOM     17  H   UNL     1      -1.138  -2.850  -2.611  0.00  0.00    +0.150 HD
BRANCH  15  18
ATOM     18  C   UNL     1      -0.156  -0.811  -3.907  0.00  0.00    +0.037 A 
ATOM     19  C   UNL     1      -1.510  -0.969  -4.212  0.00  0.00    +0.016 A 
ATOM     20  C   UNL     1      -2.121  -0.103  -5.093  0.00  0.00    +0.039 A 
ATOM     21  C   UNL     1      -1.394   0.922  -5.678  0.00  0.00    +0.123 A 
ATOM     22  C   UNL     1      -0.050   1.084  -5.380  0.00  0.00    +0.039 A 
ATOM     23  C   UNL     1       0.570   0.228  -4.494  0.00  0.00    +0.016 A 
ATOM     24  F   UNL     1      -1.998   1.767  -6.543  0.00  0.00    -0.205 F 
ENDBRANCH  15  18
ENDBRANCH   1  14
BRANCH   1  25
ATOM     25  C   UNL     1       0.440  -3.046  -0.057  0.00  0.00    +0.065 C 
BRANCH  25  32
ATOM     26  C   UNL     1      -0.549   1.406  -0.568  0.00  0.00    +0.001 A 
ATOM     27  C   UNL     1       0.570   2.244  -0.476  0.00  0.00    +0.002 A 
ATOM     28  C   UNL     1       1.817   1.775  -0.258  0.00  0.00    +0.026 A 
ATOM     29  C   UNL     1       2.044   0.379  -0.110  0.00  0.00    +0.043 A 
ATOM     30  N   UNL     1       3.139  -0.310   0.104  0.00  0.00    -0.380 N 
ATOM     31  C   UNL     1       2.790  -1.734   0.172  0.00  0.00    +0.144 C 
ATOM     32  C   UNL     1       1.294  -1.804  -0.037  0.00  0.00    -0.039 C 
ATOM     33  C   UNL     1       0.877  -0.528  -0.202  0.00  0.00    -0.001 A 
ATOM     34  C   UNL     1      -0.445   0.063  -0.441  0.00  0.00    +0.010 A 
ATOM     35  H   UNL     1       4.030   0.060   0.201  0.00  0.00    +0.160 HD
ENDBRANCH  25  32
ENDBRANCH   1  25
TORSDOF 5
