REMARK  Name = ZINC38806327
REMARK  10 active torsions:
REMARK  status: ('A' for Active; 'I' for Inactive)
REMARK    1  A    between atoms: C_1  and  C_2
REMARK    2  A    between atoms: C_4  and  C_14
REMARK    3  A    between atoms: N_16  and  C_17
REMARK    4  A    between atoms: C_18  and  C_30
REMARK    5  A    between atoms: C_22  and  C_28
REMARK    6  A    between atoms: C_22  and  C_29
REMARK    7  A    between atoms: C_24  and  C_26
REMARK    8  A    between atoms: C_24  and  C_27
REMARK    9  A    between atoms: C_30  and  O_32
REMARK   10  A    between atoms: O_32  and  C_33
REMARK                            x       y       z     vdW  Elec       q    Type
REMARK                         _______ _______ _______ _____ _____    ______ ____
ROOT
ATOM      1  C   UNL     1       3.533   1.827  -1.691  0.00  0.00    +0.086 A 
ATOM      2  C   UNL     1       3.947   3.152  -1.750  0.00  0.00    +0.091 A 
ATOM      3  C   UNL     1       5.351   3.389  -2.005  0.00  0.00    -0.024 A 
ATOM      4  C   UNL     1       6.093   2.267  -2.159  0.00  0.00    -0.016 A 
ATOM      5  S   UNL     1       4.938   0.945  -1.953  0.00  0.00    -0.079 S 
ATOM      6  C   UNL     1       7.555   2.208  -2.448  0.00  0.00    -0.041 C 
ATOM      7  N   UNL     1       8.198   3.517  -2.338  0.00  0.00    +0.389 N 
ATOM      8  C   UNL     1       7.480   4.536  -1.587  0.00  0.00    -0.069 C 
ATOM      9  C   UNL     1       6.050   4.736  -2.105  0.00  0.00    +0.024 C 
ATOM     10  C   UNL     1       7.438   4.194  -0.095  0.00  0.00    -0.010 C 
ATOM     11  C   UNL     1       8.228   5.873  -1.744  0.00  0.00    -0.010 C 
ATOM     12  C   UNL     1       8.224   1.209  -1.493  0.00  0.00    -0.005 C 
ATOM     13  C   UNL     1       7.743   1.685  -3.885  0.00  0.00    -0.005 C 
ATOM     14  H   UNL     1       9.120   3.391  -1.916  0.00  0.00    -0.084 HD
ATOM     15  H   UNL     1       8.374   3.871  -3.280  0.00  0.00    -0.084 HD
ENDROOT
BRANCH   1  18
ATOM     16  C   UNL     1       2.028   0.017  -1.441  0.00  0.00    +0.262 C 
ATOM     17  O   UNL     1       2.957  -0.758  -1.526  0.00  0.00    -0.271 OA
ATOM     18  N   UNL     1       2.253   1.345  -1.466  0.00  0.00    -0.276 N 
ATOM     19  H   UNL     1       1.520   1.965  -1.327  0.00  0.00    +0.155 HD
BRANCH  16  22
ATOM     20  C   UNL     1       0.142   1.211   0.454  0.00  0.00    +0.056 C 
ATOM     21  C   UNL     1       0.119  -0.283   0.126  0.00  0.00    +0.220 C 
ATOM     22  C   UNL     1       0.621  -0.506  -1.308  0.00  0.00    +0.299 C 
ATOM     23  O   UNL     1       0.600  -1.912  -1.577  0.00  0.00    -0.472 OA
ATOM     24  C   UNL     1       1.121  -2.726  -0.618  0.00  0.00    +0.163 A 
ATOM     25  C   UNL     1       1.465  -4.029  -0.945  0.00  0.00    +0.049 A 
ATOM     26  C   UNL     1       1.992  -4.868   0.018  0.00  0.00    +0.004 A 
ATOM     27  C   UNL     1       2.178  -4.412   1.310  0.00  0.00    +0.004 A 
ATOM     28  C   UNL     1       1.838  -3.114   1.642  0.00  0.00    +0.049 A 
ATOM     29  C   UNL     1       1.310  -2.265   0.679  0.00  0.00    +0.163 A 
ATOM     30  O   UNL     1       0.988  -0.988   1.020  0.00  0.00    -0.481 OA
ENDBRANCH  16  22
ENDBRANCH   1  18
BRANCH   2  31
ATOM     31  C   UNL     1       2.995   4.250  -1.565  0.00  0.00    +0.342 C 
ATOM     32  O   UNL     1       2.788   4.694  -0.452  0.00  0.00    -0.245 OA
BRANCH  31  33
ATOM     33  O   UNL     1       2.348   4.769  -2.629  0.00  0.00    -0.464 OA
ATOM     34  C   UNL     1       1.434   5.837  -2.374  0.00  0.00    +0.280 C 
ENDBRANCH  31  33
ENDBRANCH   2  31
TORSDOF 4
