REMARK  Name = ZINC52635083
REMARK  10 active torsions:
REMARK  status: ('A' for Active; 'I' for Inactive)
REMARK    1  A    between atoms: C_7  and  C_10
REMARK    2  A    between atoms: C_10  and  C_11
REMARK    3  A    between atoms: C_11  and  C_12
REMARK    4  A    between atoms: C_12  and  C_13
REMARK    5  A    between atoms: N_15  and  C_16
REMARK    6  A    between atoms: N_15  and  C_23
REMARK    7  A    between atoms: C_16  and  C_17
REMARK    8  A    between atoms: C_26  and  C_29
REMARK    9  A    between atoms: C_29  and  C_30
REMARK   10  A    between atoms: C_33  and  N_36
REMARK                            x       y       z     vdW  Elec       q    Type
REMARK                         _______ _______ _______ _____ _____    ______ ____
ROOT
ATOM      1  C   UNL     1      -0.521  -5.524  -2.854  0.00  0.00    +0.216 C 
ATOM      2  O   UNL     1      -0.291  -4.628  -3.639  0.00  0.00    -0.276 OA
ATOM      3  N   UNL     1      -1.474  -6.436  -3.134  0.00  0.00    -0.294 N 
ENDROOT
BRANCH   3   4
ATOM      4  C   UNL     1      -1.619  -6.950  -4.498  0.00  0.00    +0.076 C 
ATOM      5  C   UNL     1      -0.234  -7.193  -5.101  0.00  0.00    +0.023 C 
ATOM      6  C   UNL     1       0.547  -5.878  -5.132  0.00  0.00    +0.005 C 
ATOM      7  C   UNL     1      -0.208  -4.856  -5.984  0.00  0.00    -0.011 C 
ATOM      8  C   UNL     1      -1.593  -4.613  -5.381  0.00  0.00    +0.005 C 
ATOM      9  C   UNL     1      -2.374  -5.928  -5.350  0.00  0.00    +0.023 C 
BRANCH   7  10
ATOM     10  C   UNL     1       0.573  -3.541  -6.015  0.00  0.00    +0.007 C 
BRANCH  10  11
ATOM     11  C   UNL     1      -0.116  -2.560  -6.966  0.00  0.00    -0.011 C 
ATOM     12  C   UNL     1      -0.050  -3.104  -8.395  0.00  0.00    +0.002 C 
ATOM     13  C   UNL     1      -0.739  -2.124  -9.346  0.00  0.00    -0.016 C 
ATOM     14  C   UNL     1      -0.031  -0.768  -9.282  0.00  0.00    -0.075 C 
ATOM     15  C   UNL     1      -0.098  -0.225  -7.854  0.00  0.00    -0.016 C 
ATOM     16  C   UNL     1       0.592  -1.205  -6.902  0.00  0.00    +0.002 C 
BRANCH  14  17
ATOM     17  N   UNL     1      -0.693   0.173 -10.196  0.00  0.00    +0.380 N 
ATOM     18  H   UNL     1      -1.658   0.284  -9.923  0.00  0.00    -0.090 HD
ATOM     19  H   UNL     1      -0.226   1.066 -10.154  0.00  0.00    -0.090 HD
ATOM     20  H   UNL     1      -0.649  -0.186 -11.138  0.00  0.00    -0.090 HD
ENDBRANCH  14  17
ENDBRANCH  10  11
ENDBRANCH   7  10
ENDBRANCH   3   4
BRANCH   1  21
ATOM     21  C   UNL     1       0.258  -5.619  -1.568  0.00  0.00    +0.096 C 
BRANCH  21  22
ATOM     22  C   UNL     1       1.360  -4.558  -1.560  0.00  0.00    +0.014 C 
BRANCH  22  23
ATOM     23  C   UNL     1       2.151  -4.653  -0.254  0.00  0.00    +0.033 C 
BRANCH  23  30
ATOM     24  C   UNL     1       2.352  -0.405   1.469  0.00  0.00    +0.001 A 
ATOM     25  C   UNL     1       3.579   0.234   1.247  0.00  0.00    +0.002 A 
ATOM     26  C   UNL     1       4.599  -0.355   0.587  0.00  0.00    +0.026 A 
ATOM     27  C   UNL     1       4.460  -1.677   0.081  0.00  0.00    +0.043 A 
ATOM     28  N   UNL     1       5.287  -2.450  -0.580  0.00  0.00    -0.380 N 
ATOM     29  C   UNL     1       4.617  -3.726  -0.853  0.00  0.00    +0.144 C 
ATOM     30  C   UNL     1       3.237  -3.608  -0.246  0.00  0.00    -0.042 C 
ATOM     31  C   UNL     1       3.173  -2.374   0.303  0.00  0.00    -0.001 A 
ATOM     32  C   UNL     1       2.116  -1.663   1.031  0.00  0.00    +0.010 A 
ATOM     33  H   UNL     1       6.190  -2.217  -0.846  0.00  0.00    +0.160 HD
ENDBRANCH  23  30
ENDBRANCH  22  23
ENDBRANCH  21  22
ENDBRANCH   1  21
BRANCH   3  34
ATOM     34  C   UNL     1      -2.365  -6.913  -2.073  0.00  0.00    +0.143 C 
BRANCH  34  35
ATOM     35  C   UNL     1      -3.645  -6.119  -2.098  0.00  0.00    -0.027 A 
ATOM     36  C   UNL     1      -3.746  -4.913  -1.421  0.00  0.00    +0.025 A 
ATOM     37  C   UNL     1      -4.936  -4.212  -1.466  0.00  0.00    +0.111 A 
ATOM     38  N   UNL     1      -5.968  -4.679  -2.142  0.00  0.00    -0.263 NA
ATOM     39  C   UNL     1      -5.909  -5.822  -2.797  0.00  0.00    +0.111 A 
ATOM     40  C   UNL     1      -4.749  -6.574  -2.802  0.00  0.00    +0.025 A 
ENDBRANCH  34  35
ENDBRANCH   3  34
TORSDOF 10
