REMARK  Name = ZINC36593525
REMARK  16 active torsions:
REMARK  status: ('A' for Active; 'I' for Inactive)
REMARK    1  A    between atoms: C_1  and  C_2
REMARK    2  A    between atoms: C_2  and  C_3
REMARK    3  A    between atoms: C_3  and  C_4
REMARK    4  A    between atoms: C_4  and  N_5
REMARK    5  A    between atoms: C_6  and  C_8
REMARK    6  A    between atoms: C_8  and  C_10
REMARK    7  A    between atoms: C_8  and  N_19
REMARK    8  A    between atoms: C_11  and  O_18
REMARK    9  A    between atoms: C_13  and  O_17
REMARK   10  A    between atoms: C_15  and  O_16
REMARK   11  A    between atoms: N_19  and  C_31
REMARK   12  A    between atoms: C_20  and  C_22
REMARK   13  A    between atoms: C_25  and  N_28
REMARK   14  A    between atoms: C_31  and  C_32
REMARK   15  A    between atoms: C_31  and  C_33
REMARK   16  A    between atoms: C_31  and  C_34
REMARK                            x       y       z     vdW  Elec       q    Type
REMARK                         _______ _______ _______ _____ _____    ______ ____
ROOT
ATOM      1  C   UNL     1       0.504  -3.710   2.839  0.00  0.00    +0.200 C 
ENDROOT
BRANCH   1   2
ATOM      2  C   UNL     1      -0.670  -3.384   3.725  0.00  0.00    +0.065 A 
ATOM      3  C   UNL     1      -1.317  -4.395   4.421  0.00  0.00    +0.129 A 
ATOM      4  C   UNL     1      -2.397  -4.095   5.237  0.00  0.00    +0.091 A 
ATOM      5  C   UNL     1      -2.831  -2.784   5.357  0.00  0.00    +0.124 A 
ATOM      6  C   UNL     1      -2.185  -1.772   4.663  0.00  0.00    +0.091 A 
ATOM      7  C   UNL     1      -1.102  -2.072   3.850  0.00  0.00    +0.129 A 
BRANCH   7   8
ATOM      8  O   UNL     1      -0.465  -1.080   3.173  0.00  0.00    -0.506 OA
ATOM      9  H   UNL     1      -0.829  -0.908   2.294  0.00  0.00    +0.292 HD
ENDBRANCH   7   8
BRANCH   5  10
ATOM     10  O   UNL     1      -3.891  -2.490   6.156  0.00  0.00    -0.507 OA
ATOM     11  H   UNL     1      -3.650  -2.286   7.070  0.00  0.00    +0.292 HD
ENDBRANCH   5  10
BRANCH   3  12
ATOM     12  O   UNL     1      -0.891  -5.680   4.303  0.00  0.00    -0.506 OA
ATOM     13  H   UNL     1      -0.175  -5.915   4.909  0.00  0.00    +0.292 HD
ENDBRANCH   3  12
ENDBRANCH   1   2
BRANCH   1  15
ATOM     14  N   UNL     1      -1.013  -3.092   0.986  0.00  0.00    -0.313 N 
ATOM     15  C   UNL     1       0.039  -3.819   1.410  0.00  0.00    +0.238 C 
ATOM     16  O   UNL     1       0.612  -4.562   0.641  0.00  0.00    -0.273 OA
ATOM     17  H   UNL     1      -1.472  -2.498   1.601  0.00  0.00    +0.149 HD
BRANCH  14  18
ATOM     18  C   UNL     1      -1.465  -3.198  -0.404  0.00  0.00    +0.104 C 
BRANCH  18  19
ATOM     19  C   UNL     1      -2.666  -2.275  -0.621  0.00  0.00    +0.018 C 
BRANCH  19  21
ATOM     20  C   UNL     1      -4.339  -1.463  -2.290  0.00  0.00    +0.004 C 
ATOM     21  C   UNL     1      -3.138  -2.386  -2.073  0.00  0.00    -0.002 C 
ENDBRANCH  19  21
ENDBRANCH  18  19
ENDBRANCH  14  18
ENDBRANCH   1  15
BRANCH   1  22
ATOM     22  N   UNL     1       1.094  -4.984   3.259  0.00  0.00    -0.277 N 
ATOM     23  C   UNL     1       1.737  -5.071   4.440  0.00  0.00    +0.248 C 
ATOM     24  O   UNL     1       2.506  -5.990   4.647  0.00  0.00    -0.270 OA
BRANCH  23  25
ATOM     25  C   UNL     1       1.508  -4.050   5.484  0.00  0.00    +0.037 A 
ATOM     26  C   UNL     1       0.886  -2.844   5.160  0.00  0.00    +0.015 A 
ATOM     27  C   UNL     1       0.675  -1.895   6.139  0.00  0.00    +0.033 A 
ATOM     28  C   UNL     1       1.079  -2.137   7.440  0.00  0.00    +0.126 A 
ATOM     29  C   UNL     1       1.697  -3.330   7.768  0.00  0.00    +0.033 A 
ATOM     30  C   UNL     1       1.909  -4.290   6.800  0.00  0.00    +0.015 A 
BRANCH  28  31
ATOM     31  N   UNL     1       0.850  -1.114   8.485  0.00  0.00    +0.056 N 
ATOM     32  O   UNL     1       0.310  -0.070   8.202  0.00  0.00    -0.126 OA
ATOM     33  O   UNL     1       1.202  -1.323   9.623  0.00  0.00    -0.126 OA
ENDBRANCH  28  31
ENDBRANCH  23  25
BRANCH  22  34
ATOM     34  C   UNL     1       0.984  -6.162   2.396  0.00  0.00    +0.030 C 
ATOM     35  C   UNL     1       2.019  -6.069   1.273  0.00  0.00    +0.031 C 
ATOM     36  C   UNL     1       1.239  -7.425   3.221  0.00  0.00    +0.031 C 
ATOM     37  C   UNL     1      -0.420  -6.223   1.792  0.00  0.00    +0.031 C 
ENDBRANCH  22  34
ENDBRANCH   1  22
TORSDOF 12
