REMARK  Name = ZINC27556976
REMARK  7 active torsions:
REMARK  status: ('A' for Active; 'I' for Inactive)
REMARK    1  A    between atoms: C_1  and  C_2
REMARK    2  A    between atoms: C_7  and  S_28
REMARK    3  A    between atoms: N_11  and  C_12
REMARK    4  A    between atoms: C_12  and  C_13
REMARK    5  A    between atoms: N_15  and  C_16
REMARK    6  A    between atoms: C_16  and  C_17
REMARK    7  A    between atoms: S_28  and  N_31
REMARK                            x       y       z     vdW  Elec       q    Type
REMARK                         _______ _______ _______ _____ _____    ______ ____
ROOT
ATOM      1  C   UNL     1      -5.041   3.208   2.450  0.00  0.00    +0.028 C 
ATOM      2  C   UNL     1      -4.959   2.520   3.814  0.00  0.00    +0.075 C 
ATOM      3  C   UNL     1      -6.111   2.986   4.734  0.00  0.00    +0.059 C 
ATOM      4  C   UNL     1      -7.185   1.947   4.482  0.00  0.00    -0.023 A 
ATOM      5  C   UNL     1      -8.537   1.943   4.755  0.00  0.00    +0.034 A 
ATOM      6  C   UNL     1      -9.312   0.853   4.403  0.00  0.00    +0.105 A 
ATOM      7  C   UNL     1      -8.729  -0.233   3.776  0.00  0.00    +0.030 A 
ATOM      8  C   UNL     1      -7.378  -0.235   3.502  0.00  0.00    +0.025 A 
ATOM      9  C   UNL     1      -6.589   0.858   3.857  0.00  0.00    +0.034 A 
ATOM     10  N   UNL     1      -5.215   1.069   3.686  0.00  0.00    -0.318 N 
ENDROOT
BRANCH   6  11
ATOM     11  S   UNL     1     -11.039   0.848   4.753  0.00  0.00    +0.056 S 
ATOM     12  O   UNL     1     -11.436   2.209   4.853  0.00  0.00    -0.153 OA
ATOM     13  O   UNL     1     -11.637  -0.055   3.833  0.00  0.00    -0.153 OA
BRANCH  11  14
ATOM     14  N   UNL     1     -11.232   0.187   6.259  0.00  0.00    -0.204 NA
ATOM     15  H   UNL     1     -12.301   0.166   6.516  0.00  0.00    +0.144 HD
ATOM     16  H   UNL     1     -10.689   0.794   6.998  0.00  0.00    +0.144 HD
ENDBRANCH  11  14
ENDBRANCH   6  11
BRANCH  10  17
ATOM     17  C   UNL     1      -4.764   0.568   2.381  0.00  0.00    +0.201 C 
BRANCH  17  18
ATOM     18  C   UNL     1      -3.297   0.868   2.207  0.00  0.00    +0.230 C 
ATOM     19  O   UNL     1      -2.662   1.341   3.125  0.00  0.00    -0.274 OA
ATOM     20  N   UNL     1      -2.692   0.611   1.031  0.00  0.00    -0.310 N 
ATOM     21  H   UNL     1      -3.268   0.182   0.197  0.00  0.00    +0.149 HD
BRANCH  20  22
ATOM     22  C   UNL     1      -1.266   0.903   0.862  0.00  0.00    +0.152 C 
BRANCH  22  23
ATOM     23  C   UNL     1      -0.831   0.521  -0.554  0.00  0.00    +0.228 C 
ATOM     24  C   UNL     1       0.683   0.721  -0.703  0.00  0.00    +0.275 C 
ATOM     25  O   UNL     1       1.053   0.367  -2.040  0.00  0.00    -0.485 OA
ATOM     26  C   UNL     1       0.274   0.860  -3.041  0.00  0.00    +0.162 A 
ATOM     27  C   UNL     1       0.759   0.868  -4.340  0.00  0.00    +0.049 A 
ATOM     28  C   UNL     1      -0.021   1.364  -5.368  0.00  0.00    +0.004 A 
ATOM     29  C   UNL     1      -1.286   1.854  -5.104  0.00  0.00    +0.004 A 
ATOM     30  C   UNL     1      -1.776   1.849  -3.811  0.00  0.00    +0.049 A 
ATOM     31  C   UNL     1      -0.997   1.354  -2.775  0.00  0.00    +0.163 A 
ATOM     32  O   UNL     1      -1.490   1.363  -1.506  0.00  0.00    -0.480 OA
ENDBRANCH  22  23
ENDBRANCH  20  22
ENDBRANCH  17  18
ENDBRANCH  10  17
TORSDOF 6
