REMARK  Name = ZINC06760361
REMARK  12 active torsions:
REMARK  status: ('A' for Active; 'I' for Inactive)
REMARK    1  A    between atoms: C_1  and  C_2
REMARK    2  A    between atoms: C_2  and  C_3
REMARK    3  A    between atoms: C_3  and  N_4
REMARK    4  A    between atoms: C_12  and  C_14
REMARK    5  A    between atoms: C_12  and  C_15
REMARK    6  A    between atoms: N_18  and  C_21
REMARK    7  A    between atoms: C_21  and  C_22
REMARK    8  A    between atoms: N_24  and  C_25
REMARK    9  A    between atoms: C_25  and  C_26
REMARK   10  A    between atoms: C_26  and  C_27
REMARK   11  A    between atoms: C_27  and  C_28
REMARK   12  A    between atoms: C_28  and  N_59
REMARK                            x       y       z     vdW  Elec       q    Type
REMARK                         _______ _______ _______ _____ _____    ______ ____
ROOT
ATOM      1  N   UNL     1      -3.937  -0.335  -1.208  0.00  0.00    -0.287 N 
ATOM      2  C   UNL     1      -4.489  -0.832  -0.058  0.00  0.00    +0.097 A 
ATOM      3  C   UNL     1      -4.027  -0.437   1.198  0.00  0.00    +0.074 A 
ATOM      4  C   UNL     1      -4.705  -1.043   2.341  0.00  0.00    -0.018 A 
ATOM      5  C   UNL     1      -5.696  -1.913   2.048  0.00  0.00    +0.021 A 
ATOM      6  S   UNL     1      -5.757  -1.950   0.281  0.00  0.00    -0.073 S 
ATOM      7  C   UNL     1      -6.535  -2.661   3.037  0.00  0.00    +0.203 C 
ATOM      8  O   UNL     1      -5.905  -2.547   4.324  0.00  0.00    -0.368 OA
ATOM      9  C   UNL     1      -5.535  -1.208   4.664  0.00  0.00    +0.068 C 
ATOM     10  C   UNL     1      -4.359  -0.749   3.796  0.00  0.00    +0.071 C 
ATOM     11  C   UNL     1      -5.130  -1.153   6.138  0.00  0.00    +0.041 C 
ATOM     12  C   UNL     1      -6.729  -0.280   4.431  0.00  0.00    +0.041 C 
ATOM     13  C   UNL     1      -2.915   0.540   1.194  0.00  0.00    +0.266 A 
ATOM     14  O   UNL     1      -2.446   0.943   2.243  0.00  0.00    -0.267 OA
ATOM     15  N   UNL     1      -2.430   0.977   0.019  0.00  0.00    -0.251 N 
ATOM     16  C   UNL     1      -2.929   0.557  -1.155  0.00  0.00    +0.333 A 
ATOM     17  O   UNL     1      -2.459   0.987  -2.191  0.00  0.00    -0.246 OA
ENDROOT
BRANCH   1  18
ATOM     18  C   UNL     1      -4.451  -0.773  -2.508  0.00  0.00    +0.127 C 
BRANCH  18  20
ATOM     19  C   UNL     1      -6.119  -0.300  -4.307  0.00  0.00    +0.005 C 
ATOM     20  C   UNL     1      -5.582   0.157  -2.950  0.00  0.00    +0.018 C 
ENDBRANCH  18  20
ENDBRANCH   1  18
BRANCH  15  21
ATOM     21  C   UNL     1      -1.330   1.944   0.019  0.00  0.00    +0.225 C 
BRANCH  21  22
ATOM     22  C   UNL     1      -0.014   1.209   0.009  0.00  0.00    +0.233 C 
ATOM     23  O   UNL     1       0.002  -0.004   0.002  0.00  0.00    -0.274 OA
ATOM     24  N   UNL     1       1.143   1.898   0.001  0.00  0.00    -0.314 N 
ATOM     25  H   UNL     1       1.130   2.868   0.007  0.00  0.00    +0.149 HD
BRANCH  24  26
ATOM     26  C   UNL     1       2.422   1.183  -0.015  0.00  0.00    +0.104 C 
BRANCH  26  27
ATOM     27  C   UNL     1       3.571   2.193  -0.020  0.00  0.00    +0.017 C 
BRANCH  27  28
ATOM     28  C   UNL     1       4.907   1.446  -0.037  0.00  0.00    -0.018 C 
BRANCH  28  29
ATOM     29  C   UNL     1       6.056   2.456  -0.043  0.00  0.00    -0.086 C 
BRANCH  29  32
ATOM     30  H   UNL     1       8.113   2.385  -0.063  0.00  0.00    -0.090 HD
ATOM     31  H   UNL     1       7.404   1.099   0.719  0.00  0.00    -0.090 HD
ATOM     32  N   UNL     1       7.336   1.727  -0.081  0.00  0.00    +0.378 N 
ATOM     33  H   UNL     1       7.384   1.175  -0.945  0.00  0.00    -0.090 HD
ENDBRANCH  29  32
ENDBRANCH  28  29
ENDBRANCH  27  28
ENDBRANCH  26  27
ENDBRANCH  24  26
ENDBRANCH  21  22
ENDBRANCH  15  21
TORSDOF 9
