REMARK  Name = ZINC03192450
REMARK  8 active torsions:
REMARK  status: ('A' for Active; 'I' for Inactive)
REMARK    1  A    between atoms: C_1  and  C_2
REMARK    2  A    between atoms: C_2  and  N_3
REMARK    3  A    between atoms: N_3  and  N_4
REMARK    4  A    between atoms: C_5  and  C_7
REMARK    5  A    between atoms: C_7  and  C_8
REMARK    6  A    between atoms: C_7  and  C_14
REMARK    7  A    between atoms: C_20  and  C_21
REMARK    8  A    between atoms: N_23  and  C_24
REMARK                            x       y       z     vdW  Elec       q    Type
REMARK                         _______ _______ _______ _____ _____    ______ ____
ROOT
ATOM      1  N   UNL     1      -5.598  -4.008  -0.619  0.00  0.00    -0.269 N 
ATOM      2  H   UNL     1      -6.698  -4.034  -0.616  0.00  0.00    +0.170 HD
ENDROOT
BRANCH   1   3
ATOM      3  N   UNL     1      -4.870  -5.205  -0.638  0.00  0.00    -0.236 N 
ATOM      4  C   UNL     1      -5.517  -6.388  -0.654  0.00  0.00    +0.241 C 
ATOM      5  O   UNL     1      -6.730  -6.415  -0.651  0.00  0.00    -0.273 OA
ATOM      6  H   UNL     1      -3.771  -5.180  -0.641  0.00  0.00    +0.173 HD
BRANCH   4   7
ATOM      7  C   UNL     1      -4.734  -7.675  -0.675  0.00  0.00    +0.136 C 
BRANCH   7   8
ATOM      8  C   UNL     1      -5.687  -8.842  -0.689  0.00  0.00    -0.031 A 
ATOM      9  C   UNL     1      -6.693  -8.902  -1.636  0.00  0.00    +0.005 A 
ATOM     10  C   UNL     1      -7.564  -9.975  -1.652  0.00  0.00    +0.000 A 
ATOM     11  C   UNL     1      -7.435 -10.984  -0.715  0.00  0.00    +0.000 A 
ATOM     12  C   UNL     1      -6.433 -10.921   0.234  0.00  0.00    +0.000 A 
ATOM     13  C   UNL     1      -5.559  -9.851   0.247  0.00  0.00    +0.005 A 
ENDBRANCH   7   8
BRANCH   7  14
ATOM     14  C   UNL     1      -3.870  -7.717  -1.909  0.00  0.00    -0.031 A 
ATOM     15  C   UNL     1      -4.434  -7.519  -3.155  0.00  0.00    +0.005 A 
ATOM     16  C   UNL     1      -3.640  -7.553  -4.286  0.00  0.00    +0.000 A 
ATOM     17  C   UNL     1      -2.284  -7.794  -4.172  0.00  0.00    +0.000 A 
ATOM     18  C   UNL     1      -1.720  -7.997  -2.926  0.00  0.00    +0.000 A 
ATOM     19  C   UNL     1      -2.513  -7.958  -1.794  0.00  0.00    +0.005 A 
ENDBRANCH   7  14
ENDBRANCH   4   7
ENDBRANCH   1   3
BRANCH   1  21
ATOM     20  C   UNL     1      -3.477  -2.851  -0.608  0.00  0.00    +0.062 C 
ATOM     21  C   UNL     1      -4.984  -2.886  -0.604  0.00  0.00    +0.024 C 
ATOM     22  C   UNL     1      -5.767  -1.598  -0.583  0.00  0.00    +0.087 C 
BRANCH  22  23
ATOM     23  C   UNL     1      -4.815  -0.431  -0.569  0.00  0.00    +0.243 C 
ATOM     24  O   UNL     1      -3.617  -0.625  -0.575  0.00  0.00    -0.270 OA
ATOM     25  N   UNL     1      -5.293   0.829  -0.549  0.00  0.00    -0.282 N 
ATOM     26  H   UNL     1      -6.375   1.005  -0.453  0.00  0.00    +0.155 HD
BRANCH  25  27
ATOM     27  C   UNL     1      -4.414   1.913  -0.650  0.00  0.00    +0.037 A 
ATOM     28  C   UNL     1      -3.183   1.746  -1.266  0.00  0.00    +0.023 A 
ATOM     29  C   UNL     1      -2.319   2.819  -1.369  0.00  0.00    +0.002 A 
ATOM     30  C   UNL     1      -2.683   4.046  -0.853  0.00  0.00    +0.004 A 
ATOM     31  C   UNL     1      -3.913   4.217  -0.230  0.00  0.00    -0.042 A 
ATOM     32  C   UNL     1      -4.779   3.153  -0.127  0.00  0.00    -0.023 A 
ATOM     33  C   UNL     1      -6.131   3.268   0.528  0.00  0.00    +0.037 C 
ATOM     34  C   UNL     1      -6.200   4.519   1.401  0.00  0.00    +0.005 C 
ATOM     35  C   UNL     1      -5.739   5.719   0.565  0.00  0.00    +0.005 C 
ATOM     36  C   UNL     1      -4.238   5.583   0.316  0.00  0.00    +0.035 C 
ENDBRANCH  25  27
ENDBRANCH  22  23
ENDBRANCH   1  21
TORSDOF 7
