REMARK  Name = ZINC40061386
REMARK  5 active torsions:
REMARK  status: ('A' for Active; 'I' for Inactive)
REMARK    1  A    between atoms: C_7  and  C_10
REMARK    2  A    between atoms: C_10  and  C_12
REMARK    3  A    between atoms: C_10  and  C_28
REMARK    4  A    between atoms: C_12  and  N_13
REMARK    5  A    between atoms: C_14  and  C_16
REMARK                            x       y       z     vdW  Elec       q    Type
REMARK                         _______ _______ _______ _____ _____    ______ ____
ROOT
ATOM      1  C   UNL     1      -4.358   3.151   0.060  0.00  0.00    +0.069 C 
ENDROOT
BRANCH   1   8
ATOM      2  C   UNL     1      -0.017   1.384   0.010  0.00  0.00    +0.001 A 
ATOM      3  C   UNL     1       0.002  -0.004   0.002  0.00  0.00    +0.002 A 
ATOM      4  C   UNL     1      -1.173  -0.723   0.009  0.00  0.00    +0.026 A 
ATOM      5  C   UNL     1      -2.392  -0.053   0.024  0.00  0.00    +0.047 A 
ATOM      6  N   UNL     1      -3.704  -0.472   0.034  0.00  0.00    -0.360 N 
ATOM      7  C   UNL     1      -4.539   0.612   0.047  0.00  0.00    +0.088 A 
ATOM      8  C   UNL     1      -3.818   1.744   0.047  0.00  0.00    -0.013 A 
ATOM      9  C   UNL     1      -2.406   1.353   0.032  0.00  0.00    +0.003 A 
ATOM     10  C   UNL     1      -1.203   2.062   0.030  0.00  0.00    +0.010 A 
ATOM     11  H   UNL     1      -3.993  -1.398   0.030  0.00  0.00    +0.165 HD
ENDBRANCH   1   8
BRANCH   1  12
ATOM     12  C   UNL     1      -5.190   3.359   1.299  0.00  0.00    -0.020 A 
ATOM     13  C   UNL     1      -6.301   2.567   1.527  0.00  0.00    +0.006 A 
ATOM     14  C   UNL     1      -7.064   2.757   2.663  0.00  0.00    +0.000 A 
ATOM     15  C   UNL     1      -6.717   3.739   3.573  0.00  0.00    +0.001 A 
ATOM     16  C   UNL     1      -5.608   4.531   3.346  0.00  0.00    +0.020 A 
ATOM     17  C   UNL     1      -4.840   4.337   2.212  0.00  0.00    +0.045 A 
ATOM     18 CL   UNL     1      -3.442   5.327   1.930  0.00  0.00    -0.083 Cl
ENDBRANCH   1  12
BRANCH   1  19
ATOM     19  C   UNL     1      -5.226   3.375  -1.180  0.00  0.00    +0.117 C 
BRANCH  19  20
ATOM     20  N   UNL     1      -5.654   4.775  -1.231  0.00  0.00    -0.311 N 
ATOM     21  C   UNL     1      -6.432   5.206  -2.243  0.00  0.00    +0.254 C 
ATOM     22  O   UNL     1      -6.778   4.435  -3.113  0.00  0.00    -0.272 OA
ATOM     23  H   UNL     1      -5.377   5.392  -0.535  0.00  0.00    +0.149 HD
BRANCH  21  24
ATOM     24  C   UNL     1      -6.872   6.647  -2.295  0.00  0.00    +0.266 C 
ATOM     25  C   UNL     1      -5.646   7.550  -2.490  0.00  0.00    +0.134 C 
ATOM     26  C   UNL     1      -6.150   8.980  -2.568  0.00  0.00    +0.171 C 
ATOM     27  O   UNL     1      -5.559   9.896  -2.036  0.00  0.00    -0.292 OA
ATOM     28  C   UNL     1      -7.396   9.198  -3.325  0.00  0.00    +0.059 A 
ATOM     29  C   UNL     1      -7.807  10.487  -3.667  0.00  0.00    +0.015 A 
ATOM     30  C   UNL     1      -8.979  10.664  -4.370  0.00  0.00    +0.001 A 
ATOM     31  C   UNL     1      -9.746   9.568  -4.735  0.00  0.00    +0.004 A 
ATOM     32  C   UNL     1      -9.348   8.288  -4.404  0.00  0.00    +0.046 A 
ATOM     33  C   UNL     1      -8.168   8.086  -3.699  0.00  0.00    +0.132 A 
ATOM     34  O   UNL     1      -7.774   6.830  -3.386  0.00  0.00    -0.478 OA
ENDBRANCH  21  24
ENDBRANCH  19  20
ENDBRANCH   1  19
TORSDOF 5
