REMARK  Name = ZINC00649782
REMARK  16 active torsions:
REMARK  status: ('A' for Active; 'I' for Inactive)
REMARK    1  A    between atoms: C_1  and  C_2
REMARK    2  A    between atoms: C_2  and  O_3
REMARK    3  A    between atoms: O_3  and  C_4
REMARK    4  A    between atoms: C_4  and  C_6
REMARK    5  A    between atoms: C_7  and  C_41
REMARK    6  A    between atoms: C_11  and  C_13
REMARK    7  A    between atoms: C_16  and  O_21
REMARK    8  A    between atoms: C_17  and  O_19
REMARK    9  A    between atoms: O_19  and  C_20
REMARK   10  A    between atoms: O_21  and  C_22
REMARK   11  A    between atoms: C_22  and  C_24
REMARK   12  A    between atoms: C_28  and  C_31
REMARK   13  A    between atoms: C_34  and  O_39
REMARK   14  A    between atoms: C_35  and  O_37
REMARK   15  A    between atoms: O_37  and  C_38
REMARK   16  A    between atoms: O_39  and  C_40
REMARK                            x       y       z     vdW  Elec       q    Type
REMARK                         _______ _______ _______ _____ _____    ______ ____
ROOT
ATOM      1  C   UNL     1      -2.916  -2.530   0.072  0.00  0.00    +0.065 C 
ATOM      2  C   UNL     1      -3.192  -3.803  -0.259  0.00  0.00    +0.016 C 
ATOM      3  N   UNL     1      -4.487  -4.233  -0.336  0.00  0.00    -0.321 N 
ATOM      4  C   UNL     1      -5.491  -3.539   0.285  0.00  0.00    +0.016 C 
ATOM      5  C   UNL     1      -5.314  -2.249   0.638  0.00  0.00    +0.024 C 
ATOM      6  C   UNL     1      -4.011  -1.546   0.362  0.00  0.00    +0.092 C 
ATOM      7  C   UNL     1      -6.337  -1.524   1.274  0.00  0.00    +0.162 C 
ATOM      8  O   UNL     1      -6.140  -0.368   1.593  0.00  0.00    -0.292 OA
ATOM      9  C   UNL     1      -7.673  -2.153   1.565  0.00  0.00    +0.088 C 
ATOM     10  C   UNL     1      -7.945  -3.247   0.527  0.00  0.00    +0.032 C 
ATOM     11  C   UNL     1      -6.791  -4.251   0.567  0.00  0.00    +0.059 C 
ATOM     12  C   UNL     1      -2.066  -4.763  -0.546  0.00  0.00    +0.061 C 
ATOM     13  H   UNL     1      -4.697  -5.038  -0.836  0.00  0.00    +0.152 HD
ENDROOT
BRANCH   6  14
ATOM     14  C   UNL     1      -4.187  -0.637  -0.827  0.00  0.00    -0.032 A 
ATOM     15  C   UNL     1      -4.532  -1.169  -2.056  0.00  0.00    +0.008 A 
ATOM     16  C   UNL     1      -4.695  -0.340  -3.150  0.00  0.00    +0.050 A 
ATOM     17  C   UNL     1      -4.513   1.028  -3.017  0.00  0.00    +0.173 A 
ATOM     18  C   UNL     1      -4.167   1.563  -1.780  0.00  0.00    +0.163 A 
ATOM     19  C   UNL     1      -4.010   0.726  -0.686  0.00  0.00    +0.054 A 
BRANCH  18  20
ATOM     20  O   UNL     1      -3.987   2.904  -1.643  0.00  0.00    -0.491 OA
ATOM     21  C   UNL     1      -3.633   3.382  -0.344  0.00  0.00    +0.277 C 
ENDBRANCH  18  20
BRANCH  17  22
ATOM     22  O   UNL     1      -4.673   1.845  -4.092  0.00  0.00    -0.422 OA
BRANCH  22  23
ATOM     23  C   UNL     1      -3.577   2.209  -4.775  0.00  0.00    +0.309 C 
ATOM     24  O   UNL     1      -2.482   1.889  -4.376  0.00  0.00    -0.251 OA
ATOM     25  C   UNL     1      -3.711   3.017  -6.040  0.00  0.00    +0.136 C 
ENDBRANCH  22  23
ENDBRANCH  17  22
ENDBRANCH   6  14
BRANCH  10  26
ATOM     26  C   UNL     1      -9.240  -3.945   0.855  0.00  0.00    -0.040 A 
ATOM     27  C   UNL     1      -9.389  -4.588   2.070  0.00  0.00    +0.008 A 
ATOM     28  C   UNL     1     -10.575  -5.229   2.375  0.00  0.00    +0.049 A 
ATOM     29  C   UNL     1     -11.618  -5.228   1.463  0.00  0.00    +0.161 A 
ATOM     30  C   UNL     1     -11.468  -4.581   0.240  0.00  0.00    +0.162 A 
ATOM     31  C   UNL     1     -10.278  -3.936  -0.057  0.00  0.00    +0.053 A 
BRANCH  30  32
ATOM     32  O   UNL     1     -12.489  -4.577  -0.658  0.00  0.00    -0.491 OA
ATOM     33  C   UNL     1     -12.264  -3.893  -1.893  0.00  0.00    +0.277 C 
ENDBRANCH  30  32
BRANCH  29  34
ATOM     34  O   UNL     1     -12.785  -5.859   1.762  0.00  0.00    -0.491 OA
ATOM     35  C   UNL     1     -12.867  -6.503   3.035  0.00  0.00    +0.277 C 
ENDBRANCH  29  34
ENDBRANCH  10  26
BRANCH   1  36
ATOM     36  C   UNL     1      -1.567  -2.111   0.154  0.00  0.00    +0.338 C 
ATOM     37  O   UNL     1      -0.671  -2.931   0.083  0.00  0.00    -0.245 OA
BRANCH  36  38
ATOM     38  O   UNL     1      -1.275  -0.803   0.313  0.00  0.00    -0.462 OA
BRANCH  38  40
ATOM     39  C   UNL     1       0.240   1.062   0.566  0.00  0.00    +0.048 C 
ATOM     40  C   UNL     1       0.108  -0.452   0.388  0.00  0.00    +0.229 C 
ENDBRANCH  38  40
ENDBRANCH  36  38
ENDBRANCH   1  36
TORSDOF 10
