REMARK  Name = ZINC47118082
REMARK  6 active torsions:
REMARK  status: ('A' for Active; 'I' for Inactive)
REMARK    1  A    between atoms: C_1  and  C_2
REMARK    2  A    between atoms: C_2  and  N_9
REMARK    3  A    between atoms: N_9  and  N_10
REMARK    4  A    between atoms: N_13  and  C_14
REMARK    5  A    between atoms: C_14  and  C_16
REMARK    6  A    between atoms: C_14  and  C_22
REMARK                            x       y       z     vdW  Elec       q    Type
REMARK                         _______ _______ _______ _____ _____    ______ ____
ROOT
ATOM      1  N   UNL     1       0.140   0.002  -2.331  0.00  0.00    -0.234 N 
ATOM      2  C   UNL     1       0.663  -0.308  -3.534  0.00  0.00    +0.314 C 
ATOM      3  O   UNL     1       0.136   0.101  -4.550  0.00  0.00    -0.252 OA
ATOM      4  N   UNL     1       1.772  -1.070  -3.610  0.00  0.00    -0.288 N 
ATOM      5  H   UNL     1      -0.658   0.551  -2.276  0.00  0.00    +0.171 HD
ATOM      6  H   UNL     1       2.193  -1.396  -2.799  0.00  0.00    +0.151 HD
ENDROOT
BRANCH   1   7
ATOM      7  N   UNL     1       0.733  -0.457  -1.189  0.00  0.00    -0.232 NA
ATOM      8  H   UNL     1       1.701  -0.177  -1.147  0.00  0.00    +0.145 HD
BRANCH   7  10
ATOM      9  C   UNL     1      -0.019   1.526   0.010  0.00  0.00    +0.031 C 
ATOM     10  C   UNL     1       0.002  -0.004   0.002  0.00  0.00    +0.054 C 
ATOM     11  C   UNL     1      -1.436  -0.513  -0.087  0.00  0.00    +0.047 C 
ATOM     12  C   UNL     1      -1.556  -1.909   0.586  0.00  0.00    +0.168 C 
ATOM     13  S   UNL     1      -0.454  -1.644   2.043  0.00  0.00    -0.029 S 
ATOM     14  O   UNL     1      -1.172  -0.949   3.053  0.00  0.00    -0.174 OA
ATOM     15  O   UNL     1       0.202  -2.864   2.361  0.00  0.00    -0.174 OA
ATOM     16  C   UNL     1       0.751  -0.495   1.257  0.00  0.00    +0.189 C 
ENDBRANCH   7  10
ENDBRANCH   1   7
BRANCH   4  17
ATOM     17  C   UNL     1       2.341  -1.406  -4.917  0.00  0.00    +0.135 C 
BRANCH  17  18
ATOM     18  C   UNL     1       3.130  -2.686  -4.807  0.00  0.00    -0.023 A 
ATOM     19  C   UNL     1       3.911  -2.922  -3.691  0.00  0.00    +0.008 A 
ATOM     20  C   UNL     1       4.634  -4.095  -3.589  0.00  0.00    +0.038 A 
ATOM     21  C   UNL     1       4.577  -5.034  -4.605  0.00  0.00    +0.123 A 
ATOM     22  C   UNL     1       3.794  -4.796  -5.723  0.00  0.00    +0.038 A 
ATOM     23  C   UNL     1       3.068  -3.625  -5.820  0.00  0.00    +0.008 A 
ATOM     24  F   UNL     1       5.284  -6.181  -4.507  0.00  0.00    -0.205 F 
ENDBRANCH  17  18
BRANCH  17  25
ATOM     25  C   UNL     1       3.251  -0.293  -5.371  0.00  0.00    -0.023 A 
ATOM     26  C   UNL     1       4.083   0.333  -4.462  0.00  0.00    +0.006 A 
ATOM     27  C   UNL     1       4.917   1.353  -4.878  0.00  0.00    +0.000 A 
ATOM     28  C   UNL     1       4.919   1.748  -6.203  0.00  0.00    +0.000 A 
ATOM     29  C   UNL     1       4.086   1.122  -7.112  0.00  0.00    +0.000 A 
ATOM     30  C   UNL     1       3.256   0.098  -6.696  0.00  0.00    +0.006 A 
ENDBRANCH  17  25
ENDBRANCH   4  17
TORSDOF 5
