REMARK  Name = ZINC13495909
REMARK  13 active torsions:
REMARK  status: ('A' for Active; 'I' for Inactive)
REMARK    1  A    between atoms: C_1  and  C_2
REMARK    2  A    between atoms: C_2  and  C_3
REMARK    3  A    between atoms: C_3  and  C_5
REMARK    4  A    between atoms: C_3  and  N_78
REMARK    5  A    between atoms: N_9  and  C_10
REMARK    6  A    between atoms: C_16  and  C_17
REMARK    7  A    between atoms: C_16  and  N_78
REMARK    8  A    between atoms: C_17  and  C_18
REMARK    9  A    between atoms: C_23  and  C_24
REMARK   10  A    between atoms: C_25  and  C_26
REMARK   11  A    between atoms: C_25  and  N_78
REMARK   12  A    between atoms: C_30  and  C_39
REMARK   13  A    between atoms: C_32  and  C_38
REMARK                            x       y       z     vdW  Elec       q    Type
REMARK                         _______ _______ _______ _____ _____    ______ ____
ROOT
ATOM      1  N   UNL     1      -3.312   2.784   1.508  0.00  0.00    +0.389 N 
ATOM      2  H   UNL     1      -4.066   2.157   1.206  0.00  0.00    -0.080 HD
ENDROOT
BRANCH   1   3
ATOM      3  C   UNL     1      -3.369   4.025   0.706  0.00  0.00    +0.003 C 
BRANCH   3   4
ATOM      4  C   UNL     1      -2.434   5.063   1.271  0.00  0.00    +0.138 A 
ATOM      5  N   UNL     1      -2.269   5.361   2.537  0.00  0.00    -0.115 NA
ATOM      6  N   UNL     1      -1.384   6.295   2.614  0.00  0.00    -0.023 NA
ATOM      7  N   UNL     1      -0.987   6.605   1.429  0.00  0.00    -0.044 NA
ATOM      8  N   UNL     1      -1.611   5.868   0.574  0.00  0.00    -0.228 N 
BRANCH   8   9
ATOM      9  C   UNL     1      -1.453   5.900  -0.882  0.00  0.00    +0.111 C 
ATOM     10  C   UNL     1      -0.018   5.516  -1.248  0.00  0.00    +0.027 C 
ATOM     11  C   UNL     1       0.148   5.550  -2.768  0.00  0.00    +0.002 C 
ATOM     12  C   UNL     1      -0.150   6.960  -3.283  0.00  0.00    +0.000 C 
ATOM     13  C   UNL     1      -1.585   7.343  -2.917  0.00  0.00    +0.002 C 
ATOM     14  C   UNL     1      -1.750   7.310  -1.396  0.00  0.00    +0.027 C 
ENDBRANCH   8   9
ENDBRANCH   3   4
BRANCH   3  16
ATOM     15  C   UNL     1      -5.731   3.566   0.034  0.00  0.00    +0.002 C 
ATOM     16  C   UNL     1      -4.801   4.561   0.730  0.00  0.00    -0.011 C 
ENDBRANCH   3  16
ENDBRANCH   1   3
BRANCH   1  17
ATOM     17  C   UNL     1      -2.013   2.109   1.301  0.00  0.00    -0.073 C 
BRANCH  17  18
ATOM     18  C   UNL     1      -2.002   1.484  -0.096  0.00  0.00    +0.017 C 
BRANCH  18  19
ATOM     19  C   UNL     1      -0.723   0.709  -0.288  0.00  0.00    -0.046 A 
ATOM     20  C   UNL     1       0.375   1.320  -0.864  0.00  0.00    +0.004 A 
ATOM     21  C   UNL     1       1.546   0.608  -1.047  0.00  0.00    +0.000 A 
ATOM     22  C   UNL     1       1.618  -0.716  -0.653  0.00  0.00    +0.000 A 
ATOM     23  C   UNL     1       0.520  -1.326  -0.077  0.00  0.00    +0.003 A 
ATOM     24  C   UNL     1      -0.651  -0.614   0.105  0.00  0.00    -0.047 A 
ATOM     25  C   UNL     1      -1.848  -1.280   0.733  0.00  0.00    +0.044 C 
ENDBRANCH  18  19
ENDBRANCH  17  18
ENDBRANCH   1  17
BRANCH   1  26
ATOM     26  C   UNL     1      -3.494   3.100   2.940  0.00  0.00    -0.037 C 
BRANCH  26  27
ATOM     27  C   UNL     1      -3.912   1.844   3.662  0.00  0.00    +0.001 A 
ATOM     28  C   UNL     1      -2.979   1.080   4.282  0.00  0.00    +0.017 A 
ATOM     29  C   UNL     1      -3.418  -0.131   4.978  0.00  0.00    -0.001 A 
ATOM     30  C   UNL     1      -2.503  -0.958   5.638  0.00  0.00    +0.013 A 
ATOM     31  C   UNL     1      -2.944  -2.084   6.273  0.00  0.00    -0.050 A 
ATOM     32  C   UNL     1      -4.292  -2.416   6.268  0.00  0.00    +0.008 A 
ATOM     33  C   UNL     1      -5.211  -1.617   5.625  0.00  0.00    -0.026 A 
ATOM     34  C   UNL     1      -4.785  -0.465   4.971  0.00  0.00    +0.052 A 
ATOM     35  N   UNL     1      -5.683   0.353   4.317  0.00  0.00    -0.322 N 
ATOM     36  H   UNL     1      -6.625   0.122   4.313  0.00  0.00    +0.169 HD
ATOM     37  C   UNL     1      -5.271   1.465   3.684  0.00  0.00    +0.251 A 
ATOM     38  O   UNL     1      -6.092   2.164   3.116  0.00  0.00    -0.268 OA
ATOM     39  C   UNL     1      -6.671  -1.989   5.628  0.00  0.00    +0.046 C 
ATOM     40  C   UNL     1      -1.958  -2.974   6.985  0.00  0.00    +0.044 C 
ENDBRANCH  26  27
ENDBRANCH   1  26
TORSDOF 9
