REMARK  Name = ZINC39856026
REMARK  9 active torsions:
REMARK  status: ('A' for Active; 'I' for Inactive)
REMARK    1  A    between atoms: C_1  and  C_2
REMARK    2  A    between atoms: C_6  and  C_7
REMARK    3  A    between atoms: C_7  and  O_9
REMARK    4  A    between atoms: O_9  and  C_10
REMARK    5  A    between atoms: C_13  and  C_16
REMARK    6  A    between atoms: C_19  and  C_22
REMARK    7  A    between atoms: C_25  and  C_33
REMARK    8  A    between atoms: C_25  and  C_34
REMARK    9  A    between atoms: N_28  and  N_29
REMARK                            x       y       z     vdW  Elec       q    Type
REMARK                         _______ _______ _______ _____ _____    ______ ____
ROOT
ATOM      1  C   UNL     1       0.108   1.494   0.003  0.00  0.00    +0.048 C 
ATOM      2  C   UNL     1       0.079  -0.013  -0.002  0.00  0.00    +0.011 A 
ATOM      3  C   UNL     1       0.070  -0.850  -1.123  0.00  0.00    +0.043 A 
ATOM      4  C   UNL     1       0.041  -2.148  -0.670  0.00  0.00    +0.116 A 
ATOM      5  O   UNL     1       0.037  -2.119   0.660  0.00  0.00    -0.452 OA
ATOM      6  C   UNL     1       0.064  -0.837   1.090  0.00  0.00    +0.215 A 
ATOM      7  C   UNL     1       0.018  -3.339  -1.594  0.00  0.00    +0.081 C 
ATOM      8  C   UNL     1      -0.479  -2.902  -2.975  0.00  0.00    -0.023 C 
ATOM      9  C   UNL     1       0.336  -1.712  -3.491  0.00  0.00    +0.064 C 
ATOM     10  C   UNL     1       0.087  -0.528  -2.568  0.00  0.00    +0.073 C 
ATOM     11  N   UNL     1      -0.098   0.676  -3.015  0.00  0.00    -0.175 NA
ATOM     12  C   UNL     1      -0.340  -4.070  -3.954  0.00  0.00    +0.011 C 
ATOM     13  C   UNL     1      -1.952  -2.500  -2.877  0.00  0.00    +0.011 C 
ENDROOT
BRANCH  11  14
ATOM     14  N   UNL     1      -0.071   0.923  -4.393  0.00  0.00    -0.248 N 
ATOM     15  C   UNL     1      -0.266   2.194  -4.865  0.00  0.00    +0.187 C 
ATOM     16  N   UNL     1      -0.241   2.429  -6.176  0.00  0.00    -0.370 N 
ATOM     17  N   UNL     1      -0.481   3.195  -4.012  0.00  0.00    -0.370 N 
ATOM     18  H   UNL     1       0.085   0.194  -5.014  0.00  0.00    +0.192 HD
ATOM     19  H   UNL     1      -0.085   1.700  -6.797  0.00  0.00    +0.159 HD
ATOM     20  H   UNL     1      -0.499   3.024  -3.058  0.00  0.00    +0.159 HD
ATOM     21  H   UNL     1      -0.619   4.096  -4.346  0.00  0.00    +0.159 HD
ATOM     22  H   UNL     1      -0.379   3.329  -6.510  0.00  0.00    +0.159 HD
ENDBRANCH  11  14
BRANCH   6  23
ATOM     23  C   UNL     1       0.072  -0.404   2.490  0.00  0.00    +0.380 C 
ATOM     24  O   UNL     1       0.094   0.782   2.759  0.00  0.00    -0.241 OA
BRANCH  23  25
ATOM     25  O   UNL     1       0.054  -1.320   3.480  0.00  0.00    -0.420 OA
BRANCH  25  26
ATOM     26  C   UNL     1       0.165  -0.878   4.760  0.00  0.00    +0.132 A 
ATOM     27  C   UNL     1      -0.930  -0.306   5.393  0.00  0.00    +0.047 A 
ATOM     28  C   UNL     1      -0.821   0.143   6.691  0.00  0.00    +0.012 A 
ATOM     29  C   UNL     1       0.392   0.022   7.370  0.00  0.00    -0.018 A 
ATOM     30  C   UNL     1       1.490  -0.553   6.731  0.00  0.00    +0.012 A 
ATOM     31  C   UNL     1       1.372  -1.005   5.434  0.00  0.00    +0.047 A 
BRANCH  29  32
ATOM     32  C   UNL     1       0.513   0.505   8.766  0.00  0.00    -0.018 A 
ATOM     33  C   UNL     1      -0.589   1.075   9.405  0.00  0.00    +0.010 A 
ATOM     34  C   UNL     1      -0.478   1.524  10.701  0.00  0.00    +0.019 A 
ATOM     35  C   UNL     1       0.740   1.407  11.378  0.00  0.00    +0.052 A 
ATOM     36  C   UNL     1       1.842   0.835  10.738  0.00  0.00    +0.019 A 
ATOM     37  C   UNL     1       1.727   0.383   9.443  0.00  0.00    +0.010 A 
BRANCH  35  38
ATOM     38  C   UNL     1       0.857   1.873  12.727  0.00  0.00    +0.099 C 
ATOM     39  N   UNL     1       0.950   2.244  13.797  0.00  0.00    -0.191 NA
ENDBRANCH  35  38
ENDBRANCH  29  32
ENDBRANCH  25  26
ENDBRANCH  23  25
ENDBRANCH   6  23
TORSDOF 6
