REMARK  Name = ZINC36610413
REMARK  16 active torsions:
REMARK  status: ('A' for Active; 'I' for Inactive)
REMARK    1  A    between atoms: C_1  and  C_2
REMARK    2  A    between atoms: C_2  and  C_3
REMARK    3  A    between atoms: C_2  and  C_4
REMARK    4  A    between atoms: C_2  and  C_5
REMARK    5  A    between atoms: C_5  and  C_6
REMARK    6  A    between atoms: C_6  and  C_7
REMARK    7  A    between atoms: C_6  and  C_8
REMARK    8  A    between atoms: C_6  and  N_9
REMARK    9  A    between atoms: C_10  and  C_12
REMARK   10  A    between atoms: C_12  and  C_14
REMARK   11  A    between atoms: C_12  and  N_23
REMARK   12  A    between atoms: C_17  and  N_20
REMARK   13  A    between atoms: N_23  and  C_24
REMARK   14  A    between atoms: C_30  and  C_32
REMARK   15  A    between atoms: C_36  and  O_39
REMARK   16  A    between atoms: C_37  and  O_38
REMARK                            x       y       z     vdW  Elec       q    Type
REMARK                         _______ _______ _______ _____ _____    ______ ____
ROOT
ATOM      1  C   UNL     1       4.754  -0.147  -4.126  0.00  0.00    +0.197 C 
ENDROOT
BRANCH   1   2
ATOM      2  C   UNL     1       4.619  -1.617  -4.429  0.00  0.00    -0.018 A 
ATOM      3  C   UNL     1       5.479  -2.526  -3.842  0.00  0.00    +0.008 A 
ATOM      4  C   UNL     1       5.356  -3.874  -4.120  0.00  0.00    +0.033 A 
ATOM      5  C   UNL     1       4.372  -4.314  -4.986  0.00  0.00    +0.126 A 
ATOM      6  C   UNL     1       3.511  -3.405  -5.573  0.00  0.00    +0.033 A 
ATOM      7  C   UNL     1       3.632  -2.057  -5.291  0.00  0.00    +0.008 A 
BRANCH   5   8
ATOM      8  N   UNL     1       4.240  -5.758  -5.285  0.00  0.00    +0.056 N 
ATOM      9  O   UNL     1       4.993  -6.552  -4.772  0.00  0.00    -0.126 OA
ATOM     10  O   UNL     1       3.379  -6.142  -6.043  0.00  0.00    -0.126 OA
ENDBRANCH   5   8
ENDBRANCH   1   2
BRANCH   1  12
ATOM     11  N   UNL     1       3.046  -0.179  -2.337  0.00  0.00    -0.308 N 
ATOM     12  C   UNL     1       4.306   0.117  -2.711  0.00  0.00    +0.239 C 
ATOM     13  O   UNL     1       5.080   0.595  -1.909  0.00  0.00    -0.273 OA
ATOM     14  H   UNL     1       2.427  -0.561  -2.979  0.00  0.00    +0.149 HD
BRANCH  11  15
ATOM     15  C   UNL     1       2.610   0.077  -0.962  0.00  0.00    +0.030 C 
ATOM     16  C   UNL     1       2.895   1.537  -0.601  0.00  0.00    +0.031 C 
ATOM     17  C   UNL     1       3.372  -0.843  -0.006  0.00  0.00    +0.031 C 
BRANCH  15  18
ATOM     18  C   UNL     1       1.109  -0.194  -0.844  0.00  0.00    +0.031 C 
BRANCH  18  20
ATOM     19  C   UNL     1       0.513  -0.572  -3.240  0.00  0.00    +0.010 C 
ATOM     20  C   UNL     1       0.388   0.392  -2.059  0.00  0.00    -0.036 C 
ATOM     21  C   UNL     1       1.019   1.736  -2.428  0.00  0.00    +0.010 C 
ATOM     22  C   UNL     1      -1.091   0.598  -1.724  0.00  0.00    +0.010 C 
ENDBRANCH  18  20
ENDBRANCH  15  18
ENDBRANCH  11  15
ENDBRANCH   1  12
BRANCH   1  23
ATOM     23  N   UNL     1       6.154   0.257  -4.278  0.00  0.00    -0.251 N 
ATOM     24  C   UNL     1       6.507   1.545  -4.102  0.00  0.00    +0.255 C 
ATOM     25  O   UNL     1       7.658   1.891  -4.286  0.00  0.00    -0.269 OA
BRANCH  23  26
ATOM     26  C   UNL     1       7.125  -0.696  -4.606  0.00  0.00    +0.038 A 
ATOM     27  C   UNL     1       7.090  -1.327  -5.843  0.00  0.00    +0.023 A 
ATOM     28  C   UNL     1       8.049  -2.267  -6.164  0.00  0.00    +0.002 A 
ATOM     29  C   UNL     1       9.045  -2.579  -5.256  0.00  0.00    +0.000 A 
ATOM     30  C   UNL     1       9.082  -1.952  -4.024  0.00  0.00    +0.002 A 
ATOM     31  C   UNL     1       8.129  -1.007  -3.699  0.00  0.00    +0.023 A 
ENDBRANCH  23  26
BRANCH  24  32
ATOM     32  C   UNL     1       5.497   2.536  -3.685  0.00  0.00    +0.082 A 
ATOM     33  C   UNL     1       4.138   2.207  -3.709  0.00  0.00    +0.017 A 
ATOM     34  C   UNL     1       3.197   3.135  -3.319  0.00  0.00    +0.005 A 
ATOM     35  C   UNL     1       3.590   4.396  -2.902  0.00  0.00    +0.049 A 
ATOM     36  C   UNL     1       4.931   4.737  -2.872  0.00  0.00    +0.159 A 
ATOM     37  C   UNL     1       5.894   3.809  -3.258  0.00  0.00    +0.171 A 
BRANCH  37  38
ATOM     38  O   UNL     1       7.210   4.137  -3.225  0.00  0.00    -0.503 OA
ATOM     39  H   UNL     1       7.539   4.528  -4.046  0.00  0.00    +0.292 HD
ENDBRANCH  37  38
BRANCH  36  40
ATOM     40  O   UNL     1       5.309   5.978  -2.462  0.00  0.00    -0.503 OA
ATOM     41  H   UNL     1       5.474   6.044  -1.512  0.00  0.00    +0.292 HD
ENDBRANCH  36  40
ENDBRANCH  24  32
ENDBRANCH   1  23
TORSDOF 11
