REMARK  Name = ZINC35890579
REMARK  4 active torsions:
REMARK  status: ('A' for Active; 'I' for Inactive)
REMARK    1  A    between atoms: C_10  and  C_30
REMARK    2  A    between atoms: N_18  and  C_21
REMARK    3  A    between atoms: C_21  and  C_22
REMARK    4  A    between atoms: C_35  and  N_36
REMARK                            x       y       z     vdW  Elec       q    Type
REMARK                         _______ _______ _______ _____ _____    ______ ____
ROOT
ATOM      1  C   UNL     1      -3.077  -1.585  -0.992  0.00  0.00    +0.001 A 
ATOM      2  C   UNL     1      -3.738  -2.785  -1.218  0.00  0.00    +0.002 A 
ATOM      3  C   UNL     1      -3.036  -3.932  -1.515  0.00  0.00    +0.028 A 
ATOM      4  C   UNL     1      -1.642  -3.892  -1.591  0.00  0.00    +0.078 A 
ATOM      5  C   UNL     1      -0.972  -2.668  -1.360  0.00  0.00    +0.045 A 
ATOM      6  C   UNL     1      -1.702  -1.520  -1.061  0.00  0.00    +0.014 A 
ATOM      7  C   UNL     1       0.492  -2.661  -1.446  0.00  0.00    +0.173 A 
ATOM      8  N   UNL     1       1.426  -1.750  -1.301  0.00  0.00    -0.128 NA
ATOM      9  N   UNL     1       2.585  -2.278  -1.488  0.00  0.00    -0.128 NA
ATOM     10  C   UNL     1       2.460  -3.559  -1.765  0.00  0.00    +0.173 A 
ATOM     11  N   UNL     1       1.121  -3.848  -1.748  0.00  0.00    -0.246 N 
ATOM     12  C   UNL     1       0.386  -4.983  -1.956  0.00  0.00    +0.206 A 
ATOM     13  N   UNL     1      -0.920  -5.003  -1.880  0.00  0.00    -0.215 NA
ATOM     14  N   UNL     1       1.045  -6.150  -2.255  0.00  0.00    -0.302 N 
ATOM     15  C   UNL     1       1.261  -6.483  -3.640  0.00  0.00    +0.106 C 
ATOM     16  C   UNL     1       0.078  -7.313  -4.194  0.00  0.00    +0.000 C 
ATOM     17  C   UNL     1       0.110  -8.675  -3.632  0.00  0.00    -0.077 C 
ATOM     18  N   UNL     1       0.015  -8.687  -2.166  0.00  0.00    +0.383 N 
ATOM     19  C   UNL     1       1.269  -8.502  -1.477  0.00  0.00    -0.059 C 
ATOM     20  C   UNL     1       1.511  -7.009  -1.137  0.00  0.00    +0.089 C 
ATOM     21  H   UNL     1      -0.616  -7.952  -1.882  0.00  0.00    -0.081 HD
ENDROOT
BRANCH  10  22
ATOM     22  C   UNL     1       3.559  -4.508  -2.042  0.00  0.00    +0.050 A 
ATOM     23  C   UNL     1       4.208  -5.157  -0.989  0.00  0.00    +0.014 A 
ATOM     24  C   UNL     1       5.232  -6.041  -1.255  0.00  0.00    +0.001 A 
ATOM     25  C   UNL     1       5.617  -6.286  -2.561  0.00  0.00    +0.002 A 
ATOM     26  C   UNL     1       4.979  -5.647  -3.609  0.00  0.00    +0.033 A 
ATOM     27  C   UNL     1       3.949  -4.764  -3.357  0.00  0.00    +0.137 A 
BRANCH  27  28
ATOM     28  N   UNL     1       3.262  -4.085  -4.480  0.00  0.00    +0.057 N 
ATOM     29  O   UNL     1       3.529  -4.384  -5.621  0.00  0.00    -0.126 OA
ATOM     30  O   UNL     1       2.435  -3.233  -4.256  0.00  0.00    -0.126 OA
ENDBRANCH  27  28
ENDBRANCH  10  22
BRANCH  18  31
ATOM     31  C   UNL     1      -0.558  -9.974  -1.749  0.00  0.00    -0.040 C 
BRANCH  31  32
ATOM     32  C   UNL     1      -0.782  -9.964  -0.258  0.00  0.00    -0.026 A 
ATOM     33  C   UNL     1       0.129 -10.579   0.581  0.00  0.00    +0.005 A 
ATOM     34  C   UNL     1      -0.074 -10.571   1.948  0.00  0.00    +0.003 A 
ATOM     35  C   UNL     1      -1.189  -9.949   2.479  0.00  0.00    +0.041 A 
ATOM     36  C   UNL     1      -2.102  -9.334   1.642  0.00  0.00    +0.159 A 
ATOM     37  C   UNL     1      -1.895  -9.336   0.271  0.00  0.00    +0.160 A 
ATOM     38  F   UNL     1      -2.783  -8.731  -0.548  0.00  0.00    -0.202 F 
ATOM     39  F   UNL     1      -3.192  -8.726   2.160  0.00  0.00    -0.202 F 
ENDBRANCH  31  32
ENDBRANCH  18  31
TORSDOF 4
