REMARK  Name = ZINC32084725
REMARK  8 active torsions:
REMARK  status: ('A' for Active; 'I' for Inactive)
REMARK    1  A    between atoms: C_1  and  C_2
REMARK    2  A    between atoms: C_2  and  C_3
REMARK    3  A    between atoms: C_2  and  C_4
REMARK    4  A    between atoms: C_4  and  C_5
REMARK    5  A    between atoms: C_8  and  S_11
REMARK    6  A    between atoms: S_11  and  N_14
REMARK    7  A    between atoms: N_14  and  C_15
REMARK    8  A    between atoms: C_18  and  N_21
REMARK                            x       y       z     vdW  Elec       q    Type
REMARK                         _______ _______ _______ _____ _____    ______ ____
ROOT
ATOM      1  N   UNL     1      -5.160   4.319  -0.302  0.00  0.00    -0.216 N 
ATOM      2  H   UNL     1      -4.711   3.414   0.134  0.00  0.00    +0.174 HD
ENDROOT
BRANCH   1   3
ATOM      3  C   UNL     1      -5.282   4.439  -1.691  0.00  0.00    +0.048 A 
ATOM      4  C   UNL     1      -4.215   4.103  -2.514  0.00  0.00    +0.026 A 
ATOM      5  C   UNL     1      -4.337   4.221  -3.884  0.00  0.00    +0.025 A 
ATOM      6  C   UNL     1      -5.525   4.676  -4.439  0.00  0.00    +0.035 A 
ATOM      7  C   UNL     1      -6.590   5.018  -3.616  0.00  0.00    +0.025 A 
ATOM      8  C   UNL     1      -6.471   4.894  -2.246  0.00  0.00    +0.026 A 
BRANCH   6   9
ATOM      9  N   UNL     1      -5.648   4.797  -5.831  0.00  0.00    -0.270 N 
ATOM     10  C   UNL     1      -5.041   3.907  -6.641  0.00  0.00    +0.301 C 
ATOM     11  O   UNL     1      -4.323   3.047  -6.169  0.00  0.00    -0.253 OA
ATOM     12  N   UNL     1      -5.231   3.970  -7.973  0.00  0.00    -0.313 N 
ATOM     13  H   UNL     1      -6.239   5.619  -6.261  0.00  0.00    +0.156 HD
ATOM     14  H   UNL     1      -4.736   3.243  -8.634  0.00  0.00    +0.146 HD
ATOM     15  H   UNL     1      -5.881   4.748  -8.400  0.00  0.00    +0.146 HD
ENDBRANCH   6   9
ENDBRANCH   1   3
BRANCH   1  16
ATOM     16  S   UNL     1      -5.689   5.539   0.684  0.00  0.00    +0.072 S 
ATOM     17  O   UNL     1      -7.017   5.841   0.279  0.00  0.00    -0.150 OA
ATOM     18  O   UNL     1      -5.366   5.155   2.014  0.00  0.00    -0.150 OA
BRANCH  16  22
ATOM     19  C   UNL     1      -3.189   9.195  -0.250  0.00  0.00    -0.047 A 
ATOM     20  C   UNL     1      -4.415   9.021  -0.864  0.00  0.00    +0.005 A 
ATOM     21  C   UNL     1      -5.179   7.905  -0.578  0.00  0.00    +0.029 A 
ATOM     22  C   UNL     1      -4.716   6.962   0.320  0.00  0.00    +0.109 A 
ATOM     23  C   UNL     1      -3.491   7.138   0.938  0.00  0.00    +0.029 A 
ATOM     24  C   UNL     1      -2.726   8.253   0.649  0.00  0.00    +0.005 A 
BRANCH  19  25
ATOM     25  C   UNL     1      -2.356  10.412  -0.562  0.00  0.00    +0.038 C 
BRANCH  25  27
ATOM     26  C   UNL     1      -2.319  11.130   1.831  0.00  0.00    +0.007 C 
ATOM     27  C   UNL     1      -2.714  11.538   0.410  0.00  0.00    -0.013 C 
ATOM     28  C   UNL     1      -1.961  12.810   0.016  0.00  0.00    +0.007 C 
ENDBRANCH  25  27
ENDBRANCH  19  25
ENDBRANCH  16  22
ENDBRANCH   1  16
TORSDOF 6
