REMARK  Name = ZINC38671707
REMARK  8 active torsions:
REMARK  status: ('A' for Active; 'I' for Inactive)
REMARK    1  A    between atoms: C_1  and  N_2
REMARK    2  A    between atoms: C_9  and  C_11
REMARK    3  A    between atoms: C_11  and  C_13
REMARK    4  A    between atoms: C_11  and  N_30
REMARK    5  A    between atoms: C_13  and  N_14
REMARK    6  A    between atoms: N_14  and  S_15
REMARK    7  A    between atoms: S_15  and  C_18
REMARK    8  A    between atoms: C_21  and  C_24
REMARK                            x       y       z     vdW  Elec       q    Type
REMARK                         _______ _______ _______ _____ _____    ______ ____
ROOT
ATOM      1  C   UNL     1       0.192  -3.659   4.199  0.00  0.00    -0.022 C 
ENDROOT
BRANCH   1  10
ATOM      2  C   UNL     1      -0.200   1.151  -0.495  0.00  0.00    +0.129 C 
ATOM      3  N   UNL     1      -0.224  -0.307  -0.355  0.00  0.00    -0.332 N 
ATOM      4  C   UNL     1      -0.365  -1.255  -1.463  0.00  0.00    +0.109 C 
ATOM      5  C   UNL     1      -0.333  -2.646  -0.809  0.00  0.00    +0.056 C 
ATOM      6  C   UNL     1      -0.170  -2.368   0.668  0.00  0.00    -0.025 A 
ATOM      7  C   UNL     1      -0.108  -0.996   0.854  0.00  0.00    +0.033 A 
ATOM      8  C   UNL     1       0.048  -0.493   2.147  0.00  0.00    +0.023 A 
ATOM      9  C   UNL     1       0.144  -1.354   3.220  0.00  0.00    +0.004 A 
ATOM     10  C   UNL     1       0.086  -2.721   3.023  0.00  0.00    -0.059 A 
ATOM     11  C   UNL     1      -0.078  -3.226   1.747  0.00  0.00    +0.007 A 
ENDBRANCH   1  10
BRANCH   1  12
ATOM     12  N   UNL     1      -0.564  -3.109   5.333  0.00  0.00    +0.385 N 
ATOM     13  C   UNL     1      -0.497  -4.045   6.462  0.00  0.00    -0.078 C 
ATOM     14  C   UNL     1      -1.213  -3.441   7.672  0.00  0.00    -0.019 C 
ATOM     15  C   UNL     1      -2.678  -3.177   7.311  0.00  0.00    -0.004 C 
ATOM     16  C   UNL     1      -2.735  -2.260   6.086  0.00  0.00    -0.019 C 
ATOM     17  C   UNL     1      -1.962  -2.907   4.935  0.00  0.00    -0.078 C 
ATOM     18  H   UNL     1      -0.162  -2.225   5.607  0.00  0.00    -0.081 HD
ENDBRANCH   1  12
BRANCH   1  19
ATOM     19  C   UNL     1       1.661  -3.817   4.594  0.00  0.00    +0.095 C 
BRANCH  19  20
ATOM     20  N   UNL     1       2.400  -4.436   3.490  0.00  0.00    -0.191 NA
ATOM     21  H   UNL     1       1.919  -4.891   2.780  0.00  0.00    +0.148 HD
BRANCH  20  22
ATOM     22  S   UNL     1       4.053  -4.359   3.454  0.00  0.00    +0.058 S 
ATOM     23  O   UNL     1       4.468  -5.064   2.292  0.00  0.00    -0.153 OA
ATOM     24  O   UNL     1       4.402  -3.001   3.686  0.00  0.00    -0.153 OA
BRANCH  22  25
ATOM     25  C   UNL     1       4.648  -5.275   4.837  0.00  0.00    +0.105 A 
ATOM     26  C   UNL     1       4.843  -4.641   6.051  0.00  0.00    +0.029 A 
ATOM     27  C   UNL     1       5.309  -5.354   7.137  0.00  0.00    +0.010 A 
ATOM     28  C   UNL     1       5.582  -6.714   7.010  0.00  0.00    -0.018 A 
ATOM     29  C   UNL     1       5.383  -7.348   5.785  0.00  0.00    +0.010 A 
ATOM     30  C   UNL     1       4.912  -6.627   4.707  0.00  0.00    +0.029 A 
BRANCH  28  31
ATOM     31  C   UNL     1       6.082  -7.485   8.175  0.00  0.00    -0.018 A 
ATOM     32  C   UNL     1       6.276  -6.853   9.401  0.00  0.00    +0.008 A 
ATOM     33  C   UNL     1       6.742  -7.575  10.481  0.00  0.00    +0.001 A 
ATOM     34  C   UNL     1       7.017  -8.924  10.347  0.00  0.00    +0.000 A 
ATOM     35  C   UNL     1       6.827  -9.557   9.132  0.00  0.00    +0.001 A 
ATOM     36  C   UNL     1       6.356  -8.846   8.047  0.00  0.00    +0.008 A 
ENDBRANCH  28  31
ENDBRANCH  22  25
ENDBRANCH  20  22
ENDBRANCH  19  20
ENDBRANCH   1  19
TORSDOF 7
