REMARK  Name = ZINC46722419
REMARK  5 active torsions:
REMARK  status: ('A' for Active; 'I' for Inactive)
REMARK    1  A    between atoms: C_1  and  C_2
REMARK    2  A    between atoms: C_2  and  C_4
REMARK    3  A    between atoms: C_2  and  N_14
REMARK    4  A    between atoms: N_14  and  S_15
REMARK    5  A    between atoms: S_15  and  C_18
REMARK                            x       y       z     vdW  Elec       q    Type
REMARK                         _______ _______ _______ _____ _____    ______ ____
ROOT
ATOM      1  S   UNL     1      -2.050  -1.039   1.429  0.00  0.00    +0.060 S 
ATOM      2  O   UNL     1      -2.008  -0.028   2.426  0.00  0.00    -0.153 OA
ATOM      3  O   UNL     1      -3.268  -1.613   0.975  0.00  0.00    -0.153 OA
ENDROOT
BRANCH   1   4
ATOM      4  C   UNL     1      -1.055  -2.369   2.018  0.00  0.00    +0.127 A 
ATOM      5  C   UNL     1      -0.446  -2.278   3.256  0.00  0.00    +0.077 A 
ATOM      6  C   UNL     1       0.335  -3.322   3.719  0.00  0.00    +0.144 A 
ATOM      7  C   UNL     1       0.506  -4.462   2.935  0.00  0.00    +0.077 A 
ATOM      8  C   UNL     1      -0.106  -4.549   1.696  0.00  0.00    +0.049 A 
ATOM      9  C   UNL     1      -0.891  -3.503   1.242  0.00  0.00    +0.069 A 
ATOM     10 CL   UNL     1      -1.665  -3.611  -0.308  0.00  0.00    -0.081 Cl
ATOM     11  N   UNL     1       1.301  -5.512   3.417  0.00  0.00    -0.280 N 
ATOM     12  C   UNL     1       1.620  -5.543   4.729  0.00  0.00    +0.255 C 
ATOM     13  O   UNL     1       2.332  -6.425   5.162  0.00  0.00    -0.272 OA
ATOM     14  C   UNL     1       1.089  -4.478   5.653  0.00  0.00    +0.325 C 
ATOM     15  O   UNL     1       0.939  -3.250   4.935  0.00  0.00    -0.481 OA
ATOM     16  H   UNL     1       1.616  -6.206   2.817  0.00  0.00    +0.155 HD
ENDBRANCH   1   4
BRANCH   1  17
ATOM     17  N   UNL     1      -1.294  -0.417   0.093  0.00  0.00    -0.187 NA
ATOM     18  H   UNL     1      -1.713  -0.487  -0.779  0.00  0.00    +0.148 HD
BRANCH  17  20
ATOM     19  C   UNL     1      -0.195   1.750   0.375  0.00  0.00    +0.026 C 
ATOM     20  C   UNL     1       0.009   0.241   0.228  0.00  0.00    +0.080 C 
BRANCH  20  21
ATOM     21  C   UNL     1       0.854  -0.041  -1.016  0.00  0.00    -0.012 C 
ATOM     22  C   UNL     1       0.136   0.499  -2.254  0.00  0.00    +0.012 C 
ATOM     23  C   UNL     1       0.981   0.217  -3.497  0.00  0.00    -0.010 C 
ATOM     24  C   UNL     1       2.341   0.903  -3.356  0.00  0.00    +0.007 C 
ATOM     25  C   UNL     1       3.059   0.363  -2.118  0.00  0.00    -0.010 C 
ATOM     26  C   UNL     1       2.214   0.645  -0.874  0.00  0.00    +0.012 C 
ATOM     27  C   UNL     1       3.263  -1.146  -2.265  0.00  0.00    +0.007 C 
ATOM     28  C   UNL     1       1.903  -1.833  -2.406  0.00  0.00    -0.010 C 
ATOM     29  C   UNL     1       1.185  -1.293  -3.644  0.00  0.00    +0.007 C 
ATOM     30  C   UNL     1       1.057  -1.551  -1.162  0.00  0.00    +0.012 C 
ENDBRANCH  20  21
ENDBRANCH  17  20
ENDBRANCH   1  17
TORSDOF 4
