REMARK  Name = ZINC48333981
REMARK  7 active torsions:
REMARK  status: ('A' for Active; 'I' for Inactive)
REMARK    1  A    between atoms: C_4  and  C_7
REMARK    2  A    between atoms: C_7  and  C_8
REMARK    3  A    between atoms: C_8  and  C_10
REMARK    4  A    between atoms: C_8  and  N_20
REMARK    5  A    between atoms: C_21  and  C_23
REMARK    6  A    between atoms: C_23  and  N_24
REMARK    7  A    between atoms: C_26  and  C_33
REMARK                            x       y       z     vdW  Elec       q    Type
REMARK                         _______ _______ _______ _____ _____    ______ ____
ROOT
ATOM      1  N   UNL     1       3.229  -1.870   2.059  0.00  0.00    -0.304 N 
ATOM      2  C   UNL     1       2.116  -1.379   2.640  0.00  0.00    +0.233 C 
ATOM      3  O   UNL     1       1.895  -0.187   2.616  0.00  0.00    -0.274 OA
ATOM      4  H   UNL     1       3.406  -2.823   2.078  0.00  0.00    +0.149 HD
ENDROOT
BRANCH   1   5
ATOM      5  C   UNL     1       4.171  -0.963   1.399  0.00  0.00    +0.143 C 
BRANCH   5   6
ATOM      6  C   UNL     1       5.543  -1.588   1.383  0.00  0.00    +0.129 A 
ATOM      7  N   UNL     1       6.628  -1.104   2.045  0.00  0.00    -0.340 N 
ATOM      8  H   UNL     1       6.654  -0.309   2.601  0.00  0.00    +0.167 HD
ATOM      9  C   UNL     1       7.683  -1.953   1.780  0.00  0.00    +0.066 A 
ATOM     10  C   UNL     1       9.018  -1.985   2.162  0.00  0.00    +0.028 A 
ATOM     11  C   UNL     1       9.833  -3.000   1.709  0.00  0.00    +0.002 A 
ATOM     12  C   UNL     1       9.329  -3.988   0.875  0.00  0.00    +0.002 A 
ATOM     13  C   UNL     1       8.019  -3.973   0.490  0.00  0.00    +0.030 A 
ATOM     14  C   UNL     1       7.174  -2.954   0.936  0.00  0.00    +0.089 A 
ATOM     15  N   UNL     1       5.860  -2.673   0.739  0.00  0.00    -0.231 NA
ENDBRANCH   5   6
BRANCH   5  16
ATOM     16  C   UNL     1       3.711  -0.707  -0.038  0.00  0.00    +0.065 C 
BRANCH  16  20
ATOM     17  C   UNL     1      -0.017   1.378   0.010  0.00  0.00    +0.000 A 
ATOM     18  C   UNL     1       1.171   2.086   0.002  0.00  0.00    +0.000 A 
ATOM     19  C   UNL     1       2.377   1.411  -0.013  0.00  0.00    +0.004 A 
ATOM     20  C   UNL     1       2.396   0.029  -0.020  0.00  0.00    -0.045 A 
ATOM     21  C   UNL     1       1.208  -0.679  -0.012  0.00  0.00    +0.004 A 
ATOM     22  C   UNL     1       0.002  -0.004   0.002  0.00  0.00    +0.000 A 
ENDBRANCH  16  20
ENDBRANCH   5  16
ENDBRANCH   1   5
BRANCH   2  23
ATOM     23  C   UNL     1       1.147  -2.312   3.320  0.00  0.00    +0.217 C 
BRANCH  23  24
ATOM     24  N   UNL     1       0.029  -1.539   3.868  0.00  0.00    -0.337 N 
ATOM     25  C   UNL     1      -0.046  -1.087   5.143  0.00  0.00    +0.100 A 
ATOM     26  C   UNL     1      -1.214  -0.407   5.323  0.00  0.00    +0.062 A 
ATOM     27  C   UNL     1      -1.924  -0.446   4.031  0.00  0.00    +0.012 A 
ATOM     28  C   UNL     1      -1.092  -1.165   3.157  0.00  0.00    +0.050 A 
ATOM     29  C   UNL     1      -1.497  -1.366   1.842  0.00  0.00    +0.026 A 
ATOM     30  C   UNL     1      -2.703  -0.859   1.408  0.00  0.00    +0.002 A 
ATOM     31  C   UNL     1      -3.521  -0.146   2.272  0.00  0.00    +0.001 A 
ATOM     32  C   UNL     1      -3.142   0.058   3.580  0.00  0.00    +0.011 A 
BRANCH  26  33
ATOM     33  C   UNL     1      -1.675   0.238   6.560  0.00  0.00    +0.244 C 
ATOM     34  O   UNL     1      -2.745   0.815   6.583  0.00  0.00    -0.270 OA
ATOM     35  N   UNL     1      -0.911   0.189   7.670  0.00  0.00    -0.325 N 
ATOM     36  H   UNL     1      -0.058  -0.271   7.651  0.00  0.00    +0.145 HD
ATOM     37  H   UNL     1      -1.215   0.615   8.486  0.00  0.00    +0.145 HD
ENDBRANCH  26  33
ENDBRANCH  23  24
ENDBRANCH   2  23
TORSDOF 7
