REMARK  Name = ZINC24145580
REMARK  14 active torsions:
REMARK  status: ('A' for Active; 'I' for Inactive)
REMARK    1  A    between atoms: C_1  and  C_2
REMARK    2  A    between atoms: C_2  and  C_3
REMARK    3  A    between atoms: C_3  and  C_4
REMARK    4  A    between atoms: C_4  and  N_5
REMARK    5  A    between atoms: C_6  and  N_34
REMARK    6  A    between atoms: C_7  and  N_14
REMARK    7  A    between atoms: N_14  and  C_15
REMARK    8  A    between atoms: C_20  and  C_22
REMARK    9  A    between atoms: C_22  and  S_23
REMARK   10  A    between atoms: S_23  and  C_24
REMARK   11  A    between atoms: C_25  and  C_33
REMARK   12  A    between atoms: C_26  and  C_32
REMARK   13  A    between atoms: C_28  and  C_31
REMARK   14  A    between atoms: C_29  and  C_30
REMARK                            x       y       z     vdW  Elec       q    Type
REMARK                         _______ _______ _______ _____ _____    ______ ____
ROOT
ATOM      1  N   UNL     1       2.395   1.373   0.156  0.00  0.00    -0.260 N 
ATOM      2  C   UNL     1       3.566   1.921  -0.230  0.00  0.00    +0.230 C 
ATOM      3  O   UNL     1       3.631   3.110  -0.463  0.00  0.00    -0.274 OA
ENDROOT
BRANCH   1   6
ATOM      4  N   UNL     1      -0.462   3.412  -0.930  0.00  0.00    -0.280 N 
ATOM      5  C   UNL     1       0.682   2.650  -0.988  0.00  0.00    +0.127 A 
ATOM      6  C   UNL     1       1.223   2.158   0.182  0.00  0.00    +0.140 A 
ATOM      7  C   UNL     1       0.585   2.451   1.402  0.00  0.00    +0.277 A 
ATOM      8  O   UNL     1       1.041   2.029   2.451  0.00  0.00    -0.266 OA
ATOM      9  N   UNL     1      -0.537   3.198   1.402  0.00  0.00    -0.273 N 
ATOM     10  H   UNL     1      -1.046   3.425   2.351  0.00  0.00    +0.173 HD
ATOM     11  C   UNL     1      -1.047   3.674   0.253  0.00  0.00    +0.331 A 
ATOM     12  O   UNL     1      -2.057   4.350   0.282  0.00  0.00    -0.246 OA
BRANCH   5  13
ATOM     13  N   UNL     1       1.279   2.382  -2.196  0.00  0.00    -0.343 N 
ATOM     14  H   UNL     1       2.193   1.772  -2.235  0.00  0.00    +0.144 HD
ATOM     15  H   UNL     1       0.842   2.778  -3.125  0.00  0.00    +0.144 HD
ENDBRANCH   5  13
BRANCH   4  16
ATOM     16  C   UNL     1      -1.047   3.942  -2.165  0.00  0.00    +0.128 C 
BRANCH  16  17
ATOM     17  C   UNL     1      -2.051   2.934  -2.727  0.00  0.00    +0.021 C 
BRANCH  17  19
ATOM     18  C   UNL     1      -3.666   2.479  -4.578  0.00  0.00    +0.004 C 
ATOM     19  C   UNL     1      -2.662   3.487  -4.016  0.00  0.00    -0.002 C 
ENDBRANCH  17  19
ENDBRANCH  16  17
ENDBRANCH   4  16
ENDBRANCH   1   6
BRANCH   1  20
ATOM     20  C   UNL     1       2.341  -0.038   0.549  0.00  0.00    +0.082 C 
ATOM     21  C   UNL     1       3.247  -0.280   1.774  0.00  0.00    +0.023 C 
ATOM     22  C   UNL     1       3.863  -1.679   1.518  0.00  0.00    +0.002 C 
ATOM     23  C   UNL     1       4.107  -1.671  -0.011  0.00  0.00    +0.002 C 
ATOM     24  C   UNL     1       2.887  -0.922  -0.585  0.00  0.00    +0.023 C 
ENDBRANCH   1  20
BRANCH   2  25
ATOM     25  C   UNL     1       4.792   1.056  -0.373  0.00  0.00    +0.170 C 
BRANCH  25  26
ATOM     26  S   UNL     1       6.235   2.104  -0.703  0.00  0.00    -0.115 S 
BRANCH  26  27
ATOM     27  C   UNL     1       7.569   0.961  -0.843  0.00  0.00    +0.015 A 
ATOM     28  C   UNL     1       8.303   0.606   0.282  0.00  0.00    -0.034 A 
ATOM     29  C   UNL     1       9.343  -0.294   0.170  0.00  0.00    -0.046 A 
ATOM     30  C   UNL     1       9.663  -0.834  -1.062  0.00  0.00    +0.007 A 
ATOM     31  C   UNL     1       8.938  -0.479  -2.186  0.00  0.00    -0.046 A 
ATOM     32  C   UNL     1       7.893   0.417  -2.080  0.00  0.00    -0.034 A 
ATOM     33  C   UNL     1       7.104   0.803  -3.304  0.00  0.00    +0.045 C 
ATOM     34  C   UNL     1       9.291  -1.070  -3.526  0.00  0.00    +0.044 C 
ATOM     35  C   UNL     1      10.136  -0.685   1.391  0.00  0.00    +0.044 C 
ATOM     36  C   UNL     1       7.959   1.199   1.625  0.00  0.00    +0.045 C 
ENDBRANCH  26  27
ENDBRANCH  25  26
ENDBRANCH   2  25
TORSDOF 9
