REMARK  Name = ZINC36013860
REMARK  10 active torsions:
REMARK  status: ('A' for Active; 'I' for Inactive)
REMARK    1  A    between atoms: C_1  and  C_2
REMARK    2  A    between atoms: C_2  and  N_3
REMARK    3  A    between atoms: C_4  and  C_23
REMARK    4  A    between atoms: C_5  and  C_18
REMARK    5  A    between atoms: C_6  and  C_11
REMARK    6  A    between atoms: C_18  and  O_20
REMARK    7  A    between atoms: O_20  and  C_21
REMARK    8  A    between atoms: C_21  and  C_22
REMARK    9  A    between atoms: C_23  and  N_24
REMARK   10  A    between atoms: C_31  and  C_33
REMARK                            x       y       z     vdW  Elec       q    Type
REMARK                         _______ _______ _______ _____ _____    ______ ____
ROOT
ATOM      1  N   UNL     1      -1.645  -0.460   0.006  0.00  0.00    -0.261 N 
ATOM      2  C   UNL     1      -2.017  -0.983   1.212  0.00  0.00    +0.010 C 
ATOM      3  C   UNL     1      -3.144  -1.717   1.335  0.00  0.00    +0.076 C 
ATOM      4  C   UNL     1      -3.980  -1.940   0.091  0.00  0.00    +0.143 C 
ATOM      5  N   UNL     1      -3.492  -1.333  -1.158  0.00  0.00    -0.288 N 
ATOM      6  C   UNL     1      -2.348  -0.621  -1.122  0.00  0.00    +0.307 C 
ATOM      7  O   UNL     1      -1.939  -0.113  -2.147  0.00  0.00    -0.252 OA
ATOM      8  H   UNL     1      -3.984  -1.441  -1.988  0.00  0.00    +0.151 HD
ENDROOT
BRANCH   4   9
ATOM      9  C   UNL     1      -5.362  -1.403   0.359  0.00  0.00    -0.022 A 
ATOM     10  C   UNL     1      -5.609  -0.047   0.256  0.00  0.00    +0.007 A 
ATOM     11  C   UNL     1      -6.877   0.446   0.501  0.00  0.00    +0.020 A 
ATOM     12  C   UNL     1      -7.899  -0.418   0.850  0.00  0.00    +0.041 A 
ATOM     13  C   UNL     1      -7.652  -1.776   0.952  0.00  0.00    +0.020 A 
ATOM     14  C   UNL     1      -6.385  -2.268   0.701  0.00  0.00    +0.007 A 
ATOM     15 CL   UNL     1      -9.492   0.200   1.158  0.00  0.00    -0.084 Cl
ENDBRANCH   4   9
BRANCH   1  17
ATOM     16  C   UNL     1      -0.745   1.812   0.102  0.00  0.00    +0.025 C 
ATOM     17  C   UNL     1      -0.411   0.327  -0.055  0.00  0.00    +0.111 C 
ENDBRANCH   1  17
BRANCH   3  18
ATOM     18  C   UNL     1      -3.529  -2.260   2.583  0.00  0.00    +0.339 C 
ATOM     19  O   UNL     1      -2.891  -1.997   3.585  0.00  0.00    -0.245 OA
BRANCH  18  20
ATOM     20  O   UNL     1      -4.606  -3.071   2.662  0.00  0.00    -0.462 OA
BRANCH  20  21
ATOM     21  C   UNL     1      -4.938  -3.583   3.954  0.00  0.00    +0.229 C 
ATOM     22  C   UNL     1      -6.177  -4.474   3.846  0.00  0.00    +0.048 C 
ENDBRANCH  20  21
ENDBRANCH  18  20
ENDBRANCH   3  18
BRANCH   2  23
ATOM     23  C   UNL     1      -1.156  -0.737   2.424  0.00  0.00    -0.026 C 
BRANCH  23  24
ATOM     24  N   UNL     1      -0.307  -1.911   2.668  0.00  0.00    +0.384 N 
ATOM     25  C   UNL     1       0.345  -1.746   3.965  0.00  0.00    -0.077 C 
ATOM     26  C   UNL     1       0.605  -3.108   4.570  0.00  0.00    +0.000 C 
ATOM     27  C   UNL     1       2.025  -3.571   4.198  0.00  0.00    +0.106 C 
ATOM     28  N   UNL     1       2.351  -3.216   2.802  0.00  0.00    -0.297 N 
ATOM     29  C   UNL     1       1.396  -3.360   1.722  0.00  0.00    +0.089 C 
ATOM     30  C   UNL     1       0.573  -2.059   1.573  0.00  0.00    -0.059 C 
ATOM     31  C   UNL     1       3.581  -2.741   2.523  0.00  0.00    +0.282 C 
ATOM     32  O   UNL     1       4.432  -2.707   3.392  0.00  0.00    -0.267 OA
ATOM     33  H   UNL     1      -0.900  -2.726   2.713  0.00  0.00    -0.081 HD
BRANCH  31  34
ATOM     34  C   UNL     1       3.894  -2.266   1.171  0.00  0.00    +0.189 A 
ATOM     35  C   UNL     1       5.123  -1.873   0.723  0.00  0.00    +0.054 A 
ATOM     36  C   UNL     1       4.962  -1.500  -0.620  0.00  0.00    +0.042 A 
ATOM     37  C   UNL     1       3.659  -1.679  -0.930  0.00  0.00    +0.196 A 
ATOM     38  O   UNL     1       3.020  -2.145   0.151  0.00  0.00    -0.458 OA
ENDBRANCH  31  34
ENDBRANCH  23  24
ENDBRANCH   2  23
TORSDOF 8
