REMARK  Name = ZINC62587345
REMARK  15 active torsions:
REMARK  status: ('A' for Active; 'I' for Inactive)
REMARK    1  A    between atoms: C_1  and  S_2
REMARK    2  A    between atoms: S_2  and  C_5
REMARK    3  A    between atoms: C_8  and  C_11
REMARK    4  A    between atoms: C_11  and  C_13
REMARK    5  A    between atoms: C_11  and  O_36
REMARK    6  A    between atoms: C_13  and  N_14
REMARK    7  A    between atoms: N_14  and  C_15
REMARK    8  A    between atoms: N_14  and  C_22
REMARK    9  A    between atoms: C_15  and  C_16
REMARK   10  A    between atoms: C_16  and  C_17
REMARK   11  A    between atoms: C_22  and  C_23
REMARK   12  A    between atoms: C_23  and  C_25
REMARK   13  A    between atoms: C_23  and  O_35
REMARK   14  A    between atoms: C_28  and  S_31
REMARK   15  A    between atoms: S_31  and  C_34
REMARK                            x       y       z     vdW  Elec       q    Type
REMARK                         _______ _______ _______ _____ _____    ______ ____
ROOT
ATOM      1  N   UNL     1       4.341  -0.531  -7.057  0.00  0.00    +0.384 N 
ATOM      2  H   UNL     1       5.068  -1.231  -7.077  0.00  0.00    -0.082 HD
ENDROOT
BRANCH   1   3
ATOM      3  C   UNL     1       3.901  -0.322  -5.672  0.00  0.00    -0.042 C 
BRANCH   3   4
ATOM      4  C   UNL     1       3.476  -1.660  -5.064  0.00  0.00    +0.128 C 
BRANCH   4   8
ATOM      5  C   UNL     1       1.868  -1.007  -1.160  0.00  0.00    +0.088 A 
ATOM      6  C   UNL     1       1.019  -1.185  -2.236  0.00  0.00    +0.027 A 
ATOM      7  C   UNL     1       1.539  -1.396  -3.500  0.00  0.00    +0.008 A 
ATOM      8  C   UNL     1       2.909  -1.429  -3.687  0.00  0.00    -0.021 A 
ATOM      9  C   UNL     1       3.758  -1.249  -2.611  0.00  0.00    +0.008 A 
ATOM     10  C   UNL     1       3.237  -1.034  -1.348  0.00  0.00    +0.027 A 
BRANCH   5  12
ATOM     11  C   UNL     1       1.024   1.063   0.584  0.00  0.00    +0.200 C 
ATOM     12  S   UNL     1       1.205  -0.737   0.450  0.00  0.00    -0.006 S 
ATOM     13  O   UNL     1       2.215  -1.195   1.339  0.00  0.00    -0.170 OA
ATOM     14  O   UNL     1      -0.073  -1.357   0.424  0.00  0.00    -0.170 OA
ENDBRANCH   5  12
ENDBRANCH   4   8
BRANCH   4  15
ATOM     15  O   UNL     1       4.611  -2.523  -4.973  0.00  0.00    -0.389 OA
ATOM     16  H   UNL     1       5.327  -2.175  -4.424  0.00  0.00    +0.210 HD
ENDBRANCH   4  15
ENDBRANCH   3   4
ENDBRANCH   1   3
BRANCH   1  17
ATOM     17  C   UNL     1       3.204  -0.984  -7.870  0.00  0.00    -0.073 C 
BRANCH  17  18
ATOM     18  C   UNL     1       2.102   0.076  -7.840  0.00  0.00    +0.024 C 
BRANCH  18  19
ATOM     19  C   UNL     1       0.928  -0.396  -8.659  0.00  0.00    -0.012 A 
ATOM     20  C   UNL     1      -0.153  -1.113  -8.267  0.00  0.00    +0.011 A 
ATOM     21  C   UNL     1      -1.118  -1.436  -9.202  0.00  0.00    +0.008 A 
ATOM     22  C   UNL     1      -0.955  -1.026 -10.484  0.00  0.00    +0.045 A 
ATOM     23  S   UNL     1       0.598  -0.148 -10.396  0.00  0.00    -0.102 S 
ENDBRANCH  18  19
ENDBRANCH  17  18
ENDBRANCH   1  17
BRANCH   1  24
ATOM     24  C   UNL     1       4.861   0.730  -7.602  0.00  0.00    -0.042 C 
BRANCH  24  25
ATOM     25  C   UNL     1       5.440   0.483  -8.997  0.00  0.00    +0.128 C 
BRANCH  25  26
ATOM     26  C   UNL     1       5.954   1.782  -9.564  0.00  0.00    -0.021 A 
ATOM     27  C   UNL     1       7.232   2.211  -9.261  0.00  0.00    +0.008 A 
ATOM     28  C   UNL     1       7.703   3.401  -9.781  0.00  0.00    +0.027 A 
ATOM     29  C   UNL     1       6.896   4.163 -10.605  0.00  0.00    +0.088 A 
ATOM     30  C   UNL     1       5.618   3.733 -10.910  0.00  0.00    +0.027 A 
ATOM     31  C   UNL     1       5.148   2.540 -10.393  0.00  0.00    +0.008 A 
BRANCH  29  32
ATOM     32  S   UNL     1       7.497   5.681 -11.268  0.00  0.00    -0.006 S 
ATOM     33  O   UNL     1       6.331   6.459 -11.506  0.00  0.00    -0.170 OA
ATOM     34  O   UNL     1       8.482   6.117 -10.341  0.00  0.00    -0.170 OA
ATOM     35  C   UNL     1       8.277   5.227 -12.842  0.00  0.00    +0.200 C 
ENDBRANCH  29  32
ENDBRANCH  25  26
BRANCH  25  36
ATOM     36  O   UNL     1       6.513  -0.456  -8.908  0.00  0.00    -0.389 OA
ATOM     37  H   UNL     1       7.243  -0.167  -8.343  0.00  0.00    +0.210 HD
ENDBRANCH  25  36
ENDBRANCH  24  25
ENDBRANCH   1  24
TORSDOF 13
