REMARK  Name = ZINC35495914
REMARK  9 active torsions:
REMARK  status: ('A' for Active; 'I' for Inactive)
REMARK    1  A    between atoms: C_1  and  C_2
REMARK    2  A    between atoms: C_3  and  C_8
REMARK    3  A    between atoms: C_8  and  N_9
REMARK    4  A    between atoms: N_9  and  C_10
REMARK    5  A    between atoms: C_10  and  C_11
REMARK    6  A    between atoms: C_14  and  C_17
REMARK    7  A    between atoms: C_23  and  C_25
REMARK    8  A    between atoms: N_28  and  C_32
REMARK    9  A    between atoms: C_32  and  C_33
REMARK                            x       y       z     vdW  Elec       q    Type
REMARK                         _______ _______ _______ _____ _____    ______ ____
ROOT
ATOM      1  N   UNL     1       1.194   0.036  -2.573  0.00  0.00    -0.289 N 
ATOM      2  C   UNL     1       1.904   1.175  -2.448  0.00  0.00    +0.246 C 
ATOM      3  O   UNL     1       3.024   1.245  -2.908  0.00  0.00    -0.273 OA
ENDROOT
BRANCH   2   4
ATOM      4  C   UNL     1       1.306   2.362  -1.737  0.00  0.00    +0.218 C 
ATOM      5  C   UNL     1       1.221   2.069  -0.237  0.00  0.00    +0.126 C 
ATOM      6  N   UNL     1       0.709   3.258   0.461  0.00  0.00    -0.293 NA
ATOM      7  C   UNL     1       1.581   4.417   0.222  0.00  0.00    +0.113 C 
ATOM      8  C   UNL     1       1.662   4.686  -1.283  0.00  0.00    +0.176 C 
ATOM      9  O   UNL     1       2.131   3.511  -1.948  0.00  0.00    -0.365 OA
BRANCH   6  10
ATOM     10  C   UNL     1       0.558   3.000   1.899  0.00  0.00    +0.119 C 
BRANCH  10  11
ATOM     11  C   UNL     1      -0.316   4.064   2.511  0.00  0.00    -0.033 A 
ATOM     12  C   UNL     1       0.252   5.222   3.009  0.00  0.00    +0.005 A 
ATOM     13  C   UNL     1      -0.550   6.198   3.570  0.00  0.00    +0.000 A 
ATOM     14  C   UNL     1      -1.919   6.016   3.634  0.00  0.00    +0.000 A 
ATOM     15  C   UNL     1      -2.486   4.858   3.136  0.00  0.00    +0.000 A 
ATOM     16  C   UNL     1      -1.685   3.884   2.571  0.00  0.00    +0.005 A 
ENDBRANCH  10  11
ENDBRANCH   6  10
ENDBRANCH   2   4
BRANCH   1  17
ATOM     17  C   UNL     1      -0.205  -0.005  -2.142  0.00  0.00    +0.163 C 
BRANCH  17  20
ATOM     18  C   UNL     1      -1.113  -0.278  -5.125  0.00  0.00    +0.065 C 
ATOM     19  C   UNL     1      -1.397   0.887  -4.213  0.00  0.00    +0.035 A 
ATOM     20  C   UNL     1      -1.004   1.001  -2.929  0.00  0.00    +0.054 A 
ATOM     21  N   UNL     1      -1.470   2.206  -2.478  0.00  0.00    -0.348 N 
ATOM     22  H   UNL     1      -1.348   2.574  -1.589  0.00  0.00    +0.166 HD
ATOM     23  C   UNL     1      -2.132   2.787  -3.502  0.00  0.00    +0.171 A 
ATOM     24  N   UNL     1      -2.079   1.995  -4.537  0.00  0.00    -0.350 N 
ATOM     25  H   UNL     1      -2.474   2.178  -5.405  0.00  0.00    +0.166 HD
ENDBRANCH  17  20
ENDBRANCH   1  17
BRANCH   1  26
ATOM     26  C   UNL     1       1.822  -1.160  -3.140  0.00  0.00    +0.143 C 
BRANCH  26  27
ATOM     27  C   UNL     1       1.790  -1.079  -4.644  0.00  0.00    -0.030 A 
ATOM     28  C   UNL     1       0.837  -1.789  -5.352  0.00  0.00    +0.006 A 
ATOM     29  C   UNL     1       0.803  -1.719  -6.730  0.00  0.00    +0.009 A 
ATOM     30  C   UNL     1       1.730  -0.930  -7.408  0.00  0.00    -0.018 A 
ATOM     31  C   UNL     1       2.688  -0.216  -6.690  0.00  0.00    +0.009 A 
ATOM     32  C   UNL     1       2.709  -0.290  -5.312  0.00  0.00    +0.006 A 
BRANCH  30  33
ATOM     33  C   UNL     1       1.699  -0.851  -8.890  0.00  0.00    -0.018 A 
ATOM     34  C   UNL     1       0.738  -1.560  -9.608  0.00  0.00    +0.008 A 
ATOM     35  C   UNL     1       0.713  -1.482 -10.985  0.00  0.00    +0.001 A 
ATOM     36  C   UNL     1       1.640  -0.703 -11.653  0.00  0.00    +0.000 A 
ATOM     37  C   UNL     1       2.596   0.003 -10.946  0.00  0.00    +0.001 A 
ATOM     38  C   UNL     1       2.626  -0.062  -9.568  0.00  0.00    +0.008 A 
ENDBRANCH  30  33
ENDBRANCH  26  27
ENDBRANCH   1  26
TORSDOF 8
