REMARK  Name = ZINC39510435
REMARK  10 active torsions:
REMARK  status: ('A' for Active; 'I' for Inactive)
REMARK    1  A    between atoms: C_1  and  C_2
REMARK    2  A    between atoms: C_2  and  C_3
REMARK    3  A    between atoms: C_2  and  C_4
REMARK    4  A    between atoms: C_4  and  C_5
REMARK    5  A    between atoms: C_7  and  C_11
REMARK    6  A    between atoms: C_11  and  N_12
REMARK    7  A    between atoms: C_16  and  C_19
REMARK    8  A    between atoms: C_19  and  N_20
REMARK    9  A    between atoms: C_21  and  C_23
REMARK   10  A    between atoms: C_23  and  C_26
REMARK                            x       y       z     vdW  Elec       q    Type
REMARK                         _______ _______ _______ _____ _____    ______ ____
ROOT
ATOM      1  N   UNL     1      -3.289   1.100   5.259  0.00  0.00    +0.382 N 
ATOM      2  C   UNL     1      -3.075   0.464   6.565  0.00  0.00    -0.079 C 
ATOM      3  C   UNL     1      -3.451   1.442   7.680  0.00  0.00    -0.018 C 
ATOM      4  C   UNL     1      -4.925   1.831   7.536  0.00  0.00    +0.001 C 
ATOM      5  C   UNL     1      -5.152   2.425   6.143  0.00  0.00    -0.011 C 
ATOM      6  C   UNL     1      -4.713   1.410   5.084  0.00  0.00    -0.074 C 
ATOM      7  H   UNL     1      -2.752   1.952   5.210  0.00  0.00    -0.082 HD
ENDROOT
BRANCH   1   8
ATOM      8  C   UNL     1      -2.854   0.186   4.194  0.00  0.00    -0.046 C 
BRANCH   8  11
ATOM      9  C   UNL     1       0.022  -0.083   2.515  0.00  0.00    +0.062 C 
ATOM     10  C   UNL     1      -0.844  -0.882   3.141  0.00  0.00    +0.024 C 
ATOM     11  C   UNL     1      -1.345  -0.040   4.302  0.00  0.00    +0.136 C 
ATOM     12  N   UNL     1      -0.612   1.226   4.132  0.00  0.00    -0.182 NA
ATOM     13  N   UNL     1       0.112   1.111   3.140  0.00  0.00    -0.159 NA
BRANCH   9  14
ATOM     14  C   UNL     1       0.799  -0.464   1.281  0.00  0.00    +0.060 C 
BRANCH  14  16
ATOM     15  C   UNL     1       0.025   1.562   0.040  0.00  0.00    +0.007 C 
ATOM     16  C   UNL     1       0.057   0.032   0.038  0.00  0.00    -0.011 C 
ATOM     17  C   UNL     1       0.780  -0.461  -1.217  0.00  0.00    +0.007 C 
ENDBRANCH  14  16
ENDBRANCH   9  14
ENDBRANCH   8  11
ENDBRANCH   1   8
BRANCH   5  18
ATOM     18  C   UNL     1      -6.637   2.746   5.960  0.00  0.00    +0.106 C 
BRANCH  18  19
ATOM     19  N   UNL     1      -7.027   3.800   6.898  0.00  0.00    -0.314 N 
ATOM     20  C   UNL     1      -8.299   4.248   6.918  0.00  0.00    +0.224 C 
ATOM     21  O   UNL     1      -9.096   3.846   6.097  0.00  0.00    -0.275 OA
ATOM     22  H   UNL     1      -6.372   4.176   7.506  0.00  0.00    +0.149 HD
BRANCH  20  23
ATOM     23  C   UNL     1      -8.729   5.248   7.959  0.00  0.00    +0.072 C 
ATOM     24  C   UNL     1      -9.546   6.453   7.487  0.00  0.00    +0.022 C 
ATOM     25  C   UNL     1      -8.088   6.637   7.913  0.00  0.00    +0.022 C 
BRANCH  23  26
ATOM     26  C   UNL     1      -9.053   4.676   9.315  0.00  0.00    -0.032 A 
ATOM     27  C   UNL     1      -8.861   5.440  10.451  0.00  0.00    +0.006 A 
ATOM     28  C   UNL     1      -9.158   4.916  11.695  0.00  0.00    +0.020 A 
ATOM     29  C   UNL     1      -9.648   3.626  11.803  0.00  0.00    +0.041 A 
ATOM     30  C   UNL     1      -9.840   2.862  10.666  0.00  0.00    +0.020 A 
ATOM     31  C   UNL     1      -9.548   3.390   9.422  0.00  0.00    +0.006 A 
ATOM     32 CL   UNL     1     -10.020   2.967  13.365  0.00  0.00    -0.084 Cl
ENDBRANCH  23  26
ENDBRANCH  20  23
ENDBRANCH  18  19
ENDBRANCH   5  18
TORSDOF 8
