REMARK  Name = ZINC09383030
REMARK  7 active torsions:
REMARK  status: ('A' for Active; 'I' for Inactive)
REMARK    1  A    between atoms: C_5  and  N_7
REMARK    2  A    between atoms: C_12  and  C_14
REMARK    3  A    between atoms: C_12  and  C_26
REMARK    4  A    between atoms: C_12  and  N_56
REMARK    5  A    between atoms: C_14  and  N_15
REMARK    6  A    between atoms: N_15  and  S_16
REMARK    7  A    between atoms: S_16  and  C_19
REMARK                            x       y       z     vdW  Elec       q    Type
REMARK                         _______ _______ _______ _____ _____    ______ ____
ROOT
ATOM      1  C   UNL     1      -0.047   1.188  -0.092  0.00  0.00    -0.020 C 
ENDROOT
BRANCH   1   7
ATOM      2  N   UNL     1      -0.465   2.957  -3.906  0.00  0.00    -0.331 N 
ATOM      3  C   UNL     1      -1.595   3.060  -2.971  0.00  0.00    +0.086 C 
ATOM      4  C   UNL     1      -1.096   2.818  -1.544  0.00  0.00    -0.059 C 
ATOM      5  C   UNL     1       0.658   1.387  -2.400  0.00  0.00    -0.059 C 
ATOM      6  C   UNL     1       0.160   1.629  -3.827  0.00  0.00    +0.086 C 
ATOM      7  N   UNL     1      -0.490   1.471  -1.474  0.00  0.00    +0.387 N 
ATOM      8  H   UNL     1      -1.193   0.774  -1.748  0.00  0.00    -0.081 HD
BRANCH   2  13
ATOM      9  C   UNL     1      -1.812   4.765  -6.810  0.00  0.00    +0.002 A 
ATOM     10  C   UNL     1      -1.670   3.812  -7.802  0.00  0.00    +0.003 A 
ATOM     11  C   UNL     1      -1.129   2.575  -7.504  0.00  0.00    +0.040 A 
ATOM     12  C   UNL     1      -0.728   2.287  -6.213  0.00  0.00    +0.144 A 
ATOM     13  C   UNL     1      -0.869   3.244  -5.213  0.00  0.00    +0.065 A 
ATOM     14  C   UNL     1      -1.418   4.483  -5.516  0.00  0.00    +0.026 A 
ATOM     15  F   UNL     1      -0.200   1.078  -5.922  0.00  0.00    -0.204 F 
ENDBRANCH   2  13
ENDBRANCH   1   7
BRANCH   1  16
ATOM     16  C   UNL     1       1.381   1.630   0.101  0.00  0.00    -0.042 A 
ATOM     17  C   UNL     1       2.317   0.762   0.642  0.00  0.00    +0.005 A 
ATOM     18  C   UNL     1       3.619   1.211   0.801  0.00  0.00    +0.020 A 
ATOM     19  C   UNL     1       3.938   2.500   0.418  0.00  0.00    +0.111 A 
ATOM     20  N   UNL     1       3.022   3.299  -0.093  0.00  0.00    -0.263 NA
ATOM     21  C   UNL     1       1.775   2.903  -0.264  0.00  0.00    +0.112 A 
ENDBRANCH   1  16
BRANCH   1  22
ATOM     22  C   UNL     1      -0.949   1.932   0.895  0.00  0.00    +0.095 C 
BRANCH  22  23
ATOM     23  N   UNL     1      -2.346   1.565   0.652  0.00  0.00    -0.191 NA
ATOM     24  H   UNL     1      -2.592   1.110  -0.168  0.00  0.00    +0.148 HD
BRANCH  23  25
ATOM     25  S   UNL     1      -3.505   1.926   1.779  0.00  0.00    +0.058 S 
ATOM     26  O   UNL     1      -4.742   1.473   1.248  0.00  0.00    -0.153 OA
ATOM     27  O   UNL     1      -3.005   1.481   3.033  0.00  0.00    -0.153 OA
BRANCH  25  28
ATOM     28  C   UNL     1      -3.610   3.683   1.873  0.00  0.00    +0.105 A 
ATOM     29  C   UNL     1      -2.820   4.375   2.772  0.00  0.00    +0.030 A 
ATOM     30  C   UNL     1      -2.898   5.753   2.843  0.00  0.00    +0.022 A 
ATOM     31  C   UNL     1      -3.775   6.439   2.022  0.00  0.00    +0.041 A 
ATOM     32  C   UNL     1      -4.569   5.745   1.126  0.00  0.00    +0.022 A 
ATOM     33  C   UNL     1      -4.486   4.368   1.052  0.00  0.00    +0.030 A 
ATOM     34 CL   UNL     1      -3.878   8.169   2.114  0.00  0.00    -0.084 Cl
ENDBRANCH  25  28
ENDBRANCH  23  25
ENDBRANCH  22  23
ENDBRANCH   1  22
TORSDOF 7
