REMARK  Name = ZINC09882060
REMARK  9 active torsions:
REMARK  status: ('A' for Active; 'I' for Inactive)
REMARK    1  A    between atoms: C_1  and  O_2
REMARK    2  A    between atoms: O_2  and  C_3
REMARK    3  A    between atoms: C_6  and  C_9
REMARK    4  A    between atoms: C_11  and  C_14
REMARK    5  A    between atoms: C_14  and  S_15
REMARK    6  A    between atoms: S_15  and  C_16
REMARK    7  A    between atoms: C_19  and  C_28
REMARK    8  A    between atoms: N_20  and  C_21
REMARK    9  A    between atoms: C_28  and  N_60
REMARK                            x       y       z     vdW  Elec       q    Type
REMARK                         _______ _______ _______ _____ _____    ______ ____
ROOT
ATOM      1  C   UNL     1       8.320   2.242   1.349  0.00  0.00    +0.196 A 
ATOM      2  N   UNL     1       8.861   2.474   0.175  0.00  0.00    -0.122 NA
ATOM      3  N   UNL     1      10.037   2.971   0.325  0.00  0.00    -0.135 NA
ATOM      4  C   UNL     1      10.321   3.077   1.592  0.00  0.00    +0.122 A 
ATOM      5  N   UNL     1       9.237   2.617   2.292  0.00  0.00    -0.276 N 
ENDROOT
BRANCH   5   6
ATOM      6  C   UNL     1       9.097   2.543   3.687  0.00  0.00    +0.050 A 
ATOM      7  C   UNL     1       9.079   3.706   4.445  0.00  0.00    +0.029 A 
ATOM      8  C   UNL     1       8.935   3.632   5.817  0.00  0.00    +0.040 A 
ATOM      9  C   UNL     1       8.821   2.399   6.436  0.00  0.00    +0.124 A 
ATOM     10  C   UNL     1       8.844   1.238   5.682  0.00  0.00    +0.040 A 
ATOM     11  C   UNL     1       8.982   1.308   4.309  0.00  0.00    +0.029 A 
ATOM     12  F   UNL     1       8.686   2.329   7.779  0.00  0.00    -0.205 F 
ENDBRANCH   5   6
BRANCH   1  13
ATOM     13  S   UNL     1       6.720   1.569   1.651  0.00  0.00    -0.079 S 
BRANCH  13  14
ATOM     14  C   UNL     1       6.146   1.346  -0.051  0.00  0.00    +0.133 C 
BRANCH  14  17
ATOM     15  C   UNL     1       2.478   1.072  -0.016  0.00  0.00    +0.109 A 
ATOM     16  N   UNL     1       3.711   1.559  -0.026  0.00  0.00    -0.243 NA
ATOM     17  C   UNL     1       4.756   0.764  -0.040  0.00  0.00    +0.059 A 
ATOM     18  C   UNL     1       4.583  -0.584  -0.046  0.00  0.00    +0.071 A 
ATOM     19  S   UNL     1       2.798  -0.687  -0.022  0.00  0.00    -0.075 S 
BRANCH  15  23
ATOM     20  C   UNL     1      -1.235   3.138   0.031  0.00  0.00    +0.120 A 
ATOM     21  C   UNL     1      -1.215   1.750   0.017  0.00  0.00    +0.046 A 
ATOM     22  C   UNL     1      -0.013   1.076   0.008  0.00  0.00    +0.014 A 
ATOM     23  C   UNL     1       1.186   1.791   0.000  0.00  0.00    +0.007 A 
ATOM     24  C   UNL     1       1.162   3.187   0.008  0.00  0.00    +0.014 A 
ATOM     25  C   UNL     1      -0.044   3.853   0.023  0.00  0.00    +0.046 A 
BRANCH  20  27
ATOM     26  C   UNL     1      -3.608   3.002   0.054  0.00  0.00    +0.277 C 
ATOM     27  O   UNL     1      -2.422   3.799   0.046  0.00  0.00    -0.495 OA
ENDBRANCH  20  27
ENDBRANCH  15  23
ENDBRANCH  14  17
ENDBRANCH  13  14
ENDBRANCH   1  13
BRANCH   4  28
ATOM     28  C   UNL     1      11.603   3.608   2.179  0.00  0.00    -0.001 C 
BRANCH  28  34
ATOM     29  C   UNL     1      12.072   1.549   3.364  0.00  0.00    -0.078 C 
ATOM     30  C   UNL     1      13.011   0.342   3.417  0.00  0.00    -0.019 C 
ATOM     31  C   UNL     1      14.423   0.816   3.772  0.00  0.00    -0.004 C 
ATOM     32  C   UNL     1      14.884   1.845   2.735  0.00  0.00    -0.019 C 
ATOM     33  C   UNL     1      13.890   3.008   2.701  0.00  0.00    -0.078 C 
ATOM     34  N   UNL     1      12.556   2.489   2.330  0.00  0.00    +0.384 N 
ATOM     35  H   UNL     1      12.630   1.991   1.435  0.00  0.00    -0.081 HD
ENDBRANCH  28  34
ENDBRANCH   4  28
TORSDOF 8
