REMARK  Name = ZINC41090599
REMARK  9 active torsions:
REMARK  status: ('A' for Active; 'I' for Inactive)
REMARK    1  A    between atoms: C_1  and  C_2
REMARK    2  A    between atoms: C_2  and  C_3
REMARK    3  A    between atoms: C_9  and  C_27
REMARK    4  A    between atoms: C_11  and  S_13
REMARK    5  A    between atoms: S_13  and  C_14
REMARK    6  A    between atoms: C_14  and  C_15
REMARK    7  A    between atoms: N_17  and  C_18
REMARK    8  A    between atoms: C_22  and  N_24
REMARK    9  A    between atoms: C_27  and  C_28
REMARK                            x       y       z     vdW  Elec       q    Type
REMARK                         _______ _______ _______ _____ _____    ______ ____
ROOT
ATOM      1  C   UNL     1      -1.438  -0.470   0.015  0.00  0.00    -0.008 A 
ATOM      2  C   UNL     1      -2.241  -0.775  -1.034  0.00  0.00    +0.019 A 
ATOM      3  C   UNL     1      -3.518  -1.257  -0.808  0.00  0.00    +0.014 A 
ATOM      4  C   UNL     1      -3.905  -1.394   0.511  0.00  0.00    +0.085 A 
ATOM      5  S   UNL     1      -2.478  -0.869   1.414  0.00  0.00    -0.076 S 
ATOM      6  N   UNL     1      -5.113  -1.830   0.925  0.00  0.00    -0.341 N 
ATOM      7  C   UNL     1      -6.065  -1.948   0.030  0.00  0.00    +0.073 C 
ATOM      8  N   UNL     1      -5.858  -1.564  -1.269  0.00  0.00    -0.318 N 
ATOM      9  C   UNL     1      -4.526  -1.658  -1.885  0.00  0.00    +0.163 C 
ATOM     10  H   UNL     1      -6.602  -1.225  -1.791  0.00  0.00    +0.148 HD
ATOM     11  H   UNL     1      -5.273  -2.050   1.857  0.00  0.00    +0.167 HD
ENDROOT
BRANCH   1  13
ATOM     12  C   UNL     1      -0.062   1.593   0.008  0.00  0.00    +0.009 C 
ATOM     13  C   UNL     1      -0.029   0.063   0.006  0.00  0.00    +0.039 C 
ENDBRANCH   1  13
BRANCH   7  14
ATOM     14  C   UNL     1      -7.402  -2.513   0.436  0.00  0.00    +0.066 C 
ATOM     15  C   UNL     1      -7.433  -4.013   0.138  0.00  0.00    +0.011 C 
ENDBRANCH   7  14
BRANCH   9  16
ATOM     16  S   UNL     1      -4.211  -3.360  -2.428  0.00  0.00    -0.124 S 
BRANCH  16  17
ATOM     17  C   UNL     1      -2.651  -3.247  -3.347  0.00  0.00    +0.167 C 
BRANCH  17  18
ATOM     18  C   UNL     1      -2.333  -4.584  -3.964  0.00  0.00    +0.227 C 
ATOM     19  O   UNL     1      -3.084  -5.522  -3.799  0.00  0.00    -0.275 OA
ATOM     20  N   UNL     1      -1.213  -4.739  -4.698  0.00  0.00    -0.285 N 
ATOM     21  H   UNL     1      -0.647  -3.974  -4.885  0.00  0.00    +0.155 HD
BRANCH  20  22
ATOM     22  C   UNL     1      -0.868  -6.002  -5.191  0.00  0.00    +0.036 A 
ATOM     23  C   UNL     1       0.467  -6.376  -5.273  0.00  0.00    +0.023 A 
ATOM     24  C   UNL     1       0.804  -7.623  -5.760  0.00  0.00    +0.004 A 
ATOM     25  C   UNL     1      -0.186  -8.500  -6.165  0.00  0.00    +0.033 A 
ATOM     26  C   UNL     1      -1.516  -8.130  -6.085  0.00  0.00    +0.128 A 
ATOM     27  C   UNL     1      -1.860  -6.886  -5.593  0.00  0.00    +0.056 A 
BRANCH  26  28
ATOM     28  N   UNL     1      -2.572  -9.071  -6.521  0.00  0.00    +0.056 N 
ATOM     29  O   UNL     1      -2.272 -10.162  -6.946  0.00  0.00    -0.126 OA
ATOM     30  O   UNL     1      -3.735  -8.749  -6.450  0.00  0.00    -0.126 OA
ENDBRANCH  26  28
ENDBRANCH  20  22
ENDBRANCH  17  18
ENDBRANCH  16  17
ENDBRANCH   9  16
TORSDOF 7
