REMARK  Name = ZINC04030867
REMARK  6 active torsions:
REMARK  status: ('A' for Active; 'I' for Inactive)
REMARK    1  A    between atoms: C_1  and  C_2
REMARK    2  A    between atoms: C_7  and  O_10
REMARK    3  A    between atoms: O_10  and  C_11
REMARK    4  A    between atoms: C_11  and  C_13
REMARK    5  A    between atoms: C_14  and  C_28
REMARK    6  A    between atoms: C_19  and  C_21
REMARK                            x       y       z     vdW  Elec       q    Type
REMARK                         _______ _______ _______ _____ _____    ______ ____
ROOT
ATOM      1  C   UNL     1       1.339  -2.796  -1.537  0.00  0.00    +0.078 C 
ATOM      2  C   UNL     1       0.282  -3.391  -2.130  0.00  0.00    +0.021 C 
ATOM      3  N   UNL     1      -0.818  -3.756  -1.409  0.00  0.00    -0.273 N 
ATOM      4  C   UNL     1      -0.939  -3.560  -0.090  0.00  0.00    +0.304 C 
ATOM      5  O   UNL     1      -1.959  -3.918   0.467  0.00  0.00    -0.252 OA
ATOM      6  N   UNL     1       0.032  -2.977   0.641  0.00  0.00    -0.288 N 
ATOM      7  C   UNL     1       1.262  -2.547  -0.044  0.00  0.00    +0.145 C 
ATOM      8  C   UNL     1       0.318  -3.657  -3.613  0.00  0.00    +0.061 C 
ATOM      9  H   UNL     1      -1.553  -4.181  -1.878  0.00  0.00    +0.156 HD
ATOM     10  H   UNL     1      -0.078  -2.845   1.595  0.00  0.00    +0.151 HD
ENDROOT
BRANCH   7  11
ATOM     11  C   UNL     1       1.431  -1.068   0.190  0.00  0.00    -0.004 A 
ATOM     12  C   UNL     1       0.319  -0.251   0.280  0.00  0.00    +0.007 A 
ATOM     13  C   UNL     1       0.473   1.106   0.494  0.00  0.00    +0.000 A 
ATOM     14  C   UNL     1       1.740   1.647   0.618  0.00  0.00    +0.001 A 
ATOM     15  C   UNL     1       2.852   0.832   0.527  0.00  0.00    +0.020 A 
ATOM     16  C   UNL     1       2.698  -0.527   0.313  0.00  0.00    +0.046 A 
ATOM     17 CL   UNL     1       4.094  -1.552   0.201  0.00  0.00    -0.083 Cl
ENDBRANCH   7  11
BRANCH   1  18
ATOM     18  C   UNL     1       2.480  -2.418  -2.283  0.00  0.00    +0.339 C 
ATOM     19  O   UNL     1       2.620  -1.262  -2.637  0.00  0.00    -0.245 OA
BRANCH  18  20
ATOM     20  O   UNL     1       3.413  -3.339  -2.603  0.00  0.00    -0.458 OA
BRANCH  20  26
ATOM     21  C   UNL     1       6.704  -6.061  -2.904  0.00  0.00    +0.007 C 
ATOM     22  C   UNL     1       5.504  -5.193  -3.291  0.00  0.00    -0.011 C 
ATOM     23  C   UNL     1       5.279  -5.279  -4.802  0.00  0.00    +0.003 C 
ATOM     24  C   UNL     1       4.080  -4.412  -5.189  0.00  0.00    +0.004 C 
ATOM     25  C   UNL     1       4.353  -2.959  -4.796  0.00  0.00    +0.045 C 
ATOM     26  C   UNL     1       4.579  -2.873  -3.285  0.00  0.00    +0.177 C 
ATOM     27  C   UNL     1       5.778  -3.740  -2.898  0.00  0.00    +0.048 C 
ENDBRANCH  20  26
ENDBRANCH  18  20
ENDBRANCH   1  18
TORSDOF 4
