REMARK  Name = ZINC65319606
REMARK  7 active torsions:
REMARK  status: ('A' for Active; 'I' for Inactive)
REMARK    1  A    between atoms: C_2  and  C_3
REMARK    2  A    between atoms: C_3  and  N_4
REMARK    3  A    between atoms: C_5  and  C_7
REMARK    4  A    between atoms: C_7  and  N_8
REMARK    5  A    between atoms: C_9  and  C_11
REMARK    6  A    between atoms: C_11  and  N_12
REMARK    7  A    between atoms: C_13  and  C_15
REMARK                            x       y       z     vdW  Elec       q    Type
REMARK                         _______ _______ _______ _____ _____    ______ ____
ROOT
ATOM      1  N   UNL     1       2.979   5.290   0.002  0.00  0.00    -0.305 N 
ATOM      2  C   UNL     1       4.137   5.979  -0.005  0.00  0.00    +0.231 C 
ATOM      3  O   UNL     1       5.195   5.387  -0.019  0.00  0.00    -0.274 OA
ATOM      4  H   UNL     1       2.132   5.763   0.013  0.00  0.00    +0.149 HD
ENDROOT
BRANCH   1   5
ATOM      5  C   UNL     1       2.999   3.825  -0.006  0.00  0.00    +0.200 C 
BRANCH   5   7
ATOM      6  N   UNL     1       1.357   1.975  -0.000  0.00  0.00    -0.303 N 
ATOM      7  C   UNL     1       1.585   3.303   0.005  0.00  0.00    +0.231 C 
ATOM      8  O   UNL     1       0.652   4.079   0.018  0.00  0.00    -0.274 OA
ATOM      9  H   UNL     1       2.102   1.355  -0.011  0.00  0.00    +0.150 HD
BRANCH   6  10
ATOM     10  C   UNL     1      -0.018   1.468   0.010  0.00  0.00    +0.193 C 
BRANCH  10  12
ATOM     11  C   UNL     1       0.018  -1.178  -0.004  0.00  0.00    +0.005 C 
ATOM     12  C   UNL     1       0.002  -0.004   0.002  0.00  0.00    -0.087 C 
ENDBRANCH  10  12
ENDBRANCH   6  10
ENDBRANCH   5   7
ENDBRANCH   1   5
BRANCH   2  13
ATOM     13  C   UNL     1       4.116   7.486   0.003  0.00  0.00    +0.200 C 
BRANCH  13  14
ATOM     14  N   UNL     1       5.491   7.993  -0.007  0.00  0.00    -0.303 N 
ATOM     15  C   UNL     1       5.719   9.322  -0.003  0.00  0.00    +0.245 C 
ATOM     16  O   UNL     1       4.784  10.099   0.011  0.00  0.00    -0.270 OA
ATOM     17  H   UNL     1       6.236   7.373  -0.018  0.00  0.00    +0.150 HD
BRANCH  15  18
ATOM     18  C   UNL     1       7.106   9.833  -0.013  0.00  0.00    +0.050 A 
ATOM     19  C   UNL     1       8.181   8.943  -0.034  0.00  0.00    +0.014 A 
ATOM     20  C   UNL     1       9.473   9.427  -0.044  0.00  0.00    +0.001 A 
ATOM     21  C   UNL     1       9.704  10.792  -0.033  0.00  0.00    +0.001 A 
ATOM     22  C   UNL     1       8.644  11.679  -0.012  0.00  0.00    +0.015 A 
ATOM     23  C   UNL     1       7.346  11.209  -0.008  0.00  0.00    +0.025 A 
ATOM     24  I   UNL     1       5.740  12.555   0.015  0.00  0.00    -0.043 I 
ENDBRANCH  15  18
ENDBRANCH  13  14
ENDBRANCH   2  13
TORSDOF 7
