REMARK  Name = ZINC60392544
REMARK  8 active torsions:
REMARK  status: ('A' for Active; 'I' for Inactive)
REMARK    1  A    between atoms: C_1  and  C_2
REMARK    2  A    between atoms: C_2  and  C_3
REMARK    3  A    between atoms: C_2  and  C_4
REMARK    4  A    between atoms: C_4  and  C_5
REMARK    5  A    between atoms: C_5  and  C_7
REMARK    6  A    between atoms: C_5  and  N_26
REMARK    7  A    between atoms: N_12  and  S_15
REMARK    8  A    between atoms: S_15  and  C_18
REMARK                            x       y       z     vdW  Elec       q    Type
REMARK                         _______ _______ _______ _____ _____    ______ ____
ROOT
ATOM      1  C   UNL     1      -3.557  -0.630  -1.310  0.00  0.00    +0.236 C 
ATOM      2  O   UNL     1      -3.896  -1.456  -2.131  0.00  0.00    -0.274 OA
ATOM      3  N   UNL     1      -4.453  -0.156  -0.422  0.00  0.00    -0.297 N 
ATOM      4  C   UNL     1      -4.090   0.929   0.500  0.00  0.00    +0.125 C 
ATOM      5  C   UNL     1      -5.098   2.073   0.333  0.00  0.00    +0.128 C 
ATOM      6  N   UNL     1      -6.456   1.514   0.397  0.00  0.00    -0.174 NA
ATOM      7  C   UNL     1      -6.819   0.429  -0.525  0.00  0.00    +0.128 C 
ATOM      8  C   UNL     1      -5.813  -0.711  -0.362  0.00  0.00    +0.125 C 
ENDROOT
BRANCH   6   9
ATOM      9  S   UNL     1      -7.557   2.096   1.488  0.00  0.00    +0.061 S 
ATOM     10  O   UNL     1      -8.504   1.059   1.703  0.00  0.00    -0.153 OA
ATOM     11  O   UNL     1      -6.809   2.677   2.548  0.00  0.00    -0.153 OA
BRANCH   9  12
ATOM     12  C   UNL     1      -8.423   3.414   0.702  0.00  0.00    +0.107 A 
ATOM     13  C   UNL     1      -7.945   4.708   0.796  0.00  0.00    +0.030 A 
ATOM     14  C   UNL     1      -8.623   5.743   0.180  0.00  0.00    +0.023 A 
ATOM     15  C   UNL     1      -9.781   5.484  -0.531  0.00  0.00    +0.059 A 
ATOM     16  C   UNL     1     -10.260   4.188  -0.625  0.00  0.00    +0.061 A 
ATOM     17  C   UNL     1      -9.577   3.153  -0.012  0.00  0.00    +0.050 A 
ATOM     18 CL   UNL     1     -11.714   3.862  -1.516  0.00  0.00    -0.082 Cl
ATOM     19 CL   UNL     1     -10.634   6.783  -1.304  0.00  0.00    -0.082 Cl
ENDBRANCH   9  12
ENDBRANCH   6   9
BRANCH   1  20
ATOM     20  C   UNL     1      -2.135  -0.133  -1.284  0.00  0.00    +0.161 C 
BRANCH  20  21
ATOM     21  N   UNL     1      -1.485  -0.445  -2.559  0.00  0.00    -0.288 N 
ATOM     22  C   UNL     1      -0.441   0.294  -2.983  0.00  0.00    +0.298 C 
ATOM     23  O   UNL     1      -0.039   1.221  -2.307  0.00  0.00    -0.253 OA
ATOM     24  N   UNL     1       0.157   0.007  -4.156  0.00  0.00    -0.313 N 
ATOM     25  H   UNL     1      -1.806  -1.185  -3.099  0.00  0.00    +0.151 HD
ATOM     26  H   UNL     1      -0.164  -0.733  -4.696  0.00  0.00    +0.146 HD
ATOM     27  H   UNL     1       0.908   0.539  -4.461  0.00  0.00    +0.146 HD
ENDBRANCH  20  21
BRANCH  20  28
ATOM     28  C   UNL     1      -1.377  -0.816  -0.144  0.00  0.00    +0.034 C 
BRANCH  28  30
ATOM     29  C   UNL     1      -0.122   1.271   0.414  0.00  0.00    +0.007 C 
ATOM     30  C   UNL     1       0.014  -0.192  -0.011  0.00  0.00    -0.015 C 
ATOM     31  C   UNL     1       0.817  -0.957   1.044  0.00  0.00    +0.007 C 
ENDBRANCH  28  30
ENDBRANCH  20  28
ENDBRANCH   1  20
TORSDOF 6
