REMARK  Name = ZINC04795018
REMARK  8 active torsions:
REMARK  status: ('A' for Active; 'I' for Inactive)
REMARK    1  A    between atoms: C_1  and  C_2
REMARK    2  A    between atoms: C_2  and  C_29
REMARK    3  A    between atoms: C_3  and  N_18
REMARK    4  A    between atoms: N_5  and  N_9
REMARK    5  A    between atoms: C_10  and  C_11
REMARK    6  A    between atoms: C_16  and  O_17
REMARK    7  A    between atoms: N_18  and  O_28
REMARK    8  A    between atoms: N_21  and  C_22
REMARK                            x       y       z     vdW  Elec       q    Type
REMARK                         _______ _______ _______ _____ _____    ______ ____
ROOT
ATOM      1  C   UNL     1      -3.853  -3.332  -0.336  0.00  0.00    +0.026 C 
ATOM      2  C   UNL     1      -2.503  -3.819   0.193  0.00  0.00    +0.056 C 
ATOM      3  C   UNL     1      -1.944  -2.856   1.261  0.00  0.00    +0.232 C 
ATOM      4  N   UNL     1      -1.785  -3.472   2.558  0.00  0.00    -0.187 N 
ATOM      5  C   UNL     1      -2.110  -4.758   2.752  0.00  0.00    +0.132 C 
ATOM      6  S   UNL     1      -1.989  -5.644   4.212  0.00  0.00    -0.026 S 
ATOM      7  S   UNL     1      -2.694  -5.353   1.179  0.00  0.00    -0.091 S 
ATOM      8  C   UNL     1      -1.504  -4.017  -0.949  0.00  0.00    +0.026 C 
ENDROOT
BRANCH   3   9
ATOM      9  N   UNL     1      -0.639  -2.362   0.812  0.00  0.00    -0.143 N 
ATOM     10  C   UNL     1      -0.567  -1.477  -0.202  0.00  0.00    +0.327 C 
ATOM     11  O   UNL     1      -1.574  -1.157  -0.803  0.00  0.00    -0.250 OA
ATOM     12  N   UNL     1       0.623  -0.948  -0.550  0.00  0.00    -0.295 N 
ATOM     13  H   UNL     1       1.427  -1.204  -0.071  0.00  0.00    +0.151 HD
BRANCH  12  14
ATOM     14  C   UNL     1       0.702   0.014  -1.653  0.00  0.00    +0.074 C 
ATOM     15  C   UNL     1       0.815  -0.740  -2.980  0.00  0.00    +0.022 C 
ATOM     16  C   UNL     1       0.897   0.265  -4.131  0.00  0.00    +0.002 C 
ATOM     17  C   UNL     1       2.128   1.154  -3.944  0.00  0.00    +0.000 C 
ATOM     18  C   UNL     1       2.015   1.908  -2.617  0.00  0.00    +0.002 C 
ATOM     19  C   UNL     1       1.933   0.903  -1.466  0.00  0.00    +0.022 C 
ENDBRANCH  12  14
BRANCH   9  20
ATOM     20  O   UNL     1       0.544  -2.814   1.444  0.00  0.00    -0.289 OA
ATOM     21  H   UNL     1       0.398  -3.504   2.105  0.00  0.00    +0.242 HD
ENDBRANCH   9  20
ENDBRANCH   3   9
BRANCH   4  22
ATOM     22  N   UNL     1      -1.286  -2.716   3.626  0.00  0.00    -0.184 NA
ATOM     23  C   UNL     1      -1.947  -1.685   4.057  0.00  0.00    +0.142 C 
BRANCH  23  24
ATOM     24  C   UNL     1      -1.369  -0.824   5.104  0.00  0.00    +0.036 A 
ATOM     25  C   UNL     1      -2.075   0.289   5.567  0.00  0.00    +0.013 A 
ATOM     26  C   UNL     1      -1.531   1.088   6.550  0.00  0.00    +0.001 A 
ATOM     27  C   UNL     1      -0.283   0.798   7.074  0.00  0.00    +0.004 A 
ATOM     28  C   UNL     1       0.428  -0.298   6.621  0.00  0.00    +0.046 A 
ATOM     29  C   UNL     1      -0.106  -1.114   5.637  0.00  0.00    +0.125 A 
BRANCH  29  30
ATOM     30  O   UNL     1       0.591  -2.191   5.192  0.00  0.00    -0.506 OA
ATOM     31  H   UNL     1       1.171  -2.001   4.441  0.00  0.00    +0.292 HD
ENDBRANCH  29  30
ENDBRANCH  23  24
ENDBRANCH   4  22
TORSDOF 6
