REMARK  Name = ZINC56156157
REMARK  12 active torsions:
REMARK  status: ('A' for Active; 'I' for Inactive)
REMARK    1  A    between atoms: C_1  and  C_2
REMARK    2  A    between atoms: N_7  and  C_9
REMARK    3  A    between atoms: C_9  and  C_10
REMARK    4  A    between atoms: C_15  and  C_16
REMARK    5  A    between atoms: C_16  and  N_17
REMARK    6  A    between atoms: N_17  and  C_18
REMARK    7  A    between atoms: C_18  and  C_20
REMARK    8  A    between atoms: C_18  and  C_21
REMARK    9  A    between atoms: N_26  and  C_27
REMARK   10  A    between atoms: C_27  and  C_28
REMARK   11  A    between atoms: C_27  and  C_29
REMARK   12  A    between atoms: C_27  and  C_30
REMARK                            x       y       z     vdW  Elec       q    Type
REMARK                         _______ _______ _______ _____ _____    ______ ____
ROOT
ATOM      1  C   UNL     1       3.363  -4.166   1.178  0.00  0.00    +0.117 C 
ENDROOT
BRANCH   1   7
ATOM      2  C   UNL     1       1.446  -3.957   2.773  0.00  0.00    -0.060 A 
ATOM      3  C   UNL     1       0.444  -4.513   3.547  0.00  0.00    +0.002 A 
ATOM      4  C   UNL     1       0.276  -5.884   3.578  0.00  0.00    +0.000 A 
ATOM      5  C   UNL     1       1.109  -6.700   2.836  0.00  0.00    +0.000 A 
ATOM      6  C   UNL     1       2.110  -6.145   2.062  0.00  0.00    +0.005 A 
ATOM      7  C   UNL     1       2.275  -4.772   2.027  0.00  0.00    -0.032 A 
BRANCH   2   8
ATOM      8  C   UNL     1       1.629  -2.462   2.739  0.00  0.00    -0.043 C 
BRANCH   8  14
ATOM      9  C   UNL     1      -0.045   1.785   4.508  0.00  0.00    +0.005 C 
ATOM     10  C   UNL     1      -0.328   0.287   4.382  0.00  0.00    -0.031 C 
ATOM     11  C   UNL     1      -1.665   0.078   3.665  0.00  0.00    -0.001 C 
ATOM     12  C   UNL     1      -1.901  -1.423   3.474  0.00  0.00    -0.018 C 
ATOM     13  C   UNL     1      -0.727  -2.025   2.699  0.00  0.00    -0.078 C 
ATOM     14  N   UNL     1       0.517  -1.815   3.448  0.00  0.00    +0.383 N 
ATOM     15  C   UNL     1       0.788  -0.378   3.574  0.00  0.00    -0.075 C 
ATOM     16  H   UNL     1       0.427  -2.220   4.368  0.00  0.00    -0.081 HD
ENDBRANCH   8  14
ENDBRANCH   2   8
ENDBRANCH   1   7
BRANCH   1  17
ATOM     17  N   UNL     1       4.486  -3.764   2.036  0.00  0.00    -0.302 NA
ATOM     18  H   UNL     1       4.180  -3.133   2.761  0.00  0.00    +0.123 HD
BRANCH  17  19
ATOM     19  C   UNL     1       5.568  -3.168   1.241  0.00  0.00    +0.138 C 
ATOM     20  C   UNL     1       5.284  -1.680   1.028  0.00  0.00    +0.034 C 
BRANCH  19  21
ATOM     21  C   UNL     1       6.876  -3.330   1.972  0.00  0.00    +0.237 C 
ATOM     22  O   UNL     1       6.904  -3.887   3.048  0.00  0.00    -0.274 OA
ATOM     23  N   UNL     1       8.015  -2.855   1.429  0.00  0.00    -0.239 N 
ATOM     24  C   UNL     1       9.185  -3.000   2.083  0.00  0.00    +0.306 C 
ATOM     25  O   UNL     1       9.213  -3.558   3.162  0.00  0.00    -0.252 OA
ATOM     26  N   UNL     1      10.323  -2.525   1.540  0.00  0.00    -0.294 N 
ATOM     27  H   UNL     1       7.992  -2.409   0.568  0.00  0.00    +0.159 HD
ATOM     28  H   UNL     1      10.301  -2.079   0.679  0.00  0.00    +0.151 HD
BRANCH  26  29
ATOM     29  C   UNL     1      11.595  -2.683   2.250  0.00  0.00    +0.028 C 
ATOM     30  C   UNL     1      11.879  -4.171   2.463  0.00  0.00    +0.031 C 
ATOM     31  C   UNL     1      12.722  -2.061   1.423  0.00  0.00    +0.031 C 
ATOM     32  C   UNL     1      11.511  -1.980   3.607  0.00  0.00    +0.031 C 
ENDBRANCH  26  29
ENDBRANCH  19  21
ENDBRANCH  17  19
ENDBRANCH   1  17
TORSDOF 7
