REMARK  Name = ZINC37821821
REMARK  5 active torsions:
REMARK  status: ('A' for Active; 'I' for Inactive)
REMARK    1  A    between atoms: C_6  and  C_7
REMARK    2  A    between atoms: C_13  and  C_15
REMARK    3  A    between atoms: C_15  and  C_17
REMARK    4  A    between atoms: C_15  and  N_21
REMARK    5  A    between atoms: C_17  and  C_18
REMARK                            x       y       z     vdW  Elec       q    Type
REMARK                         _______ _______ _______ _____ _____    ______ ____
ROOT
ATOM      1  C   UNL     1      -1.293  -0.775   0.011  0.00  0.00    +0.106 C 
ATOM      2  C   UNL     1      -1.579  -1.304   1.432  0.00  0.00    +0.029 C 
ATOM      3  C   UNL     1      -2.179  -2.710   1.165  0.00  0.00    +0.021 C 
ATOM      4  C   UNL     1      -1.366  -3.165  -0.073  0.00  0.00    +0.108 C 
ATOM      5  N   UNL     1      -1.187  -1.940  -0.879  0.00  0.00    -0.296 N 
ATOM      6  C   UNL     1      -0.965  -1.896  -2.208  0.00  0.00    +0.202 C 
ATOM      7  O   UNL     1      -0.833  -0.827  -2.766  0.00  0.00    -0.277 OA
ENDROOT
BRANCH   1  13
ATOM      8  C   UNL     1      -0.017   1.378   0.010  0.00  0.00    +0.007 A 
ATOM      9  C   UNL     1       1.171   2.086   0.002  0.00  0.00    +0.022 A 
ATOM     10  C   UNL     1       2.378   1.412  -0.013  0.00  0.00    +0.059 A 
ATOM     11  C   UNL     1       2.397   0.027  -0.021  0.00  0.00    +0.060 A 
ATOM     12  C   UNL     1       1.208  -0.680  -0.013  0.00  0.00    +0.027 A 
ATOM     13  C   UNL     1       0.002  -0.004   0.002  0.00  0.00    -0.026 A 
ATOM     14 CL   UNL     1       3.912  -0.821  -0.040  0.00  0.00    -0.082 Cl
ATOM     15 CL   UNL     1       3.869   2.301  -0.023  0.00  0.00    -0.082 Cl
ENDBRANCH   1  13
BRANCH   6  16
ATOM     16  C   UNL     1      -0.879  -3.175  -3.001  0.00  0.00    +0.022 C 
BRANCH  16  17
ATOM     17  N   UNL     1      -1.113  -2.887  -4.422  0.00  0.00    +0.386 N 
ATOM     18  H   UNL     1      -1.056  -3.743  -4.953  0.00  0.00    -0.089 HD
ATOM     19  H   UNL     1      -2.030  -2.481  -4.537  0.00  0.00    -0.089 HD
ATOM     20  H   UNL     1      -0.414  -2.239  -4.753  0.00  0.00    -0.089 HD
ENDBRANCH  16  17
BRANCH  16  21
ATOM     21  C   UNL     1       0.510  -3.791  -2.827  0.00  0.00    +0.088 C 
BRANCH  21  22
ATOM     22  C   UNL     1       0.557  -5.129  -3.518  0.00  0.00    +0.209 C 
ATOM     23  O   UNL     1      -0.425  -5.549  -4.093  0.00  0.00    -0.276 OA
ATOM     24  N   UNL     1       1.689  -5.859  -3.497  0.00  0.00    -0.329 N 
ATOM     25  H   UNL     1       2.475  -5.524  -3.038  0.00  0.00    +0.145 HD
ATOM     26  H   UNL     1       1.719  -6.721  -3.942  0.00  0.00    +0.145 HD
ENDBRANCH  21  22
ENDBRANCH  16  21
ENDBRANCH   6  16
TORSDOF 5
