REMARK  Name = ZINC09124690
REMARK  2 active torsions:
REMARK  status: ('A' for Active; 'I' for Inactive)
REMARK    1  A    between atoms: C_10  and  C_28
REMARK    2  A    between atoms: C_15  and  C_20
REMARK                            x       y       z     vdW  Elec       q    Type
REMARK                         _______ _______ _______ _____ _____    ______ ____
ROOT
ATOM      1  C   UNL     1      -0.017   1.379   0.010  0.00  0.00    +0.002 A 
ATOM      2  C   UNL     1       1.147   2.129   0.003  0.00  0.00    +0.002 A 
ATOM      3  C   UNL     1       2.401   1.539  -0.013  0.00  0.00    +0.028 A 
ATOM      4  C   UNL     1       2.447   0.150  -0.021  0.00  0.00    +0.069 A 
ATOM      5  C   UNL     1       1.258  -0.622  -0.013  0.00  0.00    +0.066 A 
ATOM      6  C   UNL     1       0.002  -0.004   0.002  0.00  0.00    +0.028 A 
ATOM      7  N   UNL     1       1.621  -1.920  -0.020  0.00  0.00    -0.327 N 
ATOM      8  C   UNL     1       2.924  -2.004  -0.031  0.00  0.00    +0.179 A 
ATOM      9  N   UNL     1       3.478  -0.744  -0.038  0.00  0.00    -0.301 N 
ATOM     10  C   UNL     1       4.920  -0.513  -0.061  0.00  0.00    +0.157 C 
ATOM     11  C   UNL     1       5.657  -1.787   0.284  0.00  0.00    +0.039 C 
ATOM     12  C   UNL     1       7.018  -1.664   0.624  0.00  0.00    +0.164 C 
ATOM     13  C   UNL     1       7.843  -2.861   1.004  0.00  0.00    +0.088 C 
ATOM     14  C   UNL     1       6.926  -3.925   1.617  0.00  0.00    +0.032 C 
ATOM     15  C   UNL     1       5.824  -4.250   0.606  0.00  0.00    +0.060 C 
ATOM     16  C   UNL     1       5.053  -2.993   0.274  0.00  0.00    +0.020 C 
ATOM     17  N   UNL     1       3.721  -3.136  -0.032  0.00  0.00    -0.290 N 
ATOM     18  O   UNL     1       7.537  -0.565   0.610  0.00  0.00    -0.292 OA
ATOM     19  H   UNL     1       3.349  -4.006  -0.241  0.00  0.00    +0.155 HD
ATOM     20  H   UNL     1       1.011  -2.673  -0.017  0.00  0.00    +0.169 HD
ENDROOT
BRANCH  14  21
ATOM     21  C   UNL     1       7.721  -5.168   1.920  0.00  0.00    -0.042 A 
ATOM     22  C   UNL     1       8.375  -5.836   0.901  0.00  0.00    +0.004 A 
ATOM     23  C   UNL     1       9.104  -6.977   1.179  0.00  0.00    +0.002 A 
ATOM     24  C   UNL     1       9.181  -7.451   2.475  0.00  0.00    +0.020 A 
ATOM     25  C   UNL     1       8.527  -6.783   3.495  0.00  0.00    +0.041 A 
ATOM     26  C   UNL     1       7.801  -5.638   3.218  0.00  0.00    +0.024 A 
ATOM     27 CL   UNL     1       8.622  -7.378   5.123  0.00  0.00    -0.084 Cl
ENDBRANCH  14  21
BRANCH  10  28
ATOM     28  C   UNL     1       5.330  -0.059  -1.438  0.00  0.00    -0.002 A 
ATOM     29  C   UNL     1       5.942   1.172  -1.619  0.00  0.00    +0.009 A 
ATOM     30  C   UNL     1       6.303   1.548  -2.904  0.00  0.00    +0.020 A 
ATOM     31  C   UNL     1       6.042   0.689  -3.955  0.00  0.00    +0.111 A 
ATOM     32  N   UNL     1       5.458  -0.475  -3.746  0.00  0.00    -0.263 NA
ATOM     33  C   UNL     1       5.107  -0.868  -2.537  0.00  0.00    +0.116 A 
ENDBRANCH  10  28
TORSDOF 2
