REMARK  Name = ZINC63385272
REMARK  10 active torsions:
REMARK  status: ('A' for Active; 'I' for Inactive)
REMARK    1  A    between atoms: C_1  and  C_2
REMARK    2  A    between atoms: C_2  and  C_4
REMARK    3  A    between atoms: C_2  and  N_10
REMARK    4  A    between atoms: C_11  and  C_13
REMARK    5  A    between atoms: C_13  and  C_15
REMARK    6  A    between atoms: C_13  and  N_25
REMARK    7  A    between atoms: C_15  and  C_16
REMARK    8  A    between atoms: C_26  and  C_28
REMARK    9  A    between atoms: C_30  and  C_40
REMARK   10  A    between atoms: C_30  and  C_41
REMARK                            x       y       z     vdW  Elec       q    Type
REMARK                         _______ _______ _______ _____ _____    ______ ____
ROOT
ATOM      1  C   UNL     1      -3.293  -0.769  -1.155  0.00  0.00    +0.163 C 
ENDROOT
BRANCH   1   3
ATOM      2  N   UNL     1      -0.897  -0.869  -0.546  0.00  0.00    -0.307 N 
ATOM      3  C   UNL     1      -1.829  -0.701  -1.506  0.00  0.00    +0.234 C 
ATOM      4  O   UNL     1      -1.488  -0.496  -2.652  0.00  0.00    -0.274 OA
ATOM      5  H   UNL     1      -1.169  -1.033   0.370  0.00  0.00    +0.149 HD
BRANCH   2   7
ATOM      6  C   UNL     1       0.986   0.656  -0.874  0.00  0.00    +0.033 C 
ATOM      7  C   UNL     1       0.526  -0.803  -0.887  0.00  0.00    +0.100 C 
BRANCH   7   8
ATOM      8  C   UNL     1       1.321  -1.589   0.123  0.00  0.00    -0.027 A 
ATOM      9  C   UNL     1       0.983  -1.536   1.462  0.00  0.00    +0.005 A 
ATOM     10  C   UNL     1       1.713  -2.257   2.389  0.00  0.00    +0.000 A 
ATOM     11  C   UNL     1       2.780  -3.032   1.975  0.00  0.00    +0.000 A 
ATOM     12  C   UNL     1       3.118  -3.087   0.636  0.00  0.00    +0.000 A 
ATOM     13  C   UNL     1       2.385  -2.368  -0.291  0.00  0.00    +0.005 A 
ENDBRANCH   7   8
ENDBRANCH   2   7
ENDBRANCH   1   3
BRANCH   1  14
ATOM     14  N   UNL     1      -4.095  -0.557  -2.363  0.00  0.00    -0.302 N 
ATOM     15  C   UNL     1      -3.943   0.572  -3.083  0.00  0.00    +0.236 C 
ATOM     16  O   UNL     1      -3.190   1.440  -2.697  0.00  0.00    -0.274 OA
ATOM     17  H   UNL     1      -4.734  -1.230  -2.644  0.00  0.00    +0.150 HD
BRANCH  15  18
ATOM     18  C   UNL     1      -4.711   0.756  -4.367  0.00  0.00    +0.190 C 
ATOM     19  C   UNL     1      -4.059  -0.116  -5.475  0.00  0.00    +0.111 C 
ATOM     20  S   UNL     1      -4.673   0.812  -6.952  0.00  0.00    -0.004 S 
ATOM     21  O   UNL     1      -3.681   0.788  -7.970  0.00  0.00    -0.172 OA
ATOM     22  O   UNL     1      -6.000   0.401  -7.249  0.00  0.00    -0.172 OA
ATOM     23  C   UNL     1      -4.709   2.478  -6.175  0.00  0.00    +0.228 C 
ATOM     24  N   UNL     1      -4.710   2.177  -4.724  0.00  0.00    -0.265 N 
ATOM     25  C   UNL     1      -5.881   2.851  -4.499  0.00  0.00    +0.221 C 
ATOM     26  O   UNL     1      -6.493   3.167  -3.501  0.00  0.00    -0.275 OA
ATOM     27  C   UNL     1      -6.114   3.060  -6.009  0.00  0.00    +0.142 C 
ATOM     28  C   UNL     1      -2.531  -0.087  -5.388  0.00  0.00    +0.037 C 
ATOM     29  C   UNL     1      -4.593  -1.550  -5.450  0.00  0.00    +0.037 C 
ENDBRANCH  15  18
ENDBRANCH   1  14
BRANCH   1  30
ATOM     30  C   UNL     1      -3.622   0.316  -0.128  0.00  0.00    +0.065 C 
BRANCH  30  31
ATOM     31  C   UNL     1      -5.050   0.160   0.327  0.00  0.00    -0.039 C 
ATOM     32  C   UNL     1      -5.487  -0.499   1.425  0.00  0.00    -0.001 A 
ATOM     33  C   UNL     1      -4.790  -1.240   2.482  0.00  0.00    +0.010 A 
ATOM     34  C   UNL     1      -5.515  -1.805   3.474  0.00  0.00    +0.001 A 
ATOM     35  C   UNL     1      -6.912  -1.701   3.518  0.00  0.00    +0.002 A 
ATOM     36  C   UNL     1      -7.623  -1.037   2.582  0.00  0.00    +0.026 A 
ATOM     37  C   UNL     1      -6.963  -0.403   1.493  0.00  0.00    +0.043 A 
ATOM     38  N   UNL     1      -7.420   0.288   0.477  0.00  0.00    -0.380 N 
ATOM     39  C   UNL     1      -6.285   0.714  -0.348  0.00  0.00    +0.144 C 
ATOM     40  H   UNL     1      -8.354   0.487   0.303  0.00  0.00    +0.160 HD
ENDBRANCH  30  31
ENDBRANCH   1  30
TORSDOF 7
