REMARK  Name = ZINC38682921
REMARK  14 active torsions:
REMARK  status: ('A' for Active; 'I' for Inactive)
REMARK    1  A    between atoms: C_1  and  C_2
REMARK    2  A    between atoms: C_2  and  C_3
REMARK    3  A    between atoms: C_3  and  C_4
REMARK    4  A    between atoms: C_4  and  O_5
REMARK    5  A    between atoms: O_5  and  C_6
REMARK    6  A    between atoms: C_11  and  C_12
REMARK    7  A    between atoms: C_17  and  O_26
REMARK    8  A    between atoms: C_21  and  N_25
REMARK    9  A    between atoms: C_22  and  C_23
REMARK   10  A    between atoms: O_26  and  C_27
REMARK   11  A    between atoms: C_27  and  C_29
REMARK   12  A    between atoms: C_29  and  C_31
REMARK   13  A    between atoms: C_29  and  O_32
REMARK   14  A    between atoms: O_32  and  C_33
REMARK                            x       y       z     vdW  Elec       q    Type
REMARK                         _______ _______ _______ _____ _____    ______ ____
ROOT
ATOM      1  C   UNL     1      -5.554  -3.737   0.201  0.00  0.00    +0.101 C 
ATOM      2  C   UNL     1      -6.346  -3.949  -1.061  0.00  0.00    +0.008 A 
ATOM      3  C   UNL     1      -5.938  -3.334  -2.232  0.00  0.00    +0.012 A 
ATOM      4  C   UNL     1      -6.653  -3.517  -3.399  0.00  0.00    +0.047 A 
ATOM      5  C   UNL     1      -7.785  -4.320  -3.401  0.00  0.00    +0.135 A 
ATOM      6  C   UNL     1      -8.196  -4.936  -2.231  0.00  0.00    +0.093 A 
ATOM      7  C   UNL     1      -7.476  -4.752  -1.058  0.00  0.00    +0.138 A 
ATOM      8  O   UNL     1      -7.892  -5.362   0.080  0.00  0.00    -0.441 OA
ATOM      9  C   UNL     1      -7.471  -4.913   1.274  0.00  0.00    +0.199 C 
ATOM     10  C   UNL     1      -6.370  -4.140   1.397  0.00  0.00    +0.098 C 
ENDROOT
BRANCH   1  16
ATOM     11  C   UNL     1      -3.056  -3.960   0.210  0.00  0.00    +0.125 A 
ATOM     12  C   UNL     1      -1.903  -4.731   0.167  0.00  0.00    +0.046 A 
ATOM     13  C   UNL     1      -1.997  -6.105   0.059  0.00  0.00    +0.004 A 
ATOM     14  C   UNL     1      -3.238  -6.712  -0.006  0.00  0.00    +0.001 A 
ATOM     15  C   UNL     1      -4.388  -5.946   0.036  0.00  0.00    +0.008 A 
ATOM     16  C   UNL     1      -4.300  -4.572   0.149  0.00  0.00    +0.007 A 
BRANCH  11  17
ATOM     17  O   UNL     1      -2.967  -2.608   0.317  0.00  0.00    -0.492 OA
BRANCH  17  18
ATOM     18  C   UNL     1      -1.654  -2.047   0.374  0.00  0.00    +0.229 C 
BRANCH  18  19
ATOM     19  C   UNL     1      -1.755  -0.525   0.492  0.00  0.00    +0.041 C 
BRANCH  19  21
ATOM     20  C   UNL     1      -0.449   1.598   0.671  0.00  0.00    +0.004 C 
ATOM     21  C   UNL     1      -0.349   0.076   0.553  0.00  0.00    -0.000 C 
ENDBRANCH  19  21
ENDBRANCH  18  19
ENDBRANCH  17  18
ENDBRANCH  11  17
ENDBRANCH   1  16
BRANCH   9  22
ATOM     22  N   UNL     1      -8.181  -5.249   2.400  0.00  0.00    -0.328 N 
ATOM     23  H   UNL     1      -8.973  -5.804   2.326  0.00  0.00    +0.145 HD
ATOM     24  H   UNL     1      -7.889  -4.932   3.269  0.00  0.00    +0.145 HD
ENDBRANCH   9  22
BRANCH  10  25
ATOM     25  C   UNL     1      -5.974  -3.695   2.699  0.00  0.00    +0.101 C 
ATOM     26  N   UNL     1      -5.660  -3.342   3.732  0.00  0.00    -0.191 NA
ENDBRANCH  10  25
BRANCH   5  27
ATOM     27  O   UNL     1      -8.490  -4.500  -4.549  0.00  0.00    -0.423 OA
BRANCH  27  28
ATOM     28  C   UNL     1      -9.727  -3.984  -4.617  0.00  0.00    +0.353 C 
ATOM     29  O   UNL     1     -10.146  -3.297  -3.715  0.00  0.00    -0.246 OA
BRANCH  28  30
ATOM     30  C   UNL     1     -10.594  -4.260  -5.819  0.00  0.00    +0.279 C 
ATOM     31  C   UNL     1     -10.918  -5.754  -5.881  0.00  0.00    +0.064 C 
BRANCH  30  32
ATOM     32  O   UNL     1     -11.808  -3.513  -5.712  0.00  0.00    -0.478 OA
BRANCH  32  33
ATOM     33  C   UNL     1     -12.478  -3.256  -6.867  0.00  0.00    +0.122 A 
ATOM     34  C   UNL     1     -13.698  -2.598  -6.829  0.00  0.00    +0.048 A 
ATOM     35  C   UNL     1     -14.378  -2.337  -8.003  0.00  0.00    +0.042 A 
ATOM     36  C   UNL     1     -13.842  -2.733  -9.217  0.00  0.00    +0.124 A 
ATOM     37  C   UNL     1     -12.624  -3.390  -9.256  0.00  0.00    +0.042 A 
ATOM     38  C   UNL     1     -11.939  -3.647  -8.084  0.00  0.00    +0.048 A 
ATOM     39  F   UNL     1     -14.508  -2.478 -10.364  0.00  0.00    -0.205 F 
ENDBRANCH  32  33
ENDBRANCH  30  32
ENDBRANCH  28  30
ENDBRANCH  27  28
ENDBRANCH   5  27
TORSDOF 12
