REMARK  Name = ZINC11999470
REMARK  11 active torsions:
REMARK  status: ('A' for Active; 'I' for Inactive)
REMARK    1  A    between atoms: C_1  and  C_2
REMARK    2  A    between atoms: C_7  and  C_8
REMARK    3  A    between atoms: C_10  and  C_13
REMARK    4  A    between atoms: C_13  and  N_55
REMARK    5  A    between atoms: C_14  and  N_55
REMARK    6  A    between atoms: C_15  and  C_16
REMARK    7  A    between atoms: C_15  and  N_55
REMARK    8  A    between atoms: C_17  and  C_29
REMARK    9  A    between atoms: C_19  and  C_21
REMARK   10  A    between atoms: C_24  and  S_27
REMARK   11  A    between atoms: S_27  and  C_28
REMARK                            x       y       z     vdW  Elec       q    Type
REMARK                         _______ _______ _______ _____ _____    ______ ____
ROOT
ATOM      1  C   UNL     1      -6.388  -0.522  -2.039  0.00  0.00    -0.095 C 
ATOM      2  N   UNL     1      -6.583   0.777  -1.362  0.00  0.00    +0.386 N 
ATOM      3  H   UNL     1      -6.044   1.496  -1.859  0.00  0.00    -0.081 HD
ENDROOT
BRANCH   2   4
ATOM      4  C   UNL     1      -8.014   1.149  -1.385  0.00  0.00    -0.003 C 
BRANCH   4  14
ATOM      5  C   UNL     1     -10.431   1.312  -8.422  0.00  0.00    +0.044 C 
ATOM      6  C   UNL     1      -9.832   1.721  -7.101  0.00  0.00    -0.045 A 
ATOM      7  C   UNL     1      -9.770   0.811  -6.067  0.00  0.00    +0.031 A 
ATOM      8  C   UNL     1      -9.217   1.190  -4.851  0.00  0.00    +0.066 A 
ATOM      9  C   UNL     1      -8.726   2.496  -4.682  0.00  0.00    +0.089 A 
ATOM     10  C   UNL     1      -8.800   3.400  -5.745  0.00  0.00    +0.033 A 
ATOM     11  C   UNL     1      -9.347   3.010  -6.934  0.00  0.00    -0.045 A 
ATOM     12  C   UNL     1      -9.424   3.989  -8.077  0.00  0.00    +0.044 C 
ATOM     13  N   UNL     1      -8.258   2.581  -3.411  0.00  0.00    -0.234 NA
ATOM     14  C   UNL     1      -8.418   1.439  -2.808  0.00  0.00    +0.091 A 
ATOM     15  N   UNL     1      -9.008   0.546  -3.648  0.00  0.00    -0.343 N 
ATOM     16  H   UNL     1      -9.246  -0.402  -3.433  0.00  0.00    +0.167 HD
ENDBRANCH   4  14
ENDBRANCH   2   4
BRANCH   2  17
ATOM     17  C   UNL     1      -6.105   0.697   0.034  0.00  0.00    -0.019 C 
BRANCH  17  18
ATOM     18  C   UNL     1      -4.607   0.536   0.026  0.00  0.00    +0.066 A 
ATOM     19  C   UNL     1      -3.936  -0.629   0.016  0.00  0.00    +0.124 A 
ATOM     20  O   UNL     1      -2.620  -0.334   0.006  0.00  0.00    -0.440 OA
ATOM     21  C   UNL     1      -2.502   1.005   0.019  0.00  0.00    +0.228 A 
ATOM     22  N   UNL     1      -3.705   1.530   0.027  0.00  0.00    -0.216 NA
ATOM     23  C   UNL     1      -4.542  -2.009   0.011  0.00  0.00    +0.088 C 
BRANCH  21  24
ATOM     24  C   UNL     1      -1.231   1.758   0.017  0.00  0.00    +0.037 A 
ATOM     25  C   UNL     1      -0.013   1.076   0.008  0.00  0.00    +0.014 A 
ATOM     26  C   UNL     1       1.170   1.781   0.001  0.00  0.00    +0.015 A 
ATOM     27  C   UNL     1       1.152   3.173   0.008  0.00  0.00    +0.008 A 
ATOM     28  C   UNL     1      -0.060   3.855   0.023  0.00  0.00    +0.015 A 
ATOM     29  C   UNL     1      -1.246   3.155   0.031  0.00  0.00    +0.014 A 
BRANCH  27  30
ATOM     30  S   UNL     1       2.667   4.072  -0.003  0.00  0.00    -0.129 S 
ATOM     31  C   UNL     1       2.147   5.809   0.011  0.00  0.00    +0.090 C 
ENDBRANCH  27  30
ENDBRANCH  21  24
ENDBRANCH  17  18
ENDBRANCH   2  17
TORSDOF 6
