REMARK  Name = ZINC61868571
REMARK  9 active torsions:
REMARK  status: ('A' for Active; 'I' for Inactive)
REMARK    1  A    between atoms: C_1  and  C_2
REMARK    2  A    between atoms: C_2  and  C_34
REMARK    3  A    between atoms: N_3  and  O_4
REMARK    4  A    between atoms: O_4  and  C_5
REMARK    5  A    between atoms: C_5  and  C_6
REMARK    6  A    between atoms: N_8  and  N_9
REMARK    7  A    between atoms: N_17  and  C_20
REMARK    8  A    between atoms: C_20  and  N_21
REMARK    9  A    between atoms: C_26  and  C_28
REMARK                            x       y       z     vdW  Elec       q    Type
REMARK                         _______ _______ _______ _____ _____    ______ ____
ROOT
ATOM      1  N   UNL     1      -0.365   0.182   7.176  0.00  0.00    -0.174 NA
ATOM      2  C   UNL     1      -0.387  -0.349   8.374  0.00  0.00    +0.153 C 
ATOM      3  C   UNL     1      -0.401  -1.788   8.722  0.00  0.00    +0.028 A 
ATOM      4  C   UNL     1      -0.394  -2.952   7.962  0.00  0.00    +0.012 A 
ATOM      5  C   UNL     1      -0.410  -4.181   8.590  0.00  0.00    +0.001 A 
ATOM      6  C   UNL     1      -0.434  -4.253   9.973  0.00  0.00    +0.002 A 
ATOM      7  C   UNL     1      -0.441  -3.104  10.736  0.00  0.00    +0.024 A 
ATOM      8  C   UNL     1      -0.424  -1.857  10.121  0.00  0.00    +0.047 A 
ATOM      9  N   UNL     1      -0.426  -0.568  10.645  0.00  0.00    -0.252 N 
ATOM     10  C   UNL     1      -0.399   0.358   9.671  0.00  0.00    +0.272 C 
ATOM     11  O   UNL     1      -0.389   1.564   9.830  0.00  0.00    -0.268 OA
ENDROOT
BRANCH   1  14
ATOM     12  C   UNL     1      -0.550  -0.081   4.817  0.00  0.00    +0.272 C 
ATOM     13  O   UNL     1      -0.483   1.123   4.691  0.00  0.00    -0.270 OA
ATOM     14  N   UNL     1      -0.497  -0.634   6.045  0.00  0.00    -0.203 N 
ATOM     15  H   UNL     1      -0.551  -1.597   6.146  0.00  0.00    +0.177 HD
BRANCH  12  16
ATOM     16  C   UNL     1      -0.693  -0.959   3.600  0.00  0.00    +0.359 C 
BRANCH  16  17
ATOM     17  O   UNL     1      -0.726  -0.145   2.426  0.00  0.00    -0.384 OA
BRANCH  17  20
ATOM     18  C   UNL     1      -0.808   1.242   0.062  0.00  0.00    +0.069 C 
ATOM     19  C   UNL     1      -0.900  -0.261   0.101  0.00  0.00    +0.105 C 
ATOM     20  N   UNL     1      -0.858  -0.877   1.222  0.00  0.00    -0.089 NA
BRANCH  19  21
ATOM     21  C   UNL     1      -1.041  -1.040  -1.182  0.00  0.00    +0.282 C 
ATOM     22  O   UNL     1      -1.867  -0.338  -2.146  0.00  0.00    -0.479 OA
ATOM     23  C   UNL     1      -2.693  -1.113  -2.866  0.00  0.00    +0.196 C 
ATOM     24  C   UNL     1      -3.028  -2.343  -2.483  0.00  0.00    +0.082 C 
ATOM     25  S   UNL     1      -2.104  -2.532  -0.959  0.00  0.00    -0.080 S 
ENDBRANCH  19  21
ENDBRANCH  17  20
ENDBRANCH  16  17
ENDBRANCH  12  16
ENDBRANCH   1  14
BRANCH   9  26
ATOM     26  C   UNL     1      -0.448  -0.260  12.076  0.00  0.00    +0.201 C 
BRANCH  26  27
ATOM     27  N   UNL     1       0.926  -0.056  12.555  0.00  0.00    -0.279 NA
ATOM     28  C   UNL     1       1.410   1.287  12.208  0.00  0.00    +0.086 C 
ATOM     29  C   UNL     1       2.886   1.413  12.590  0.00  0.00    +0.015 C 
ATOM     30  C   UNL     1       3.042   1.166  14.094  0.00  0.00    +0.003 C 
ATOM     31  C   UNL     1       2.486  -0.219  14.436  0.00  0.00    +0.024 C 
ATOM     32  C   UNL     1       1.021  -0.297  14.000  0.00  0.00    +0.090 C 
BRANCH  32  33
ATOM     33  C   UNL     1       0.476  -1.666  14.317  0.00  0.00    -0.012 A 
ATOM     34  C   UNL     1      -0.458  -1.833  15.329  0.00  0.00    +0.008 A 
ATOM     35  C   UNL     1      -0.932  -3.110  15.586  0.00  0.00    +0.020 A 
ATOM     36  C   UNL     1      -0.462  -4.167  14.830  0.00  0.00    +0.111 A 
ATOM     37  N   UNL     1       0.427  -3.971  13.876  0.00  0.00    -0.263 NA
ATOM     38  C   UNL     1       0.895  -2.770  13.600  0.00  0.00    +0.115 A 
ENDBRANCH  32  33
ENDBRANCH  26  27
ENDBRANCH   9  26
TORSDOF 8
