REMARK  Name = ZINC22063440
REMARK  10 active torsions:
REMARK  status: ('A' for Active; 'I' for Inactive)
REMARK    1  A    between atoms: C_4  and  C_7
REMARK    2  A    between atoms: C_7  and  C_8
REMARK    3  A    between atoms: C_7  and  C_31
REMARK    4  A    between atoms: C_7  and  O_37
REMARK    5  A    between atoms: C_8  and  C_9
REMARK    6  A    between atoms: C_9  and  N_10
REMARK    7  A    between atoms: N_10  and  C_11
REMARK    8  A    between atoms: N_10  and  C_22
REMARK    9  A    between atoms: C_11  and  C_12
REMARK   10  A    between atoms: C_12  and  C_13
REMARK                            x       y       z     vdW  Elec       q    Type
REMARK                         _______ _______ _______ _____ _____    ______ ____
ROOT
ATOM      1  N   UNL     1       4.343  -4.387   1.945  0.00  0.00    -0.301 NA
ENDROOT
BRANCH   1   2
ATOM      2  C   UNL     1       5.357  -3.661   2.721  0.00  0.00    +0.043 C 
ATOM      3  C   UNL     1       6.274  -2.888   1.770  0.00  0.00    -0.060 C 
ATOM      4  N   UNL     1       7.658  -3.344   1.927  0.00  0.00    +0.381 N 
ATOM      5  C   UNL     1       7.774  -4.765   1.591  0.00  0.00    -0.078 C 
ATOM      6  C   UNL     1       6.907  -5.599   2.536  0.00  0.00    -0.014 C 
ATOM      7  C   UNL     1       6.201  -4.658   3.525  0.00  0.00    +0.001 C 
ATOM      8  C   UNL     1       7.273  -3.875   4.295  0.00  0.00    -0.014 C 
ATOM      9  C   UNL     1       8.131  -3.096   3.291  0.00  0.00    -0.078 C 
ATOM     10  H   UNL     1       8.240  -2.823   1.288  0.00  0.00    -0.082 HD
ENDBRANCH   1   2
BRANCH   1  11
ATOM     11  C   UNL     1       3.407  -3.456   1.300  0.00  0.00    +0.088 C 
BRANCH  11  12
ATOM     12  C   UNL     1       2.697  -2.625   2.370  0.00  0.00    +0.060 C 
BRANCH  12  13
ATOM     13  C   UNL     1       1.458  -3.377   2.861  0.00  0.00    +0.117 C 
BRANCH  13  17
ATOM     14  C   UNL     1      -0.526  -1.058   5.850  0.00  0.00    +0.000 A 
ATOM     15  C   UNL     1      -1.254  -1.907   5.038  0.00  0.00    +0.000 A 
ATOM     16  C   UNL     1      -0.612  -2.658   4.071  0.00  0.00    +0.007 A 
ATOM     17  C   UNL     1       0.758  -2.558   3.915  0.00  0.00    -0.012 A 
ATOM     18  C   UNL     1       1.486  -1.708   4.726  0.00  0.00    +0.007 A 
ATOM     19  C   UNL     1       0.844  -0.959   5.695  0.00  0.00    +0.000 A 
ENDBRANCH  13  17
BRANCH  13  20
ATOM     20  C   UNL     1       1.874  -4.701   3.448  0.00  0.00    -0.012 A 
ATOM     21  C   UNL     1       3.112  -4.832   4.050  0.00  0.00    +0.007 A 
ATOM     22  C   UNL     1       3.494  -6.047   4.589  0.00  0.00    +0.000 A 
ATOM     23  C   UNL     1       2.638  -7.130   4.526  0.00  0.00    +0.000 A 
ATOM     24  C   UNL     1       1.400  -6.999   3.924  0.00  0.00    +0.000 A 
ATOM     25  C   UNL     1       1.016  -5.784   3.390  0.00  0.00    +0.007 A 
ENDBRANCH  13  20
BRANCH  13  26
ATOM     26  O   UNL     1       0.570  -3.601   1.764  0.00  0.00    -0.379 OA
ATOM     27  H   UNL     1       0.261  -2.790   1.337  0.00  0.00    +0.211 HD
ENDBRANCH  13  26
ENDBRANCH  12  13
ENDBRANCH  11  12
ENDBRANCH   1  11
BRANCH   1  28
ATOM     28  C   UNL     1       4.972  -5.272   0.955  0.00  0.00    +0.085 C 
BRANCH  28  29
ATOM     29  C   UNL     1       4.480  -6.705   1.167  0.00  0.00    +0.017 C 
BRANCH  29  30
ATOM     30  C   UNL     1       5.239  -7.648   0.232  0.00  0.00    -0.023 C 
ATOM     31  C   UNL     1       4.891  -7.319  -1.222  0.00  0.00    -0.075 C 
ATOM     32  N   UNL     1       4.284  -8.485  -1.869  0.00  0.00    +0.380 N 
ATOM     33  C   UNL     1       3.039  -8.859  -1.193  0.00  0.00    -0.079 C 
ATOM     34  C   UNL     1       3.326  -9.239   0.261  0.00  0.00    -0.015 C 
ATOM     35  C   UNL     1       4.834  -9.099   0.524  0.00  0.00    -0.013 C 
ATOM     36  C   UNL     1       5.581 -10.017  -0.452  0.00  0.00    -0.015 C 
ATOM     37  C   UNL     1       5.220  -9.611  -1.886  0.00  0.00    -0.079 C 
ATOM     38  H   UNL     1       4.061  -8.241  -2.822  0.00  0.00    -0.082 HD
ENDBRANCH  29  30
ENDBRANCH  28  29
ENDBRANCH   1  28
TORSDOF 10
