REMARK  Name = ZINC36637344
REMARK  9 active torsions:
REMARK  status: ('A' for Active; 'I' for Inactive)
REMARK    1  A    between atoms: C_1  and  C_2
REMARK    2  A    between atoms: N_7  and  S_9
REMARK    3  A    between atoms: S_9  and  C_12
REMARK    4  A    between atoms: C_15  and  C_18
REMARK    5  A    between atoms: N_20  and  C_21
REMARK    6  A    between atoms: C_21  and  C_22
REMARK    7  A    between atoms: C_22  and  N_23
REMARK    8  A    between atoms: N_23  and  C_24
REMARK    9  A    between atoms: N_23  and  C_25
REMARK                            x       y       z     vdW  Elec       q    Type
REMARK                         _______ _______ _______ _____ _____    ______ ____
ROOT
ATOM      1  C   UNL     1       3.785  -4.147  -4.066  0.00  0.00    +0.252 C 
ATOM      2  O   UNL     1       3.470  -5.195  -4.594  0.00  0.00    -0.270 OA
ATOM      3  N   UNL     1       4.626  -3.302  -4.694  0.00  0.00    -0.248 N 
ATOM      4  C   UNL     1       5.022  -3.559  -5.996  0.00  0.00    +0.168 A 
ATOM      5  N   UNL     1       5.829  -2.865  -6.763  0.00  0.00    -0.224 NA
ATOM      6  C   UNL     1       6.130  -3.239  -8.026  0.00  0.00    +0.080 A 
ATOM      7  C   UNL     1       6.978  -2.586  -8.951  0.00  0.00    +0.030 A 
ATOM      8  C   UNL     1       7.177  -3.103 -10.204  0.00  0.00    +0.022 A 
ATOM      9  C   UNL     1       6.558  -4.278 -10.611  0.00  0.00    +0.042 A 
ATOM     10  C   UNL     1       5.723  -4.942  -9.731  0.00  0.00    +0.037 A 
ATOM     11  C   UNL     1       5.518  -4.431  -8.474  0.00  0.00    +0.042 A 
ATOM     12  S   UNL     1       4.569  -4.925  -7.055  0.00  0.00    -0.052 S 
ATOM     13 CL   UNL     1       6.830  -4.905 -12.207  0.00  0.00    -0.084 Cl
ENDROOT
BRANCH   1  17
ATOM     14  C   UNL     1       2.239  -3.150  -0.238  0.00  0.00    +0.106 A 
ATOM     15  C   UNL     1       1.471  -3.890  -1.119  0.00  0.00    +0.029 A 
ATOM     16  C   UNL     1       1.968  -4.218  -2.364  0.00  0.00    +0.015 A 
ATOM     17  C   UNL     1       3.247  -3.800  -2.734  0.00  0.00    +0.037 A 
ATOM     18  C   UNL     1       4.016  -3.052  -1.840  0.00  0.00    +0.015 A 
ATOM     19  C   UNL     1       3.506  -2.728  -0.600  0.00  0.00    +0.029 A 
BRANCH  14  20
ATOM     20  S   UNL     1       1.598  -2.736   1.350  0.00  0.00    +0.061 S 
ATOM     21  O   UNL     1       2.718  -2.498   2.192  0.00  0.00    -0.153 OA
ATOM     22  O   UNL     1       0.609  -3.710   1.655  0.00  0.00    -0.153 OA
BRANCH  20  28
ATOM     23  C   UNL     1       1.925   2.243   0.420  0.00  0.00    +0.009 C 
ATOM     24  C   UNL     1       1.304   0.867   0.171  0.00  0.00    +0.002 C 
ATOM     25  C   UNL     1      -0.197   1.023  -0.086  0.00  0.00    +0.006 C 
ATOM     26  C   UNL     1      -0.813  -0.349  -0.368  0.00  0.00    +0.017 C 
ATOM     27  C   UNL     1      -0.623  -1.251   0.856  0.00  0.00    +0.109 C 
ATOM     28  N   UNL     1       0.806  -1.290   1.197  0.00  0.00    -0.176 NA
ATOM     29  C   UNL     1       1.519  -0.021   1.400  0.00  0.00    +0.112 C 
ENDBRANCH  20  28
ENDBRANCH  14  20
ENDBRANCH   1  17
BRANCH   3  30
ATOM     30  C   UNL     1       5.121  -2.110  -4.000  0.00  0.00    +0.097 C 
BRANCH  30  31
ATOM     31  C   UNL     1       6.562  -2.348  -3.543  0.00  0.00    -0.060 C 
BRANCH  31  32
ATOM     32  N   UNL     1       7.101  -1.112  -2.960  0.00  0.00    +0.377 N 
ATOM     33  C   UNL     1       6.358  -0.783  -1.737  0.00  0.00    -0.097 C 
ATOM     34  C   UNL     1       8.521  -1.303  -2.635  0.00  0.00    -0.097 C 
ATOM     35  H   UNL     1       7.007  -0.358  -3.624  0.00  0.00    -0.083 HD
ENDBRANCH  31  32
ENDBRANCH  30  31
ENDBRANCH   3  30
TORSDOF 6
