REMARK  Name = ZINC41023745
REMARK  6 active torsions:
REMARK  status: ('A' for Active; 'I' for Inactive)
REMARK    1  A    between atoms: C_1  and  C_2
REMARK    2  A    between atoms: C_2  and  C_3
REMARK    3  A    between atoms: C_6  and  C_8
REMARK    4  A    between atoms: C_8  and  S_9
REMARK    5  A    between atoms: S_9  and  C_10
REMARK    6  A    between atoms: C_14  and  N_16
REMARK                            x       y       z     vdW  Elec       q    Type
REMARK                         _______ _______ _______ _____ _____    ______ ____
ROOT
ATOM      1  C   UNL     1       5.082  -4.009   4.951  0.00  0.00    +0.192 A 
ATOM      2  N   UNL     1       5.663  -3.028   5.626  0.00  0.00    -0.207 NA
ATOM      3  C   UNL     1       6.678  -3.275   6.451  0.00  0.00    +0.122 A 
ATOM      4  C   UNL     1       7.127  -4.584   6.599  0.00  0.00    +0.086 A 
ATOM      5  C   UNL     1       6.492  -5.588   5.874  0.00  0.00    +0.122 A 
ATOM      6  N   UNL     1       5.480  -5.268   5.071  0.00  0.00    -0.207 NA
ATOM      7  N   UNL     1       7.280  -2.242   7.153  0.00  0.00    -0.343 N 
ATOM      8  H   UNL     1       6.962  -1.332   7.044  0.00  0.00    +0.144 HD
ATOM      9  H   UNL     1       8.019  -2.430   7.752  0.00  0.00    +0.144 HD
ENDROOT
BRANCH   5  10
ATOM     10  N   UNL     1       6.906  -6.906   5.990  0.00  0.00    -0.343 N 
ATOM     11  H   UNL     1       7.642  -7.134   6.579  0.00  0.00    +0.144 HD
ATOM     12  H   UNL     1       6.460  -7.601   5.481  0.00  0.00    +0.144 HD
ENDBRANCH   5  10
BRANCH   1  13
ATOM     13  S   UNL     1       3.742  -3.633   3.872  0.00  0.00    -0.081 S 
BRANCH  13  14
ATOM     14  C   UNL     1       3.550  -1.835   4.021  0.00  0.00    +0.119 C 
BRANCH  14  18
ATOM     15  C   UNL     1       0.731  -0.503   1.223  0.00  0.00    -0.010 A 
ATOM     16  C   UNL     1       0.236  -0.806   2.448  0.00  0.00    +0.011 A 
ATOM     17  C   UNL     1       1.102  -1.254   3.429  0.00  0.00    +0.012 A 
ATOM     18  C   UNL     1       2.420  -1.375   3.136  0.00  0.00    +0.000 A 
ATOM     19  S   UNL     1       2.469  -0.856   1.429  0.00  0.00    -0.097 S 
BRANCH  15  21
ATOM     20  C   UNL     1      -0.019   1.526   0.010  0.00  0.00    +0.009 C 
ATOM     21  C   UNL     1       0.002  -0.004   0.002  0.00  0.00    +0.039 C 
ENDBRANCH  15  21
ENDBRANCH  14  18
ENDBRANCH  13  14
ENDBRANCH   1  13
TORSDOF 5
