REMARK  Name = ZINC37064319
REMARK  7 active torsions:
REMARK  status: ('A' for Active; 'I' for Inactive)
REMARK    1  A    between atoms: C_1  and  C_2
REMARK    2  A    between atoms: C_2  and  N_3
REMARK    3  A    between atoms: N_3  and  C_4
REMARK    4  A    between atoms: N_3  and  S_11
REMARK    5  A    between atoms: C_4  and  C_5
REMARK    6  A    between atoms: S_11  and  C_14
REMARK    7  A    between atoms: C_19  and  N_20
REMARK                            x       y       z     vdW  Elec       q    Type
REMARK                         _______ _______ _______ _____ _____    ______ ____
ROOT
ATOM      1  S   UNL     1      -2.032  -0.593   1.118  0.00  0.00    +0.063 S 
ATOM      2  O   UNL     1      -3.001  -1.545   0.700  0.00  0.00    -0.153 OA
ATOM      3  O   UNL     1      -0.965  -0.927   1.996  0.00  0.00    -0.153 OA
ENDROOT
BRANCH   1   4
ATOM      4  C   UNL     1      -2.917   0.726   1.880  0.00  0.00    +0.126 A 
ATOM      5  C   UNL     1      -4.296   0.682   1.951  0.00  0.00    +0.031 A 
ATOM      6  C   UNL     1      -4.992   1.716   2.550  0.00  0.00    +0.017 A 
ATOM      7  C   UNL     1      -4.310   2.798   3.078  0.00  0.00    +0.020 A 
ATOM      8  C   UNL     1      -2.931   2.848   3.010  0.00  0.00    +0.040 A 
ATOM      9  C   UNL     1      -2.229   1.807   2.415  0.00  0.00    +0.052 A 
ATOM     10 BR   UNL     1      -5.267   4.210   3.895  0.00  0.00    -0.050 Br
BRANCH   9  11
ATOM     11  N   UNL     1      -0.835   1.851   2.349  0.00  0.00    -0.356 N 
ATOM     12  H   UNL     1      -0.340   1.085   2.019  0.00  0.00    +0.142 HD
ATOM     13  H   UNL     1      -0.361   2.649   2.633  0.00  0.00    +0.142 HD
ENDBRANCH   9  11
ENDBRANCH   1   4
BRANCH   1  14
ATOM     14  N   UNL     1      -1.339   0.013  -0.259  0.00  0.00    -0.172 NA
BRANCH  14  16
ATOM     15  C   UNL     1       0.075   2.008  -0.293  0.00  0.00    +0.022 C 
ATOM     16  C   UNL     1       0.050   0.479  -0.236  0.00  0.00    +0.106 C 
ENDBRANCH  14  16
BRANCH  14  17
ATOM     17  C   UNL     1      -2.115   0.084  -1.499  0.00  0.00    +0.144 C 
BRANCH  17  18
ATOM     18  C   UNL     1      -1.842  -1.142  -2.333  0.00  0.00    -0.032 A 
ATOM     19  C   UNL     1      -0.805  -1.139  -3.247  0.00  0.00    +0.005 A 
ATOM     20  C   UNL     1      -0.555  -2.263  -4.012  0.00  0.00    +0.000 A 
ATOM     21  C   UNL     1      -1.341  -3.390  -3.862  0.00  0.00    +0.000 A 
ATOM     22  C   UNL     1      -2.377  -3.393  -2.947  0.00  0.00    +0.000 A 
ATOM     23  C   UNL     1      -2.625  -2.271  -2.179  0.00  0.00    +0.005 A 
ENDBRANCH  17  18
ENDBRANCH  14  17
ENDBRANCH   1  14
TORSDOF 6
