REMARK  Name = ZINC39662549
REMARK  5 active torsions:
REMARK  status: ('A' for Active; 'I' for Inactive)
REMARK    1  A    between atoms: C_4  and  C_7
REMARK    2  A    between atoms: C_7  and  C_9
REMARK    3  A    between atoms: C_7  and  N_11
REMARK    4  A    between atoms: C_12  and  C_14
REMARK    5  A    between atoms: C_25  and  C_27
REMARK                            x       y       z     vdW  Elec       q    Type
REMARK                         _______ _______ _______ _____ _____    ______ ____
ROOT
ATOM      1  C   UNL     1       4.893  -3.009   1.551  0.00  0.00    +0.100 C 
ATOM      2  C   UNL     1       4.221  -4.381   1.320  0.00  0.00    +0.121 C 
ATOM      3  N   UNL     1       5.309  -5.250   0.810  0.00  0.00    -0.300 N 
ATOM      4  C   UNL     1       6.496  -4.859   1.607  0.00  0.00    +0.115 C 
ATOM      5  C   UNL     1       6.386  -3.328   1.743  0.00  0.00    -0.004 C 
ATOM      6  C   UNL     1       6.846  -2.886   3.128  0.00  0.00    -0.010 C 
ATOM      7  C   UNL     1       8.346  -3.159   3.274  0.00  0.00    -0.082 C 
ATOM      8  N   UNL     1       9.082  -2.428   2.235  0.00  0.00    +0.379 N 
ATOM      9  C   UNL     1       8.700  -2.925   0.908  0.00  0.00    -0.082 C 
ATOM     10  C   UNL     1       7.215  -2.642   0.662  0.00  0.00    -0.010 C 
ATOM     11  C   UNL     1       5.234  -6.183  -0.159  0.00  0.00    +0.219 C 
ATOM     12  O   UNL     1       4.202  -6.335  -0.777  0.00  0.00    -0.275 OA
ATOM     13  H   UNL     1       8.865  -1.445   2.300  0.00  0.00    -0.086 HD
ATOM     14  H   UNL     1      10.073  -2.561   2.371  0.00  0.00    -0.086 HD
ENDROOT
BRANCH  11  15
ATOM     15  C   UNL     1       6.434  -7.039  -0.475  0.00  0.00    +0.079 C 
ATOM     16  C   UNL     1       6.348  -7.532  -1.924  0.00  0.00    +0.017 C 
ATOM     17  C   UNL     1       7.658  -8.245  -2.271  0.00  0.00    +0.027 C 
ATOM     18  C   UNL     1       8.001  -9.243  -1.205  0.00  0.00    -0.031 C 
ATOM     19  C   UNL     1       7.481  -9.246  -0.019  0.00  0.00    -0.030 C 
ATOM     20  C   UNL     1       6.458  -8.254   0.455  0.00  0.00    +0.039 C 
ENDBRANCH  11  15
BRANCH   1  22
ATOM     21  N   UNL     1       4.656  -0.781   0.503  0.00  0.00    -0.296 N 
ATOM     22  C   UNL     1       4.697  -2.120   0.351  0.00  0.00    +0.219 C 
ATOM     23  O   UNL     1       4.576  -2.608  -0.753  0.00  0.00    -0.275 OA
ATOM     24  H   UNL     1       4.753  -0.391   1.386  0.00  0.00    +0.150 HD
BRANCH  21  25
ATOM     25  C   UNL     1       4.465   0.084  -0.664  0.00  0.00    +0.207 C 
BRANCH  25  29
ATOM     26  C   UNL     1       6.110   3.944   0.138  0.00  0.00    +0.000 A 
ATOM     27  C   UNL     1       6.270   3.369  -1.109  0.00  0.00    +0.000 A 
ATOM     28  C   UNL     1       5.738   2.120  -1.368  0.00  0.00    +0.006 A 
ATOM     29  C   UNL     1       5.046   1.445  -0.381  0.00  0.00    -0.013 A 
ATOM     30  C   UNL     1       4.886   2.019   0.867  0.00  0.00    +0.006 A 
ATOM     31  C   UNL     1       5.417   3.269   1.126  0.00  0.00    +0.000 A 
ENDBRANCH  25  29
BRANCH  25  32
ATOM     32  C   UNL     1       3.026   0.213  -0.948  0.00  0.00    +0.090 C 
ATOM     33  N   UNL     1       1.916   0.314  -1.167  0.00  0.00    -0.194 NA
ENDBRANCH  25  32
ENDBRANCH  21  25
ENDBRANCH   1  22
TORSDOF 5
