REMARK  Name = ZINC42349772
REMARK  5 active torsions:
REMARK  status: ('A' for Active; 'I' for Inactive)
REMARK    1  A    between atoms: C_1  and  N_2
REMARK    2  A    between atoms: C_6  and  S_7
REMARK    3  A    between atoms: S_7  and  C_8
REMARK    4  A    between atoms: C_8  and  C_9
REMARK    5  A    between atoms: N_11  and  C_12
REMARK                            x       y       z     vdW  Elec       q    Type
REMARK                         _______ _______ _______ _____ _____    ______ ____
ROOT
ATOM      1  C   UNL     1       0.065  -1.503   5.208  0.00  0.00    +0.228 C 
ATOM      2  O   UNL     1       0.056  -0.348   5.579  0.00  0.00    -0.275 OA
ATOM      3  N   UNL     1       0.093  -2.501   6.113  0.00  0.00    -0.284 N 
ATOM      4  H   UNL     1       0.035  -3.424   5.819  0.00  0.00    +0.155 HD
ENDROOT
BRANCH   3   5
ATOM      5  C   UNL     1       0.208  -2.207   7.477  0.00  0.00    +0.053 A 
ATOM      6  C   UNL     1      -0.394  -1.068   7.995  0.00  0.00    +0.046 A 
ATOM      7  C   UNL     1      -0.280  -0.779   9.342  0.00  0.00    +0.061 A 
ATOM      8  C   UNL     1       0.435  -1.625  10.175  0.00  0.00    +0.061 A 
ATOM      9  C   UNL     1       1.036  -2.760   9.660  0.00  0.00    +0.043 A 
ATOM     10  C   UNL     1       0.919  -3.056   8.315  0.00  0.00    +0.064 A 
ATOM     11 CL   UNL     1       1.667  -4.485   7.672  0.00  0.00    -0.082 Cl
ATOM     12 CL   UNL     1       0.577  -1.260  11.866  0.00  0.00    -0.082 Cl
ATOM     13 CL   UNL     1      -1.032   0.644   9.991  0.00  0.00    -0.082 Cl
ENDBRANCH   3   5
BRANCH   1  14
ATOM     14  C   UNL     1       0.044  -1.821   3.735  0.00  0.00    +0.173 C 
BRANCH  14  15
ATOM     15  S   UNL     1       0.007  -0.277   2.783  0.00  0.00    -0.077 S 
BRANCH  15  21
ATOM     16  C   UNL     1      -0.063   1.463   0.012  0.00  0.00    +0.154 C 
ATOM     17  N   UNL     1      -0.044  -0.002   0.004  0.00  0.00    -0.294 N 
ATOM     18  C   UNL     1      -0.047  -0.799  -1.106  0.00  0.00    +0.215 A 
ATOM     19  N   UNL     1      -0.025  -2.047  -0.709  0.00  0.00    -0.113 NA
ATOM     20  N   UNL     1      -0.008  -2.056   0.692  0.00  0.00    -0.121 NA
ATOM     21  C   UNL     1      -0.015  -0.812   1.105  0.00  0.00    +0.193 A 
ATOM     22  N   UNL     1      -0.069  -0.362  -2.425  0.00  0.00    -0.328 N 
ATOM     23  H   UNL     1      -0.085   0.588  -2.620  0.00  0.00    +0.145 HD
ATOM     24  H   UNL     1      -0.070  -1.007  -3.149  0.00  0.00    +0.145 HD
ENDBRANCH  15  21
ENDBRANCH  14  15
ENDBRANCH   1  14
TORSDOF 4
