REMARK  Name = ZINC20705210
REMARK  7 active torsions:
REMARK  status: ('A' for Active; 'I' for Inactive)
REMARK    1  A    between atoms: C_1  and  C_2
REMARK    2  A    between atoms: C_2  and  C_3
REMARK    3  A    between atoms: C_3  and  N_4
REMARK    4  A    between atoms: N_4  and  S_5
REMARK    5  A    between atoms: S_5  and  C_8
REMARK    6  A    between atoms: C_21  and  C_24
REMARK    7  A    between atoms: C_28  and  N_30
REMARK                            x       y       z     vdW  Elec       q    Type
REMARK                         _______ _______ _______ _____ _____    ______ ____
ROOT
ATOM      1  C   UNL     1      -1.579   2.305  -3.194  0.00  0.00    +0.106 A 
ATOM      2  C   UNL     1      -2.918   2.288  -2.847  0.00  0.00    +0.030 A 
ATOM      3  C   UNL     1      -3.301   1.894  -1.582  0.00  0.00    +0.025 A 
ATOM      4  C   UNL     1      -2.346   1.512  -0.647  0.00  0.00    +0.031 A 
ATOM      5  C   UNL     1      -1.000   1.537  -0.996  0.00  0.00    -0.018 A 
ATOM      6  C   UNL     1      -0.622   1.921  -2.274  0.00  0.00    +0.034 A 
ATOM      7  C   UNL     1      -0.013   1.086   0.008  0.00  0.00    +0.049 C 
ATOM      8  C   UNL     1       1.393   1.565  -0.003  0.00  0.00    -0.023 C 
ATOM      9  C   UNL     1       1.834   1.613   1.249  0.00  0.00    -0.030 C 
ATOM     10  C   UNL     1       0.722   1.193   2.212  0.00  0.00    +0.033 C 
ATOM     11  C   UNL     1      -0.534   1.542   1.403  0.00  0.00    +0.029 C 
ATOM     12  C   UNL     1      -1.778   0.711   1.662  0.00  0.00    +0.105 C 
ATOM     13  N   UNL     1      -2.758   1.132   0.636  0.00  0.00    -0.336 N 
ATOM     14  H   UNL     1      -3.832   1.150   0.876  0.00  0.00    +0.147 HD
ENDROOT
BRANCH  12  15
ATOM     15  C   UNL     1      -2.315   0.992   3.041  0.00  0.00    -0.025 A 
ATOM     16  C   UNL     1      -3.072   2.126   3.271  0.00  0.00    +0.005 A 
ATOM     17  C   UNL     1      -3.569   2.381   4.535  0.00  0.00    +0.003 A 
ATOM     18  C   UNL     1      -3.300   1.508   5.573  0.00  0.00    +0.033 A 
ATOM     19  C   UNL     1      -2.538   0.377   5.345  0.00  0.00    +0.127 A 
ATOM     20  C   UNL     1      -2.046   0.119   4.079  0.00  0.00    +0.038 A 
BRANCH  19  21
ATOM     21  N   UNL     1      -2.250  -0.557   6.456  0.00  0.00    +0.056 N 
ATOM     22  O   UNL     1      -1.578  -1.554   6.255  0.00  0.00    -0.126 OA
ATOM     23  O   UNL     1      -2.683  -0.330   7.571  0.00  0.00    -0.126 OA
ENDBRANCH  19  21
ENDBRANCH  12  15
BRANCH   1  24
ATOM     24  S   UNL     1      -1.094   2.817  -4.809  0.00  0.00    +0.058 S 
ATOM     25  O   UNL     1       0.173   2.224  -5.059  0.00  0.00    -0.153 OA
ATOM     26  O   UNL     1      -2.215   2.606  -5.656  0.00  0.00    -0.153 OA
BRANCH  24  27
ATOM     27  N   UNL     1      -0.847   4.454  -4.750  0.00  0.00    -0.190 NA
ATOM     28  H   UNL     1      -1.594   5.127  -5.195  0.00  0.00    +0.148 HD
BRANCH  27  29
ATOM     29  C   UNL     1       0.235   5.002  -3.928  0.00  0.00    +0.105 C 
BRANCH  29  31
ATOM     30  C   UNL     1       1.621   7.029  -3.468  0.00  0.00    +0.005 C 
ATOM     31  C   UNL     1       0.491   6.457  -4.326  0.00  0.00    +0.013 C 
ENDBRANCH  29  31
ENDBRANCH  27  29
ENDBRANCH  24  27
ENDBRANCH   1  24
TORSDOF 6
