REMARK  Name = ZINC09635553
REMARK  12 active torsions:
REMARK  status: ('A' for Active; 'I' for Inactive)
REMARK    1  A    between atoms: C_1  and  N_2
REMARK    2  A    between atoms: N_2  and  C_3
REMARK    3  A    between atoms: N_2  and  C_4
REMARK    4  A    between atoms: C_7  and  S_13
REMARK    5  A    between atoms: C_9  and  N_10
REMARK    6  A    between atoms: S_13  and  N_16
REMARK    7  A    between atoms: N_16  and  C_17
REMARK    8  A    between atoms: C_17  and  C_18
REMARK    9  A    between atoms: C_18  and  O_20
REMARK   10  A    between atoms: O_20  and  C_21
REMARK   11  A    between atoms: C_21  and  C_22
REMARK   12  A    between atoms: C_25  and  C_27
REMARK                            x       y       z     vdW  Elec       q    Type
REMARK                         _______ _______ _______ _____ _____    ______ ____
ROOT
ATOM      1  N   UNL     1      -0.897   1.885  -1.312  0.00  0.00    -0.179 NA
ATOM      2  H   UNL     1      -1.263   1.218  -1.913  0.00  0.00    +0.149 HD
ENDROOT
BRANCH   1   3
ATOM      3  S   UNL     1      -0.017   1.417   0.010  0.00  0.00    +0.059 S 
ATOM      4  O   UNL     1       0.002  -0.004   0.002  0.00  0.00    -0.153 OA
ATOM      5  O   UNL     1       1.172   2.195   0.003  0.00  0.00    -0.153 OA
BRANCH   3   9
ATOM      6  C   UNL     1      -2.355   2.659   3.684  0.00  0.00    +0.060 A 
ATOM      7  C   UNL     1      -1.431   3.530   3.120  0.00  0.00    +0.027 A 
ATOM      8  C   UNL     1      -0.716   3.146   2.003  0.00  0.00    +0.030 A 
ATOM      9  C   UNL     1      -0.927   1.900   1.439  0.00  0.00    +0.108 A 
ATOM     10  C   UNL     1      -1.846   1.032   1.999  0.00  0.00    +0.063 A 
ATOM     11  C   UNL     1      -2.560   1.407   3.119  0.00  0.00    +0.149 A 
BRANCH   6  13
ATOM     12  C   UNL     1      -2.176   3.340   5.939  0.00  0.00    +0.129 C 
ATOM     13  N   UNL     1      -3.076   3.043   4.817  0.00  0.00    -0.334 N 
ATOM     14  C   UNL     1      -3.947   4.189   4.524  0.00  0.00    +0.129 C 
ENDBRANCH   6  13
BRANCH  11  15
ATOM     15  N   UNL     1      -3.544   0.477   3.717  0.00  0.00    +0.058 N 
ATOM     16  O   UNL     1      -3.724  -0.621   3.221  0.00  0.00    -0.126 OA
ATOM     17  O   UNL     1      -4.174   0.809   4.705  0.00  0.00    -0.126 OA
ENDBRANCH  11  15
ENDBRANCH   3   9
ENDBRANCH   1   3
BRANCH   1  18
ATOM     18  C   UNL     1      -1.125   3.309  -1.574  0.00  0.00    +0.226 C 
BRANCH  18  19
ATOM     19  C   UNL     1      -1.614   3.488  -2.988  0.00  0.00    +0.323 C 
ATOM     20  O   UNL     1      -1.758   2.525  -3.704  0.00  0.00    -0.249 OA
BRANCH  19  21
ATOM     21  O   UNL     1      -1.890   4.717  -3.452  0.00  0.00    -0.457 OA
BRANCH  21  22
ATOM     22  C   UNL     1      -2.357   4.814  -4.823  0.00  0.00    +0.288 C 
BRANCH  22  23
ATOM     23  C   UNL     1      -2.614   6.259  -5.166  0.00  0.00    +0.086 A 
ATOM     24  C   UNL     1      -2.398   7.227  -4.236  0.00  0.00    +0.074 A 
ATOM     25  S   UNL     1      -2.852   8.685  -5.167  0.00  0.00    -0.075 S 
ATOM     26  C   UNL     1      -3.277   7.848  -6.689  0.00  0.00    +0.109 A 
ATOM     27  N   UNL     1      -3.039   6.585  -6.363  0.00  0.00    -0.241 NA
BRANCH  26  28
ATOM     28  C   UNL     1      -3.759   8.413  -7.968  0.00  0.00    +0.007 A 
ATOM     29  C   UNL     1      -4.030   7.571  -9.047  0.00  0.00    +0.010 A 
ATOM     30  C   UNL     1      -4.483   8.104 -10.237  0.00  0.00    +0.001 A 
ATOM     31  C   UNL     1      -4.660   9.470 -10.363  0.00  0.00    +0.000 A 
ATOM     32  C   UNL     1      -4.388  10.310  -9.298  0.00  0.00    +0.001 A 
ATOM     33  C   UNL     1      -3.939   9.790  -8.102  0.00  0.00    +0.010 A 
ENDBRANCH  26  28
ENDBRANCH  22  23
ENDBRANCH  21  22
ENDBRANCH  19  21
ENDBRANCH  18  19
ENDBRANCH   1  18
TORSDOF 10
