REMARK  Name = ZINC20611894
REMARK  8 active torsions:
REMARK  status: ('A' for Active; 'I' for Inactive)
REMARK    1  A    between atoms: C_1  and  O_2
REMARK    2  A    between atoms: O_2  and  C_3
REMARK    3  A    between atoms: C_6  and  C_9
REMARK    4  A    between atoms: C_9  and  N_10
REMARK    5  A    between atoms: C_15  and  C_32
REMARK    6  A    between atoms: C_32  and  C_33
REMARK    7  A    between atoms: C_36  and  O_40
REMARK    8  A    between atoms: C_37  and  O_39
REMARK                            x       y       z     vdW  Elec       q    Type
REMARK                         _______ _______ _______ _____ _____    ______ ____
ROOT
ATOM      1  N   UNL     1       3.923  -2.713  -4.080  0.00  0.00    -0.237 N 
ATOM      2  C   UNL     1       4.865  -1.806  -4.362  0.00  0.00    +0.227 C 
ATOM      3  O   UNL     1       4.667  -0.731  -4.885  0.00  0.00    -0.275 OA
ATOM      4  C   UNL     1       6.214  -2.331  -3.927  0.00  0.00    +0.107 C 
ATOM      5  C   UNL     1       7.073  -2.618  -5.177  0.00  0.00    +0.072 C 
ATOM      6  N   UNL     1       7.671  -3.957  -4.928  0.00  0.00    -0.295 NA
ATOM      7  C   UNL     1       6.592  -4.720  -4.275  0.00  0.00    +0.136 C 
ATOM      8  C   UNL     1       5.880  -3.724  -3.326  0.00  0.00    +0.122 C 
ATOM      9  C   UNL     1       4.381  -3.826  -3.494  0.00  0.00    +0.229 C 
ATOM     10  O   UNL     1       3.700  -4.769  -3.153  0.00  0.00    -0.275 OA
ATOM     11  C   UNL     1       5.645  -5.308  -5.282  0.00  0.00    +0.003 A 
ATOM     12  C   UNL     1       4.843  -4.765  -6.261  0.00  0.00    +0.008 A 
ATOM     13  C   UNL     1       4.063  -5.588  -7.053  0.00  0.00    +0.000 A 
ATOM     14  C   UNL     1       4.090  -6.958  -6.859  0.00  0.00    +0.002 A 
ATOM     15  C   UNL     1       4.893  -7.506  -5.881  0.00  0.00    +0.023 A 
ATOM     16  C   UNL     1       5.681  -6.685  -5.079  0.00  0.00    +0.039 A 
ATOM     17  N   UNL     1       6.560  -6.997  -4.040  0.00  0.00    -0.283 N 
ATOM     18  C   UNL     1       7.136  -5.898  -3.514  0.00  0.00    +0.243 C 
ATOM     19  O   UNL     1       7.938  -5.865  -2.605  0.00  0.00    -0.273 OA
ATOM     20  H   UNL     1       7.951  -4.394  -5.794  0.00  0.00    +0.124 HD
ATOM     21  H   UNL     1       6.735  -7.899  -3.731  0.00  0.00    +0.155 HD
ENDROOT
BRANCH   1  22
ATOM     22  C   UNL     1       2.505  -2.503  -4.381  0.00  0.00    +0.151 C 
BRANCH  22  26
ATOM     23  C   UNL     1       0.606  -0.607  -1.056  0.00  0.00    +0.120 A 
ATOM     24  C   UNL     1       1.173   0.161  -2.062  0.00  0.00    +0.046 A 
ATOM     25  C   UNL     1       1.786  -0.455  -3.136  0.00  0.00    +0.009 A 
ATOM     26  C   UNL     1       1.835  -1.835  -3.209  0.00  0.00    -0.029 A 
ATOM     27  C   UNL     1       1.270  -2.602  -2.207  0.00  0.00    +0.009 A 
ATOM     28  C   UNL     1       0.661  -1.992  -1.128  0.00  0.00    +0.046 A 
BRANCH  23  30
ATOM     29  C   UNL     1      -0.017   1.425   0.010  0.00  0.00    +0.277 C 
ATOM     30  O   UNL     1       0.002  -0.004   0.002  0.00  0.00    -0.495 OA
ENDBRANCH  23  30
ENDBRANCH  22  26
ENDBRANCH   1  22
BRANCH   5  31
ATOM     31  C   UNL     1       8.169  -1.561  -5.325  0.00  0.00    +0.054 C 
BRANCH  31  32
ATOM     32  C   UNL     1       8.916  -1.789  -6.614  0.00  0.00    -0.042 A 
ATOM     33  C   UNL     1      10.024  -2.616  -6.632  0.00  0.00    +0.007 A 
ATOM     34  C   UNL     1      10.713  -2.828  -7.812  0.00  0.00    +0.049 A 
ATOM     35  C   UNL     1      10.292  -2.212  -8.980  0.00  0.00    +0.158 A 
ATOM     36  C   UNL     1       9.177  -1.380  -8.962  0.00  0.00    +0.158 A 
ATOM     37  C   UNL     1       8.489  -1.175  -7.777  0.00  0.00    +0.052 A 
BRANCH  36  38
ATOM     38  O   UNL     1       8.761  -0.773 -10.105  0.00  0.00    -0.503 OA
ATOM     39  H   UNL     1       8.121  -1.290 -10.614  0.00  0.00    +0.292 HD
ENDBRANCH  36  38
BRANCH  35  40
ATOM     40  O   UNL     1      10.969  -2.419 -10.141  0.00  0.00    -0.503 OA
ATOM     41  H   UNL     1      10.646  -3.172 -10.656  0.00  0.00    +0.292 HD
ENDBRANCH  35  40
ENDBRANCH  31  32
ENDBRANCH   5  31
TORSDOF 7
