REMARK  Name = ZINC39664726
REMARK  9 active torsions:
REMARK  status: ('A' for Active; 'I' for Inactive)
REMARK    1  A    between atoms: C_1  and  C_2
REMARK    2  A    between atoms: C_4  and  C_9
REMARK    3  A    between atoms: C_13  and  C_22
REMARK    4  A    between atoms: N_24  and  C_25
REMARK    5  A    between atoms: C_25  and  C_27
REMARK    6  A    between atoms: C_25  and  C_31
REMARK    7  A    between atoms: C_27  and  N_28
REMARK    8  A    between atoms: N_28  and  C_29
REMARK    9  A    between atoms: N_28  and  C_30
REMARK                            x       y       z     vdW  Elec       q    Type
REMARK                         _______ _______ _______ _____ _____    ______ ____
ROOT
ATOM      1  C   UNL     1      -0.590  -2.758  -3.085  0.00  0.00    +0.247 C 
ATOM      2  O   UNL     1      -0.812  -2.314  -4.195  0.00  0.00    -0.270 OA
ATOM      3  N   UNL     1      -0.296  -4.064  -2.928  0.00  0.00    -0.296 N 
ATOM      4  C   UNL     1      -0.122  -4.809  -1.659  0.00  0.00    +0.121 C 
ATOM      5  C   UNL     1      -0.785  -6.181  -1.918  0.00  0.00    +0.100 C 
ATOM      6  C   UNL     1      -0.748  -6.352  -3.445  0.00  0.00    -0.004 C 
ATOM      7  C   UNL     1      -0.079  -5.080  -3.985  0.00  0.00    +0.115 C 
ATOM      8  C   UNL     1      -2.165  -6.471  -3.998  0.00  0.00    -0.010 C 
ATOM      9  C   UNL     1      -2.100  -6.698  -5.511  0.00  0.00    -0.082 C 
ATOM     10  N   UNL     1      -1.340  -7.922  -5.792  0.00  0.00    +0.379 N 
ATOM     11  C   UNL     1       0.048  -7.764  -5.340  0.00  0.00    -0.082 C 
ATOM     12  C   UNL     1       0.074  -7.582  -3.819  0.00  0.00    -0.010 C 
ATOM     13  H   UNL     1      -1.764  -8.698  -5.307  0.00  0.00    -0.086 HD
ATOM     14  H   UNL     1      -1.350  -8.102  -6.785  0.00  0.00    -0.086 HD
ENDROOT
BRANCH   1  18
ATOM     15  C   UNL     1      -2.035   1.529  -0.981  0.00  0.00    +0.045 C 
ATOM     16  C   UNL     1      -1.337   0.197  -0.891  0.00  0.00    -0.036 A 
ATOM     17  C   UNL     1      -1.290  -0.632  -1.993  0.00  0.00    +0.017 A 
ATOM     18  C   UNL     1      -0.643  -1.865  -1.908  0.00  0.00    +0.037 A 
ATOM     19  C   UNL     1      -0.046  -2.253  -0.707  0.00  0.00    +0.014 A 
ATOM     20  C   UNL     1      -0.099  -1.416   0.388  0.00  0.00    +0.016 A 
ATOM     21  C   UNL     1      -0.738  -0.191   0.295  0.00  0.00    +0.021 A 
ATOM     22 BR   UNL     1      -0.800   0.954   1.799  0.00  0.00    -0.050 Br
ENDBRANCH   1  18
BRANCH   5  23
ATOM     23  C   UNL     1      -2.208  -6.177  -1.422  0.00  0.00    +0.219 C 
ATOM     24  O   UNL     1      -2.870  -5.162  -1.485  0.00  0.00    -0.275 OA
ATOM     25  N   UNL     1      -2.746  -7.301  -0.909  0.00  0.00    -0.310 N 
ATOM     26  H   UNL     1      -2.243  -8.130  -0.924  0.00  0.00    +0.149 HD
BRANCH  25  27
ATOM     27  C   UNL     1      -4.091  -7.271  -0.329  0.00  0.00    +0.087 C 
BRANCH  27  28
ATOM     28  C   UNL     1      -4.660  -8.666  -0.308  0.00  0.00    -0.029 A 
ATOM     29  C   UNL     1      -3.853  -9.737   0.028  0.00  0.00    +0.005 A 
ATOM     30  C   UNL     1      -4.375 -11.017   0.047  0.00  0.00    +0.000 A 
ATOM     31  C   UNL     1      -5.704 -11.226  -0.268  0.00  0.00    +0.000 A 
ATOM     32  C   UNL     1      -6.512 -10.155  -0.602  0.00  0.00    +0.000 A 
ATOM     33  C   UNL     1      -5.991  -8.875  -0.618  0.00  0.00    +0.005 A 
ENDBRANCH  27  28
BRANCH  27  34
ATOM     34  C   UNL     1      -4.019  -6.727   1.099  0.00  0.00    -0.052 C 
BRANCH  34  35
ATOM     35  N   UNL     1      -5.377  -6.600   1.644  0.00  0.00    +0.377 N 
ATOM     36  C   UNL     1      -5.303  -6.223   3.062  0.00  0.00    -0.097 C 
ATOM     37  C   UNL     1      -6.109  -5.566   0.900  0.00  0.00    -0.097 C 
ATOM     38  H   UNL     1      -5.859  -7.482   1.556  0.00  0.00    -0.083 HD
ENDBRANCH  34  35
ENDBRANCH  27  34
ENDBRANCH  25  27
ENDBRANCH   5  23
TORSDOF 6
