REMARK  Name = ZINC39226180
REMARK  8 active torsions:
REMARK  status: ('A' for Active; 'I' for Inactive)
REMARK    1  A    between atoms: C_1  and  C_2
REMARK    2  A    between atoms: C_2  and  C_3
REMARK    3  A    between atoms: C_2  and  N_4
REMARK    4  A    between atoms: C_15  and  C_20
REMARK    5  A    between atoms: C_23  and  C_26
REMARK    6  A    between atoms: N_28  and  O_29
REMARK    7  A    between atoms: O_29  and  C_30
REMARK    8  A    between atoms: C_30  and  C_31
REMARK                            x       y       z     vdW  Elec       q    Type
REMARK                         _______ _______ _______ _____ _____    ______ ____
ROOT
ATOM      1  N   UNL     1       0.690  -0.478  -1.207  0.00  0.00    +0.381 N 
ATOM      2  C   UNL     1       2.063   0.039  -1.220  0.00  0.00    -0.075 C 
ATOM      3  C   UNL     1       2.758  -0.384  -2.517  0.00  0.00    +0.030 C 
ATOM      4  C   UNL     1       2.783  -1.912  -2.601  0.00  0.00    +0.114 C 
ATOM      5  C   UNL     1       1.352  -2.446  -2.509  0.00  0.00    +0.030 C 
ATOM      6  C   UNL     1       0.709  -1.945  -1.213  0.00  0.00    -0.075 C 
ATOM      7  C   UNL     1       3.398  -2.336  -3.942  0.00  0.00    +0.127 C 
ATOM      8  C   UNL     1       4.820  -1.804  -3.970  0.00  0.00    +0.170 C 
ATOM      9  O   UNL     1       5.307  -1.337  -4.978  0.00  0.00    -0.292 OA
ATOM     10  C   UNL     1       5.579  -1.887  -2.708  0.00  0.00    +0.060 A 
ATOM     11  C   UNL     1       6.953  -1.655  -2.690  0.00  0.00    +0.023 A 
ATOM     12  C   UNL     1       7.645  -1.731  -1.486  0.00  0.00    -0.017 A 
ATOM     13  C   UNL     1       6.960  -2.038  -0.307  0.00  0.00    +0.012 A 
ATOM     14  C   UNL     1       5.602  -2.269  -0.325  0.00  0.00    +0.047 A 
ATOM     15  C   UNL     1       4.896  -2.200  -1.520  0.00  0.00    +0.132 A 
ATOM     16  O   UNL     1       3.564  -2.439  -1.531  0.00  0.00    -0.485 OA
ATOM     17  H   UNL     1       0.199  -0.145  -2.023  0.00  0.00    -0.081 HD
ENDROOT
BRANCH  12  18
ATOM     18  C   UNL     1       9.107  -1.488  -1.454  0.00  0.00    -0.018 A 
ATOM     19  C   UNL     1       9.788  -1.176  -2.631  0.00  0.00    +0.009 A 
ATOM     20  C   UNL     1      11.146  -0.950  -2.601  0.00  0.00    +0.014 A 
ATOM     21  C   UNL     1      11.841  -1.032  -1.392  0.00  0.00    +0.039 A 
ATOM     22  C   UNL     1      11.158  -1.344  -0.214  0.00  0.00    +0.014 A 
ATOM     23  C   UNL     1       9.800  -1.564  -0.245  0.00  0.00    +0.009 A 
BRANCH  21  24
ATOM     24  C   UNL     1      13.298  -0.790  -1.360  0.00  0.00    +0.267 C 
ATOM     25  O   UNL     1      13.892  -0.519  -2.385  0.00  0.00    -0.268 OA
ATOM     26  N   UNL     1      13.968  -0.870  -0.193  0.00  0.00    -0.190 N 
ATOM     27  H   UNL     1      13.494  -1.086   0.625  0.00  0.00    +0.183 HD
BRANCH  26  28
ATOM     28  O   UNL     1      15.365  -0.638  -0.162  0.00  0.00    -0.276 OA
BRANCH  28  29
ATOM     29  C   UNL     1      15.944  -0.755   1.139  0.00  0.00    +0.217 C 
BRANCH  29  30
ATOM     30  C   UNL     1      17.425  -0.489   1.054  0.00  0.00    -0.005 C 
ATOM     31  C   UNL     1      18.003   0.287   1.937  0.00  0.00    +0.006 C 
ENDBRANCH  29  30
ENDBRANCH  28  29
ENDBRANCH  26  28
ENDBRANCH  21  24
ENDBRANCH  12  18
BRANCH   1  33
ATOM     32  C   UNL     1      -0.019   1.526   0.010  0.00  0.00    -0.014 C 
ATOM     33  C   UNL     1       0.002  -0.004   0.002  0.00  0.00    -0.075 C 
ATOM     34  C   UNL     1      -1.433  -0.534   0.013  0.00  0.00    -0.014 C 
ENDBRANCH   1  33
TORSDOF 6
