REMARK  Name = ZINC67589775
REMARK  7 active torsions:
REMARK  status: ('A' for Active; 'I' for Inactive)
REMARK    1  A    between atoms: C_1  and  C_2
REMARK    2  A    between atoms: C_7  and  C_10
REMARK    3  A    between atoms: N_18  and  C_19
REMARK    4  A    between atoms: C_19  and  C_21
REMARK    5  A    between atoms: C_19  and  C_22
REMARK    6  A    between atoms: C_27  and  O_28
REMARK    7  A    between atoms: O_28  and  C_29
REMARK                            x       y       z     vdW  Elec       q    Type
REMARK                         _______ _______ _______ _____ _____    ______ ____
ROOT
ATOM      1  C   UNL     1      -0.023   1.416   0.032  0.00  0.00    +0.039 C 
ATOM      2  C   UNL     1      -0.032  -0.114   0.056  0.00  0.00    +0.133 C 
ATOM      3  C   UNL     1      -1.479  -0.618   0.075  0.00  0.00    +0.140 C 
ATOM      4  N   UNL     1      -2.083  -0.248   1.365  0.00  0.00    -0.280 N 
ATOM      5  C   UNL     1      -1.349  -0.589   2.594  0.00  0.00    +0.145 C 
ATOM      6  C   UNL     1       0.092  -0.087   2.453  0.00  0.00    +0.166 C 
ATOM      7  O   UNL     1       0.644  -0.577   1.228  0.00  0.00    -0.366 OA
ATOM      8  C   UNL     1      -3.272   0.384   1.419  0.00  0.00    +0.303 C 
ATOM      9  O   UNL     1      -3.796   0.601   2.494  0.00  0.00    -0.253 OA
ATOM     10  N   UNL     1      -3.879   0.776   0.282  0.00  0.00    -0.293 N 
ATOM     11  H   UNL     1      -3.500   0.535  -0.578  0.00  0.00    +0.151 HD
ENDROOT
BRANCH   6  12
ATOM     12  C   UNL     1       0.915  -0.586   3.612  0.00  0.00    -0.017 A 
ATOM     13  C   UNL     1       1.494  -1.840   3.559  0.00  0.00    +0.006 A 
ATOM     14  C   UNL     1       2.249  -2.299   4.622  0.00  0.00    +0.000 A 
ATOM     15  C   UNL     1       2.426  -1.502   5.738  0.00  0.00    +0.000 A 
ATOM     16  C   UNL     1       1.848  -0.248   5.791  0.00  0.00    +0.000 A 
ATOM     17  C   UNL     1       1.096   0.212   4.726  0.00  0.00    +0.006 A 
ENDBRANCH   6  12
BRANCH  10  18
ATOM     18  C   UNL     1      -5.111   1.567   0.344  0.00  0.00    +0.105 C 
ATOM     19  C   UNL     1      -4.760   3.056   0.381  0.00  0.00    +0.033 C 
BRANCH  18  20
ATOM     20  C   UNL     1      -5.954   1.280  -0.872  0.00  0.00    +0.014 A 
ATOM     21  C   UNL     1      -5.355   0.866  -2.046  0.00  0.00    +0.009 A 
ATOM     22  C   UNL     1      -6.128   0.603  -3.162  0.00  0.00    +0.001 A 
ATOM     23  C   UNL     1      -7.502   0.752  -3.105  0.00  0.00    +0.004 A 
ATOM     24  C   UNL     1      -8.105   1.165  -1.933  0.00  0.00    +0.046 A 
ATOM     25  C   UNL     1      -7.332   1.425  -0.811  0.00  0.00    +0.125 A 
BRANCH  25  26
ATOM     26  O   UNL     1      -7.923   1.825   0.345  0.00  0.00    -0.495 OA
ATOM     27  C   UNL     1      -9.347   1.953   0.335  0.00  0.00    +0.277 C 
ENDBRANCH  25  26
ENDBRANCH  18  20
ENDBRANCH  10  18
TORSDOF 4
