REMARK  Name = ZINC08382604
REMARK  8 active torsions:
REMARK  status: ('A' for Active; 'I' for Inactive)
REMARK    1  A    between atoms: C_1  and  C_2
REMARK    2  A    between atoms: C_2  and  C_3
REMARK    3  A    between atoms: C_4  and  C_21
REMARK    4  A    between atoms: C_5  and  C_13
REMARK    5  A    between atoms: C_7  and  C_11
REMARK    6  A    between atoms: C_8  and  N_10
REMARK    7  A    between atoms: C_21  and  O_23
REMARK    8  A    between atoms: O_23  and  C_24
REMARK                            x       y       z     vdW  Elec       q    Type
REMARK                         _______ _______ _______ _____ _____    ______ ____
ROOT
ATOM      1  C   UNL     1       4.320   2.122   1.161  0.00  0.00    +0.118 C 
ATOM      2  C   UNL     1       3.294   1.262   1.132  0.00  0.00    +0.087 C 
ATOM      3  C   UNL     1       2.497   1.046  -0.126  0.00  0.00    +0.105 C 
ATOM      4  C   UNL     1       3.258   1.582  -1.308  0.00  0.00    +0.098 C 
ATOM      5  C   UNL     1       4.297   2.432  -1.137  0.00  0.00    +0.198 C 
ATOM      6  O   UNL     1       4.690   2.833   0.085  0.00  0.00    -0.445 OA
ENDROOT
BRANCH   3   7
ATOM      7  C   UNL     1       1.177   1.765  -0.011  0.00  0.00    -0.033 A 
ATOM      8  C   UNL     1      -0.006   1.053  -0.087  0.00  0.00    +0.006 A 
ATOM      9  C   UNL     1      -1.217   1.712   0.012  0.00  0.00    +0.022 A 
ATOM     10  C   UNL     1      -1.246   3.083   0.197  0.00  0.00    +0.059 A 
ATOM     11  C   UNL     1      -0.061   3.795   0.273  0.00  0.00    +0.060 A 
ATOM     12  C   UNL     1       1.150   3.135   0.168  0.00  0.00    +0.026 A 
ATOM     13 CL   UNL     1      -0.096   5.516   0.499  0.00  0.00    -0.082 Cl
ATOM     14 CL   UNL     1      -2.767   3.910   0.328  0.00  0.00    -0.082 Cl
ENDBRANCH   3   7
BRANCH   5  15
ATOM     15  N   UNL     1       4.968   2.898  -2.240  0.00  0.00    -0.328 N 
ATOM     16  H   UNL     1       5.715   3.508  -2.131  0.00  0.00    +0.145 HD
ATOM     17  H   UNL     1       4.696   2.618  -3.127  0.00  0.00    +0.145 HD
ENDBRANCH   5  15
BRANCH   1  19
ATOM     18  C   UNL     1       6.286   1.349   2.460  0.00  0.00    +0.012 C 
ATOM     19  C   UNL     1       5.086   2.298   2.447  0.00  0.00    +0.071 C 
ENDBRANCH   1  19
BRANCH   4  20
ATOM     20  C   UNL     1       2.878   1.188  -2.632  0.00  0.00    +0.101 C 
ATOM     21  N   UNL     1       2.577   0.876  -3.682  0.00  0.00    -0.191 NA
ENDBRANCH   4  20
BRANCH   2  22
ATOM     22  C   UNL     1       2.955   0.543   2.304  0.00  0.00    +0.339 C 
ATOM     23  O   UNL     1       3.310  -0.613   2.433  0.00  0.00    -0.245 OA
BRANCH  22  24
ATOM     24  O   UNL     1       2.237   1.141   3.278  0.00  0.00    -0.465 OA
ATOM     25  C   UNL     1       1.931   0.356   4.432  0.00  0.00    +0.280 C 
ENDBRANCH  22  24
ENDBRANCH   2  22
TORSDOF 6
