REMARK  Name = ZINC40645236
REMARK  11 active torsions:
REMARK  status: ('A' for Active; 'I' for Inactive)
REMARK    1  A    between atoms: C_1  and  C_2
REMARK    2  A    between atoms: C_5  and  S_8
REMARK    3  A    between atoms: S_8  and  N_11
REMARK    4  A    between atoms: N_11  and  N_12
REMARK    5  A    between atoms: C_14  and  N_30
REMARK    6  A    between atoms: C_15  and  N_19
REMARK    7  A    between atoms: N_19  and  C_20
REMARK    8  A    between atoms: C_22  and  C_28
REMARK    9  A    between atoms: C_22  and  C_29
REMARK   10  A    between atoms: C_24  and  C_26
REMARK   11  A    between atoms: C_24  and  C_27
REMARK                            x       y       z     vdW  Elec       q    Type
REMARK                         _______ _______ _______ _____ _____    ______ ____
ROOT
ATOM      1  N   UNL     1       2.217  -4.806   1.155  0.00  0.00    -0.244 N 
ATOM      2  C   UNL     1       2.892  -5.779   1.877  0.00  0.00    +0.169 A 
ATOM      3  C   UNL     1       3.783  -5.421   2.883  0.00  0.00    +0.206 A 
ATOM      4  C   UNL     1       4.434  -6.435   3.578  0.00  0.00    +0.155 A 
ATOM      5  N   UNL     1       4.183  -7.703   3.258  0.00  0.00    -0.218 NA
ATOM      6  C   UNL     1       3.332  -8.002   2.298  0.00  0.00    +0.225 A 
ATOM      7  N   UNL     1       2.691  -7.071   1.620  0.00  0.00    -0.217 NA
ATOM      8  H   UNL     1       2.368  -3.868   1.348  0.00  0.00    +0.169 HD
ENDROOT
BRANCH   3   9
ATOM      9  N   UNL     1       4.032  -3.998   3.206  0.00  0.00    +0.063 N 
ATOM     10  O   UNL     1       3.354  -3.439   4.036  0.00  0.00    -0.126 OA
ATOM     11  O   UNL     1       4.914  -3.395   2.639  0.00  0.00    -0.126 OA
ENDBRANCH   3   9
BRANCH   1  12
ATOM     12  N   UNL     1       1.317  -5.179   0.148  0.00  0.00    -0.109 NA
ATOM     13  H   UNL     1       1.609  -5.760  -0.572  0.00  0.00    +0.172 HD
BRANCH  12  14
ATOM     14  S   UNL     1      -0.243  -4.627   0.187  0.00  0.00    +0.074 S 
ATOM     15  O   UNL     1      -0.764  -4.971   1.463  0.00  0.00    -0.152 OA
ATOM     16  O   UNL     1      -0.854  -5.051  -1.024  0.00  0.00    -0.152 OA
BRANCH  14  21
ATOM     17  C   UNL     1      -0.015   1.399  -0.017  0.00  0.00    +0.044 C 
ATOM     18  C   UNL     1      -0.071  -0.106   0.034  0.00  0.00    -0.050 A 
ATOM     19  C   UNL     1      -0.140  -0.835  -1.138  0.00  0.00    +0.005 A 
ATOM     20  C   UNL     1      -0.192  -2.216  -1.092  0.00  0.00    +0.029 A 
ATOM     21  C   UNL     1      -0.176  -2.867   0.127  0.00  0.00    +0.107 A 
ATOM     22  C   UNL     1      -0.106  -2.138   1.300  0.00  0.00    +0.029 A 
ATOM     23  C   UNL     1      -0.050  -0.758   1.253  0.00  0.00    +0.005 A 
ENDBRANCH  14  21
ENDBRANCH  12  14
ENDBRANCH   1  12
BRANCH   4  24
ATOM     24  N   UNL     1       5.332  -6.130   4.590  0.00  0.00    -0.324 N 
ATOM     25  H   UNL     1       5.510  -5.205   4.817  0.00  0.00    +0.148 HD
BRANCH  24  26
ATOM     26  C   UNL     1       6.013  -7.209   5.316  0.00  0.00    +0.069 C 
ATOM     27  C   UNL     1       5.133  -7.664   6.482  0.00  0.00    +0.009 C 
ATOM     28  C   UNL     1       5.835  -8.779   7.256  0.00  0.00    -0.072 C 
ATOM     29  N   UNL     1       7.171  -8.393   7.684  0.00  0.00    +0.386 N 
ATOM     30  C   UNL     1       8.036  -7.756   6.704  0.00  0.00    -0.072 C 
ATOM     31  C   UNL     1       7.329  -6.680   5.887  0.00  0.00    +0.009 C 
ATOM     32  C   UNL     1       9.183  -7.064   7.478  0.00  0.00    -0.010 C 
ATOM     33  C   UNL     1       8.684  -8.781   5.769  0.00  0.00    -0.010 C 
ATOM     34  C   UNL     1       4.998  -9.051   8.528  0.00  0.00    -0.010 C 
ATOM     35  C   UNL     1       5.843 -10.068   6.436  0.00  0.00    -0.010 C 
ATOM     36  H   UNL     1       7.082  -7.768   8.489  0.00  0.00    -0.084 HD
ATOM     37  H   UNL     1       7.647  -9.225   8.042  0.00  0.00    -0.084 HD
ENDBRANCH  24  26
ENDBRANCH   4  24
TORSDOF 6
