REMARK  Name = ZINC66421746
REMARK  5 active torsions:
REMARK  status: ('A' for Active; 'I' for Inactive)
REMARK    1  A    between atoms: C_1  and  C_2
REMARK    2  A    between atoms: C_7  and  N_10
REMARK    3  A    between atoms: C_11  and  C_13
REMARK    4  A    between atoms: C_13  and  N_14
REMARK    5  A    between atoms: C_20  and  C_22
REMARK                            x       y       z     vdW  Elec       q    Type
REMARK                         _______ _______ _______ _____ _____    ______ ____
ROOT
ATOM      1  N   UNL     1       3.643  -5.230  -1.308  0.00  0.00    -0.291 NA
ATOM      2  C   UNL     1       4.689  -5.215  -0.277  0.00  0.00    +0.104 C 
ATOM      3  C   UNL     1       4.928  -6.644   0.224  0.00  0.00    +0.123 C 
ATOM      4  N   UNL     1       5.210  -7.504  -0.935  0.00  0.00    -0.299 N 
ATOM      5  C   UNL     1       4.276  -7.470  -2.071  0.00  0.00    +0.123 C 
ATOM      6  C   UNL     1       4.062  -6.009  -2.482  0.00  0.00    +0.104 C 
ATOM      7  C   UNL     1       6.295  -8.303  -0.956  0.00  0.00    +0.220 C 
ATOM      8  O   UNL     1       6.458  -9.081  -1.872  0.00  0.00    -0.275 OA
ENDROOT
BRANCH   7   9
ATOM      9  C   UNL     1       7.306  -8.229   0.159  0.00  0.00    +0.093 C 
ATOM     10  C   UNL     1       8.587  -8.953  -0.264  0.00  0.00    +0.016 C 
ATOM     11  C   UNL     1       9.626  -8.851   0.855  0.00  0.00    +0.020 C 
ATOM     12  C   UNL     1       9.082  -9.530   2.115  0.00  0.00    +0.109 C 
ATOM     13  N   UNL     1       7.779  -8.937   2.446  0.00  0.00    -0.285 N 
ATOM     14  C   UNL     1       6.735  -8.901   1.412  0.00  0.00    +0.122 C 
ATOM     15  C   UNL     1       7.544  -8.436   3.675  0.00  0.00    +0.300 C 
ATOM     16  O   UNL     1       6.435  -8.031   3.965  0.00  0.00    -0.253 OA
ATOM     17  N   UNL     1       8.539  -8.384   4.582  0.00  0.00    -0.313 N 
ATOM     18  H   UNL     1       9.404  -8.772   4.377  0.00  0.00    +0.146 HD
ATOM     19  H   UNL     1       8.391  -7.958   5.441  0.00  0.00    +0.146 HD
ENDBRANCH   7   9
BRANCH   1  20
ATOM     20  C   UNL     1       3.262  -3.865  -1.692  0.00  0.00    +0.180 C 
BRANCH  20  22
ATOM     21  N   UNL     1       2.176  -1.907  -0.639  0.00  0.00    -0.311 N 
ATOM     22  C   UNL     1       2.610  -3.177  -0.520  0.00  0.00    +0.227 C 
ATOM     23  O   UNL     1       2.476  -3.767   0.531  0.00  0.00    -0.274 OA
ATOM     24  H   UNL     1       2.283  -1.435  -1.480  0.00  0.00    +0.149 HD
BRANCH  21  30
ATOM     25  C   UNL     1       1.208   2.257  -1.080  0.00  0.00    +0.007 C 
ATOM     26  C   UNL     1       1.043   0.742  -0.939  0.00  0.00    -0.012 C 
ATOM     27  C   UNL     1      -0.446   0.391  -0.906  0.00  0.00    +0.003 C 
ATOM     28  C   UNL     1      -0.610  -1.123  -0.765  0.00  0.00    +0.002 C 
ATOM     29  C   UNL     1       0.053  -1.589   0.533  0.00  0.00    +0.022 C 
ATOM     30  C   UNL     1       1.542  -1.239   0.500  0.00  0.00    +0.073 C 
ATOM     31  C   UNL     1       1.706   0.276   0.359  0.00  0.00    +0.025 C 
ENDBRANCH  21  30
ENDBRANCH  20  22
ENDBRANCH   1  20
TORSDOF 4
