REMARK  Name = ZINC39992679
REMARK  7 active torsions:
REMARK  status: ('A' for Active; 'I' for Inactive)
REMARK    1  A    between atoms: C_7  and  C_10
REMARK    2  A    between atoms: C_11  and  C_12
REMARK    3  A    between atoms: C_11  and  C_14
REMARK    4  A    between atoms: N_16  and  C_17
REMARK    5  A    between atoms: C_18  and  C_28
REMARK    6  A    between atoms: N_30  and  C_31
REMARK    7  A    between atoms: C_31  and  C_32
REMARK                            x       y       z     vdW  Elec       q    Type
REMARK                         _______ _______ _______ _____ _____    ______ ____
ROOT
ATOM      1  C   UNL     1      -0.187  -7.890  -0.053  0.00  0.00    +0.076 C 
ATOM      2  C   UNL     1       0.130  -9.236  -0.044  0.00  0.00    +0.046 C 
ATOM      3  C   UNL     1      -0.996 -10.161   0.028  0.00  0.00    +0.040 C 
ATOM      4  C   UNL     1      -0.915 -11.628  -0.232  0.00  0.00    +0.009 C 
ATOM      5  C   UNL     1      -2.063 -12.300   0.549  0.00  0.00    +0.001 C 
ATOM      6  C   UNL     1      -3.405 -11.684   0.165  0.00  0.00    +0.001 C 
ATOM      7  C   UNL     1      -3.422 -10.166   0.397  0.00  0.00    +0.015 C 
ATOM      8  C   UNL     1      -2.320  -9.563  -0.496  0.00  0.00    +0.060 C 
ATOM      9  S   UNL     1      -1.975  -7.816  -0.031  0.00  0.00    -0.106 S 
ENDROOT
BRANCH   1  12
ATOM     10  C   UNL     1       0.220  -5.565  -0.071  0.00  0.00    +0.259 C 
ATOM     11  O   UNL     1      -0.979  -5.363  -0.057  0.00  0.00    -0.269 OA
ATOM     12  N   UNL     1       0.691  -6.828  -0.070  0.00  0.00    -0.275 N 
ATOM     13  H   UNL     1       1.647  -6.989  -0.081  0.00  0.00    +0.156 HD
BRANCH  10  15
ATOM     14  C   UNL     1       0.674  -3.131  -0.090  0.00  0.00    +0.030 C 
ATOM     15  C   UNL     1       1.158  -4.430  -0.089  0.00  0.00    +0.114 C 
BRANCH  14  22
ATOM     16  C   UNL     1       0.005   1.353  -0.107  0.00  0.00    +0.001 A 
ATOM     17  C   UNL     1       1.179   2.117  -0.126  0.00  0.00    +0.002 A 
ATOM     18  C   UNL     1       2.404   1.544  -0.138  0.00  0.00    +0.026 A 
ATOM     19  C   UNL     1       2.508   0.078  -0.131  0.00  0.00    +0.043 A 
ATOM     20  N   UNL     1       3.540  -0.723  -0.140  0.00  0.00    -0.380 N 
ATOM     21  C   UNL     1       3.077  -2.114  -0.126  0.00  0.00    +0.149 C 
ATOM     22  C   UNL     1       1.565  -2.052  -0.107  0.00  0.00    -0.018 C 
ATOM     23  C   UNL     1       1.248  -0.699  -0.111  0.00  0.00    +0.003 A 
ATOM     24  C   UNL     1       0.021  -0.001  -0.099  0.00  0.00    +0.010 A 
ATOM     25  H   UNL     1       4.468  -0.441  -0.154  0.00  0.00    +0.160 HD
ENDBRANCH  14  22
BRANCH  15  26
ATOM     26  C   UNL     1       2.570  -4.668  -0.105  0.00  0.00    +0.104 C 
ATOM     27  N   UNL     1       3.690  -4.857  -0.118  0.00  0.00    -0.191 NA
ENDBRANCH  15  26
ENDBRANCH  10  15
ENDBRANCH   1  12
BRANCH   2  28
ATOM     28  C   UNL     1       1.458  -9.687  -0.102  0.00  0.00    +0.243 C 
ATOM     29  O   UNL     1       1.900 -10.150  -1.139  0.00  0.00    -0.270 OA
ATOM     30  N   UNL     1       2.244  -9.606   0.990  0.00  0.00    -0.309 N 
ATOM     31  H   UNL     1       1.873  -9.308   1.835  0.00  0.00    +0.149 HD
BRANCH  30  32
ATOM     32  C   UNL     1       3.661  -9.970   0.900  0.00  0.00    +0.136 C 
BRANCH  32  33
ATOM     33  C   UNL     1       4.321  -9.791   2.269  0.00  0.00    +0.135 C 
ATOM     34  C   UNL     1       5.838 -10.056   2.158  0.00  0.00    +0.035 C 
ATOM     35  C   UNL     1       6.137 -10.820   3.476  0.00  0.00    +0.031 C 
ATOM     36  C   UNL     1       4.822 -11.619   3.658  0.00  0.00    +0.160 C 
ATOM     37  O   UNL     1       3.781 -10.740   3.197  0.00  0.00    -0.375 OA
ENDBRANCH  32  33
ENDBRANCH  30  32
ENDBRANCH   2  28
TORSDOF 7
