REMARK  Name = ZINC64481032
REMARK  3 active torsions:
REMARK  status: ('A' for Active; 'I' for Inactive)
REMARK    1  A    between atoms: C_3  and  O_24
REMARK    2  A    between atoms: C_4  and  O_23
REMARK    3  A    between atoms: C_6  and  C_7
REMARK                            x       y       z     vdW  Elec       q    Type
REMARK                         _______ _______ _______ _____ _____    ______ ____
ROOT
ATOM      1  C   UNL     1      -1.294  -0.774   0.010  0.00  0.00    +0.111 C 
ATOM      2  C   UNL     1      -1.885  -0.803  -1.401  0.00  0.00    +0.128 C 
ATOM      3  C   UNL     1      -3.263  -1.443  -1.273  0.00  0.00    -0.035 C 
ATOM      4  C   UNL     1      -3.289  -2.452  -2.132  0.00  0.00    +0.001 A 
ATOM      5  C   UNL     1      -4.361  -3.381  -2.523  0.00  0.00    +0.030 A 
ATOM      6  C   UNL     1      -4.031  -4.326  -3.444  0.00  0.00    +0.042 A 
ATOM      7  C   UNL     1      -2.755  -4.437  -4.009  0.00  0.00    +0.022 A 
ATOM      8  C   UNL     1      -1.712  -3.622  -3.711  0.00  0.00    +0.027 A 
ATOM      9  C   UNL     1      -1.938  -2.586  -2.760  0.00  0.00    +0.043 A 
ATOM     10  N   UNL     1      -1.121  -1.651  -2.314  0.00  0.00    -0.376 N 
ATOM     11 CL   UNL     1      -5.254  -5.451  -3.945  0.00  0.00    -0.084 Cl
ATOM     12  C   UNL     1      -4.262  -0.973  -0.244  0.00  0.00    +0.048 C 
ATOM     13  C   UNL     1      -3.495  -0.875   1.087  0.00  0.00    +0.086 C 
ATOM     14  N   UNL     1      -2.258  -0.112   0.903  0.00  0.00    -0.307 NA
ATOM     15  H   UNL     1      -1.834   0.111   1.792  0.00  0.00    +0.123 HD
ATOM     16  H   UNL     1      -0.184  -1.541  -2.541  0.00  0.00    +0.160 HD
ENDROOT
BRANCH   1  22
ATOM     17  C   UNL     1      -0.017   1.378   0.010  0.00  0.00    +0.009 A 
ATOM     18  C   UNL     1       1.170   2.089   0.002  0.00  0.00    +0.049 A 
ATOM     19  C   UNL     1       2.380   1.415  -0.013  0.00  0.00    +0.158 A 
ATOM     20  C   UNL     1       2.399   0.024  -0.021  0.00  0.00    +0.159 A 
ATOM     21  C   UNL     1       1.207  -0.682  -0.013  0.00  0.00    +0.054 A 
ATOM     22  C   UNL     1       0.002  -0.004   0.002  0.00  0.00    -0.025 A 
BRANCH  20  23
ATOM     23  O   UNL     1       3.585  -0.642  -0.036  0.00  0.00    -0.503 OA
ATOM     24  H   UNL     1       3.937  -0.839   0.843  0.00  0.00    +0.292 HD
ENDBRANCH  20  23
BRANCH  19  25
ATOM     25  O   UNL     1       3.548   2.113  -0.021  0.00  0.00    -0.503 OA
ATOM     26  H   UNL     1       3.894   2.310   0.860  0.00  0.00    +0.292 HD
ENDBRANCH  19  25
ENDBRANCH   1  22
TORSDOF 3
