REMARK  Name = ZINC36204754
REMARK  16 active torsions:
REMARK  status: ('A' for Active; 'I' for Inactive)
REMARK    1  A    between atoms: C_1  and  C_2
REMARK    2  A    between atoms: C_3  and  C_33
REMARK    3  A    between atoms: C_11  and  C_13
REMARK    4  A    between atoms: C_13  and  N_14
REMARK    5  A    between atoms: N_14  and  C_15
REMARK    6  A    between atoms: N_14  and  C_20
REMARK    7  A    between atoms: C_15  and  C_16
REMARK    8  A    between atoms: C_16  and  C_17
REMARK    9  A    between atoms: C_17  and  C_18
REMARK   10  A    between atoms: C_17  and  C_19
REMARK   11  A    between atoms: C_20  and  C_21
REMARK   12  A    between atoms: C_21  and  C_23
REMARK   13  A    between atoms: C_21  and  O_32
REMARK   14  A    between atoms: C_23  and  O_24
REMARK   15  A    between atoms: O_24  and  C_25
REMARK   16  A    between atoms: C_25  and  C_26
REMARK                            x       y       z     vdW  Elec       q    Type
REMARK                         _______ _______ _______ _____ _____    ______ ____
ROOT
ATOM      1  N   UNL     1       0.353  -4.865   4.102  0.00  0.00    +0.386 N 
ATOM      2  H   UNL     1       1.091  -5.382   3.648  0.00  0.00    -0.081 HD
ENDROOT
BRANCH   1   3
ATOM      3  C   UNL     1       0.852  -3.539   4.491  0.00  0.00    -0.003 C 
BRANCH   3  14
ATOM      4  C   UNL     1       3.655   0.248  -0.279  0.00  0.00    +0.045 C 
ATOM      5  C   UNL     1       3.137  -1.161  -0.151  0.00  0.00    -0.026 A 
ATOM      6  C   UNL     1       3.191  -2.002  -1.196  0.00  0.00    -0.008 A 
ATOM      7  S   UNL     1       2.475  -3.504  -0.555  0.00  0.00    -0.073 S 
ATOM      8  C   UNL     1       2.126  -2.958   1.097  0.00  0.00    +0.116 A 
ATOM      9  C   UNL     1       2.579  -1.627   1.105  0.00  0.00    +0.075 A 
ATOM     10  C   UNL     1       2.422  -0.926   2.345  0.00  0.00    +0.260 A 
ATOM     11  O   UNL     1       2.780   0.234   2.451  0.00  0.00    -0.267 OA
ATOM     12  N   UNL     1       1.871  -1.569   3.392  0.00  0.00    -0.312 N 
ATOM     13  H   UNL     1       1.761  -1.100   4.234  0.00  0.00    +0.170 HD
ATOM     14  C   UNL     1       1.464  -2.861   3.292  0.00  0.00    +0.094 A 
ATOM     15  N   UNL     1       1.586  -3.524   2.173  0.00  0.00    -0.229 NA
ATOM     16  C   UNL     1       3.726  -1.739  -2.580  0.00  0.00    +0.052 C 
ENDBRANCH   3  14
ENDBRANCH   1   3
BRANCH   1  17
ATOM     17  C   UNL     1      -0.777  -4.710   3.176  0.00  0.00    -0.078 C 
BRANCH  17  18
ATOM     18  C   UNL     1      -1.930  -4.004   3.893  0.00  0.00    -0.016 C 
BRANCH  18  19
ATOM     19  C   UNL     1      -3.143  -3.934   2.962  0.00  0.00    -0.019 C 
ATOM     20  C   UNL     1      -4.333  -3.342   3.719  0.00  0.00    +0.007 C 
ATOM     21  C   UNL     1      -2.812  -3.050   1.758  0.00  0.00    +0.007 C 
ENDBRANCH  18  19
ENDBRANCH  17  18
ENDBRANCH   1  17
BRANCH   1  22
ATOM     22  C   UNL     1      -0.090  -5.592   5.299  0.00  0.00    -0.044 C 
BRANCH  22  23
ATOM     23  C   UNL     1      -0.452  -7.029   4.918  0.00  0.00    +0.124 C 
BRANCH  23  24
ATOM     24  O   UNL     1      -1.617  -7.023   4.091  0.00  0.00    -0.391 OA
ATOM     25  H   UNL     1      -2.396  -6.634   4.511  0.00  0.00    +0.210 HD
ENDBRANCH  23  24
BRANCH  23  26
ATOM     26  C   UNL     1      -0.731  -7.838   6.186  0.00  0.00    +0.189 C 
BRANCH  26  27
ATOM     27  O   UNL     1      -0.955  -9.206   5.839  0.00  0.00    -0.373 OA
BRANCH  27  28
ATOM     28  C   UNL     1      -1.226 -10.052   6.958  0.00  0.00    +0.195 C 
BRANCH  28  29
ATOM     29  C   UNL     1      -1.445 -11.464   6.478  0.00  0.00    -0.022 A 
ATOM     30  C   UNL     1      -2.715 -11.889   6.136  0.00  0.00    +0.006 A 
ATOM     31  C   UNL     1      -2.916 -13.184   5.696  0.00  0.00    +0.000 A 
ATOM     32  C   UNL     1      -1.847 -14.054   5.597  0.00  0.00    +0.000 A 
ATOM     33  C   UNL     1      -0.576 -13.629   5.939  0.00  0.00    +0.000 A 
ATOM     34  C   UNL     1      -0.375 -12.333   6.375  0.00  0.00    +0.006 A 
ENDBRANCH  28  29
ENDBRANCH  27  28
ENDBRANCH  26  27
ENDBRANCH  23  26
ENDBRANCH  22  23
ENDBRANCH   1  22
TORSDOF 12
