REMARK  Name = ZINC04436494
REMARK  9 active torsions:
REMARK  status: ('A' for Active; 'I' for Inactive)
REMARK    1  A    between atoms: C_1  and  C_2
REMARK    2  A    between atoms: C_5  and  C_9
REMARK    3  A    between atoms: C_6  and  C_8
REMARK    4  A    between atoms: C_11  and  C_25
REMARK    5  A    between atoms: C_12  and  C_17
REMARK    6  A    between atoms: C_17  and  S_18
REMARK    7  A    between atoms: S_18  and  C_19
REMARK    8  A    between atoms: C_25  and  O_27
REMARK    9  A    between atoms: O_27  and  C_28
REMARK                            x       y       z     vdW  Elec       q    Type
REMARK                         _______ _______ _______ _____ _____    ______ ____
ROOT
ATOM      1  C   UNL     1      -9.239   5.855   1.335  0.00  0.00    +0.144 C 
ATOM      2  C   UNL     1      -7.772   5.659   1.006  0.00  0.00    +0.079 C 
ATOM      3  C   UNL     1      -7.445   5.407  -0.280  0.00  0.00    +0.034 C 
ATOM      4  N   UNL     1      -8.403   5.335  -1.250  0.00  0.00    -0.272 N 
ATOM      5  C   UNL     1      -9.712   5.494  -1.015  0.00  0.00    +0.304 C 
ATOM      6  O   UNL     1     -10.491   5.407  -1.944  0.00  0.00    -0.252 OA
ATOM      7  N   UNL     1     -10.193   5.752   0.218  0.00  0.00    -0.288 N 
ATOM      8  H   UNL     1      -8.120   5.156  -2.160  0.00  0.00    +0.156 HD
ATOM      9  H   UNL     1     -11.144   5.867   0.365  0.00  0.00    +0.151 HD
ENDROOT
BRANCH   1  14
ATOM     10  C   UNL     1      -9.848  11.083   3.720  0.00  0.00    +0.044 C 
ATOM     11  C   UNL     1      -9.690   9.719   3.098  0.00  0.00    -0.050 A 
ATOM     12  C   UNL     1      -9.830   9.562   1.732  0.00  0.00    +0.004 A 
ATOM     13  C   UNL     1      -9.684   8.312   1.161  0.00  0.00    +0.006 A 
ATOM     14  C   UNL     1      -9.398   7.218   1.957  0.00  0.00    -0.020 A 
ATOM     15  C   UNL     1      -9.262   7.374   3.324  0.00  0.00    -0.045 A 
ATOM     16  C   UNL     1      -9.404   8.626   3.894  0.00  0.00    +0.007 A 
ATOM     17  C   UNL     1      -8.956   6.181   4.191  0.00  0.00    +0.044 C 
ENDBRANCH   1  14
BRANCH   2  18
ATOM     18  C   UNL     1      -6.780   5.738   2.011  0.00  0.00    +0.339 C 
ATOM     19  O   UNL     1      -6.572   4.784   2.737  0.00  0.00    -0.245 OA
BRANCH  18  20
ATOM     20  O   UNL     1      -6.066   6.872   2.166  0.00  0.00    -0.465 OA
ATOM     21  C   UNL     1      -5.030   6.857   3.151  0.00  0.00    +0.280 C 
ENDBRANCH  18  20
ENDBRANCH   2  18
BRANCH   3  22
ATOM     22  C   UNL     1      -5.998   5.207  -0.650  0.00  0.00    +0.127 C 
BRANCH  22  23
ATOM     23  S   UNL     1      -5.683   3.442  -0.927  0.00  0.00    -0.091 S 
BRANCH  23  24
ATOM     24  C   UNL     1      -3.973   3.374  -1.347  0.00  0.00    +0.160 A 
ATOM     25  N   UNL     1      -3.098   4.356  -1.446  0.00  0.00    -0.133 NA
ATOM     26  N   UNL     1      -1.794   4.078  -1.785  0.00  0.00    -0.125 NA
ATOM     27  C   UNL     1      -1.428   2.833  -2.021  0.00  0.00    +0.180 A 
ATOM     28  S   UNL     1      -2.962   1.958  -1.751  0.00  0.00    -0.025 S 
ATOM     29  N   UNL     1      -0.181   2.334  -2.378  0.00  0.00    -0.336 N 
ATOM     30  H   UNL     1      -0.061   1.381  -2.515  0.00  0.00    +0.144 HD
ATOM     31  H   UNL     1       0.569   2.939  -2.494  0.00  0.00    +0.144 HD
ENDBRANCH  23  24
ENDBRANCH  22  23
ENDBRANCH   3  22
TORSDOF 6
