REMARK  Name = ZINC35576352
REMARK  9 active torsions:
REMARK  status: ('A' for Active; 'I' for Inactive)
REMARK    1  A    between atoms: C_1  and  O_2
REMARK    2  A    between atoms: O_2  and  C_3
REMARK    3  A    between atoms: C_3  and  C_4
REMARK    4  A    between atoms: C_4  and  N_5
REMARK    5  A    between atoms: C_8  and  C_22
REMARK    6  A    between atoms: C_10  and  N_21
REMARK    7  A    between atoms: N_11  and  C_15
REMARK    8  A    between atoms: C_25  and  O_29
REMARK    9  A    between atoms: O_29  and  C_30
REMARK                            x       y       z     vdW  Elec       q    Type
REMARK                         _______ _______ _______ _____ _____    ______ ____
ROOT
ATOM      1  N   UNL     1      -0.191  -2.517   1.068  0.00  0.00    -0.311 N 
ATOM      2  C   UNL     1      -0.208  -3.853   1.429  0.00  0.00    +0.218 A 
ATOM      3  N   UNL     1       0.320  -4.194   2.600  0.00  0.00    -0.214 NA
ATOM      4  C   UNL     1       0.346  -5.452   3.023  0.00  0.00    +0.091 A 
ATOM      5  C   UNL     1      -0.210  -6.450   2.190  0.00  0.00    +0.086 A 
ATOM      6  C   UNL     1      -0.374  -7.828   2.262  0.00  0.00    +0.131 A 
ATOM      7  N   UNL     1      -0.990  -8.222   1.129  0.00  0.00    -0.216 N 
ATOM      8  N   UNL     1      -1.233  -7.114   0.309  0.00  0.00    -0.144 NA
ATOM      9  C   UNL     1      -0.784  -6.028   0.900  0.00  0.00    +0.189 A 
ATOM     10  N   UNL     1      -0.750  -4.716   0.594  0.00  0.00    -0.193 NA
ATOM     11  H   UNL     1       0.202  -1.859   1.663  0.00  0.00    +0.149 HD
ENDROOT
BRANCH   4  12
ATOM     12  C   UNL     1       0.941  -5.801   4.331  0.00  0.00    +0.037 A 
ATOM     13  C   UNL     1       1.988  -6.723   4.401  0.00  0.00    +0.016 A 
ATOM     14  C   UNL     1       2.539  -7.045   5.621  0.00  0.00    +0.046 A 
ATOM     15  C   UNL     1       2.056  -6.454   6.783  0.00  0.00    +0.123 A 
ATOM     16  C   UNL     1       1.015  -5.538   6.720  0.00  0.00    +0.084 A 
ATOM     17  C   UNL     1       0.461  -5.204   5.501  0.00  0.00    +0.136 A 
ATOM     18  F   UNL     1      -0.548  -4.307   5.439  0.00  0.00    -0.205 F 
BRANCH  15  19
ATOM     19  O   UNL     1       2.603  -6.776   7.983  0.00  0.00    -0.495 OA
ATOM     20  C   UNL     1       2.059  -6.133   9.138  0.00  0.00    +0.277 C 
ENDBRANCH  15  19
ENDBRANCH   4  12
BRANCH   7  21
ATOM     21  C   UNL     1      -1.334  -9.543   0.819  0.00  0.00    +0.067 A 
ATOM     22  C   UNL     1      -0.516 -10.589   1.225  0.00  0.00    +0.028 A 
ATOM     23  C   UNL     1      -0.859 -11.891   0.917  0.00  0.00    +0.002 A 
ATOM     24  C   UNL     1      -2.015 -12.154   0.206  0.00  0.00    +0.000 A 
ATOM     25  C   UNL     1      -2.832 -11.114  -0.200  0.00  0.00    +0.002 A 
ATOM     26  C   UNL     1      -2.498  -9.810   0.110  0.00  0.00    +0.028 A 
ENDBRANCH   7  21
BRANCH   6  27
ATOM     27  N   UNL     1       0.021  -8.645   3.304  0.00  0.00    -0.342 N 
ATOM     28  H   UNL     1       0.466  -8.264   4.077  0.00  0.00    +0.144 HD
ATOM     29  H   UNL     1      -0.146  -9.600   3.262  0.00  0.00    +0.144 HD
ENDBRANCH   6  27
BRANCH   1  30
ATOM     30  C   UNL     1      -0.768  -2.097  -0.211  0.00  0.00    +0.132 C 
BRANCH  30  31
ATOM     31  C   UNL     1      -0.621  -0.582  -0.364  0.00  0.00    +0.178 C 
BRANCH  31  33
ATOM     32  C   UNL     1       1.014   1.157  -0.588  0.00  0.00    +0.194 C 
ATOM     33  O   UNL     1       0.765  -0.243  -0.444  0.00  0.00    -0.381 OA
ENDBRANCH  31  33
ENDBRANCH  30  31
ENDBRANCH   1  30
TORSDOF 7
