REMARK  Name = ZINC00854223
REMARK  7 active torsions:
REMARK  status: ('A' for Active; 'I' for Inactive)
REMARK    1  A    between atoms: C_1  and  O_2
REMARK    2  A    between atoms: O_2  and  C_3
REMARK    3  A    between atoms: C_6  and  C_9
REMARK    4  A    between atoms: C_10  and  C_11
REMARK    5  A    between atoms: C_10  and  N_15
REMARK    6  A    between atoms: N_13  and  N_14
REMARK    7  A    between atoms: C_16  and  C_18
REMARK                            x       y       z     vdW  Elec       q    Type
REMARK                         _______ _______ _______ _____ _____    ______ ____
ROOT
ATOM      1  C   UNL     1       0.891   2.450   0.155  0.00  0.00    +0.036 C 
ATOM      2  C   UNL     1      -0.152   1.665  -0.202  0.00  0.00    +0.098 C 
ENDROOT
BRANCH   1   6
ATOM      3  C   UNL     1       4.788   0.799   0.438  0.00  0.00    +0.120 A 
ATOM      4  C   UNL     1       4.617   2.090  -0.048  0.00  0.00    +0.046 A 
ATOM      5  C   UNL     1       3.354   2.631  -0.142  0.00  0.00    +0.011 A 
ATOM      6  C   UNL     1       2.242   1.878   0.252  0.00  0.00    -0.023 A 
ATOM      7  C   UNL     1       2.421   0.580   0.745  0.00  0.00    +0.011 A 
ATOM      8  C   UNL     1       3.687   0.047   0.830  0.00  0.00    +0.046 A 
BRANCH   3  10
ATOM      9  C   UNL     1       6.141  -1.061   1.037  0.00  0.00    +0.277 C 
ATOM     10  O   UNL     1       6.036   0.271   0.529  0.00  0.00    -0.495 OA
ENDBRANCH   3  10
ENDBRANCH   1   6
BRANCH   2  11
ATOM     11  C   UNL     1       0.084   0.282  -0.636  0.00  0.00    +0.272 C 
ATOM     12  O   UNL     1      -0.194  -0.644   0.104  0.00  0.00    -0.268 OA
ATOM     13  N   UNL     1       0.608   0.037  -1.853  0.00  0.00    -0.249 N 
ATOM     14  H   UNL     1       0.760   0.769  -2.471  0.00  0.00    +0.169 HD
BRANCH  13  15
ATOM     15  N   UNL     1       0.925  -1.241  -2.216  0.00  0.00    -0.254 NA
ATOM     16  H   UNL     1       0.106  -1.830  -2.216  0.00  0.00    +0.140 HD
ATOM     17  H   UNL     1       1.382  -1.258  -3.116  0.00  0.00    +0.140 HD
ENDBRANCH  13  15
ENDBRANCH   2  11
BRANCH   2  18
ATOM     18  N   UNL     1      -1.455   2.173  -0.162  0.00  0.00    -0.275 N 
ATOM     19  C   UNL     1      -2.496   1.385  -0.496  0.00  0.00    +0.284 C 
ATOM     20  O   UNL     1      -2.315   0.205  -0.734  0.00  0.00    -0.266 OA
ATOM     21  H   UNL     1      -1.609   3.092   0.105  0.00  0.00    +0.155 HD
BRANCH  19  22
ATOM     22  C   UNL     1      -3.847   1.948  -0.573  0.00  0.00    +0.191 A 
ATOM     23  C   UNL     1      -4.984   1.265  -0.898  0.00  0.00    +0.056 A 
ATOM     24  C   UNL     1      -6.038   2.189  -0.849  0.00  0.00    +0.058 A 
ATOM     25  C   UNL     1      -5.505   3.383  -0.501  0.00  0.00    +0.171 A 
ATOM     26  O   UNL     1      -4.185   3.232  -0.330  0.00  0.00    -0.444 OA
ATOM     27 BR   UNL     1      -6.467   4.997  -0.283  0.00  0.00    -0.008 Br
ENDBRANCH  19  22
ENDBRANCH   2  18
TORSDOF 6
