REMARK  Name = ZINC00892869
REMARK  7 active torsions:
REMARK  status: ('A' for Active; 'I' for Inactive)
REMARK    1  A    between atoms: C_3  and  S_23
REMARK    2  A    between atoms: C_6  and  C_7
REMARK    3  A    between atoms: C_7  and  C_8
REMARK    4  A    between atoms: C_8  and  N_9
REMARK    5  A    between atoms: C_10  and  C_12
REMARK    6  A    between atoms: C_13  and  C_14
REMARK    7  A    between atoms: S_23  and  N_26
REMARK                            x       y       z     vdW  Elec       q    Type
REMARK                         _______ _______ _______ _____ _____    ______ ____
ROOT
ATOM      1  N   UNL     1      -3.004  -1.778  -1.420  0.00  0.00    -0.312 N 
ATOM      2  C   UNL     1      -3.594  -2.117  -2.584  0.00  0.00    +0.237 C 
ATOM      3  O   UNL     1      -3.082  -1.800  -3.641  0.00  0.00    -0.271 OA
ATOM      4  H   UNL     1      -3.412  -2.031  -0.578  0.00  0.00    +0.149 HD
ENDROOT
BRANCH   2   5
ATOM      5  C   UNL     1      -4.851  -2.865  -2.575  0.00  0.00    +0.068 C 
ATOM      6  C   UNL     1      -5.442  -3.204  -3.740  0.00  0.00    +0.013 C 
BRANCH   6   7
ATOM      7  C   UNL     1      -6.705  -3.957  -3.732  0.00  0.00    -0.021 A 
ATOM      8  C   UNL     1      -7.299  -4.317  -2.517  0.00  0.00    +0.012 A 
ATOM      9  C   UNL     1      -8.483  -5.022  -2.512  0.00  0.00    +0.050 A 
ATOM     10  C   UNL     1      -9.091  -5.376  -3.710  0.00  0.00    +0.166 A 
ATOM     11  C   UNL     1      -8.504  -5.020  -4.925  0.00  0.00    +0.167 A 
ATOM     12  C   UNL     1      -7.320  -4.309  -4.938  0.00  0.00    +0.057 A 
ATOM     13  O   UNL     1      -9.291  -5.482  -5.940  0.00  0.00    -0.453 OA
ATOM     14  C   UNL     1     -10.146  -6.474  -5.342  0.00  0.00    +0.466 C 
ATOM     15  O   UNL     1     -10.243  -6.059  -3.967  0.00  0.00    -0.453 OA
ENDBRANCH   6   7
ENDBRANCH   2   5
BRANCH   1  16
ATOM     16  C   UNL     1      -1.745  -1.028  -1.429  0.00  0.00    +0.109 C 
BRANCH  16  17
ATOM     17  C   UNL     1      -1.293  -0.775   0.011  0.00  0.00    +0.054 C 
BRANCH  17  23
ATOM     18  C   UNL     1      -0.017   1.378   0.010  0.00  0.00    +0.005 A 
ATOM     19  C   UNL     1       1.171   2.086   0.002  0.00  0.00    +0.029 A 
ATOM     20  C   UNL     1       2.377   1.411  -0.013  0.00  0.00    +0.105 A 
ATOM     21  C   UNL     1       2.396   0.029  -0.020  0.00  0.00    +0.029 A 
ATOM     22  C   UNL     1       1.208  -0.679  -0.012  0.00  0.00    +0.005 A 
ATOM     23  C   UNL     1       0.002  -0.004   0.002  0.00  0.00    -0.046 A 
BRANCH  20  24
ATOM     24  S   UNL     1       3.891   2.312  -0.024  0.00  0.00    +0.056 S 
ATOM     25  O   UNL     1       4.872   1.453  -0.588  0.00  0.00    -0.153 OA
ATOM     26  O   UNL     1       3.597   3.593  -0.566  0.00  0.00    -0.153 OA
BRANCH  24  27
ATOM     27  N   UNL     1       4.327   2.556   1.555  0.00  0.00    -0.204 NA
ATOM     28  H   UNL     1       3.768   2.215   2.271  0.00  0.00    +0.144 HD
ATOM     29  H   UNL     1       5.142   3.039   1.764  0.00  0.00    +0.144 HD
ENDBRANCH  24  27
ENDBRANCH  20  24
ENDBRANCH  17  23
ENDBRANCH  16  17
ENDBRANCH   1  16
TORSDOF 7
