REMARK  Name = ZINC40404812
REMARK  16 active torsions:
REMARK  status: ('A' for Active; 'I' for Inactive)
REMARK    1  A    between atoms: C_1  and  C_2
REMARK    2  A    between atoms: C_2  and  C_3
REMARK    3  A    between atoms: C_3  and  C_4
REMARK    4  A    between atoms: C_4  and  C_6
REMARK    5  A    between atoms: C_4  and  O_34
REMARK    6  A    between atoms: C_6  and  N_7
REMARK    7  A    between atoms: N_7  and  C_8
REMARK    8  A    between atoms: N_7  and  C_15
REMARK    9  A    between atoms: C_8  and  C_9
REMARK   10  A    between atoms: C_15  and  C_16
REMARK   11  A    between atoms: C_22  and  C_33
REMARK   12  A    between atoms: C_23  and  C_27
REMARK   13  A    between atoms: C_27  and  O_29
REMARK   14  A    between atoms: O_29  and  C_30
REMARK   15  A    between atoms: C_30  and  C_31
REMARK   16  A    between atoms: C_30  and  C_32
REMARK                            x       y       z     vdW  Elec       q    Type
REMARK                         _______ _______ _______ _____ _____    ______ ____
ROOT
ATOM      1  C   UNL     1      -0.289  -4.139   4.369  0.00  0.00    +0.094 A 
ATOM      2  N   UNL     1      -0.437  -4.525   5.660  0.00  0.00    -0.312 N 
ATOM      3  H   UNL     1       0.192  -5.158   6.042  0.00  0.00    +0.170 HD
ATOM      4  C   UNL     1      -1.438  -4.048   6.425  0.00  0.00    +0.260 A 
ATOM      5  O   UNL     1      -1.562  -4.400   7.584  0.00  0.00    -0.267 OA
ATOM      6  C   UNL     1      -2.385  -3.083   5.819  0.00  0.00    +0.076 A 
ATOM      7  C   UNL     1      -3.490  -2.452   6.394  0.00  0.00    -0.015 A 
ATOM      8  C   UNL     1      -4.239  -1.586   5.651  0.00  0.00    +0.102 A 
ATOM      9  S   UNL     1      -3.416  -1.609   4.067  0.00  0.00    -0.062 S 
ATOM     10  C   UNL     1      -2.125  -2.761   4.467  0.00  0.00    +0.116 A 
ATOM     11  N   UNL     1      -1.103  -3.287   3.806  0.00  0.00    -0.229 NA
ATOM     12  C   UNL     1      -3.854  -2.726   7.830  0.00  0.00    +0.046 C 
ENDROOT
BRANCH   8  13
ATOM     13  C   UNL     1      -5.425  -0.826   6.053  0.00  0.00    +0.346 C 
ATOM     14  O   UNL     1      -5.858  -0.929   7.185  0.00  0.00    -0.244 OA
BRANCH  13  15
ATOM     15  O   UNL     1      -6.036  -0.011   5.169  0.00  0.00    -0.458 OA
BRANCH  15  16
ATOM     16  C   UNL     1      -7.187   0.700   5.630  0.00  0.00    +0.171 C 
ATOM     17  C   UNL     1      -6.755   2.045   6.216  0.00  0.00    +0.052 C 
ATOM     18  C   UNL     1      -8.142   0.937   4.459  0.00  0.00    +0.052 C 
ENDBRANCH  15  16
ENDBRANCH  13  15
ENDBRANCH   8  13
BRANCH   1  19
ATOM     19  C   UNL     1       0.850  -4.705   3.562  0.00  0.00    -0.003 C 
BRANCH  19  20
ATOM     20  N   UNL     1       0.815  -4.145   2.204  0.00  0.00    +0.389 N 
ATOM     21  H   UNL     1      -0.091  -4.313   1.794  0.00  0.00    -0.081 HD
BRANCH  20  22
ATOM     22  C   UNL     1       1.064  -2.698   2.266  0.00  0.00    -0.046 C 
BRANCH  22  23
ATOM     23  C   UNL     1       0.837  -2.083   0.884  0.00  0.00    +0.098 C 
BRANCH  23  24
ATOM     24  O   UNL     1       1.852  -2.538  -0.013  0.00  0.00    -0.394 OA
ATOM     25  H   UNL     1       2.743  -2.244   0.219  0.00  0.00    +0.210 HD
ENDBRANCH  23  24
BRANCH  23  26
ATOM     26  C   UNL     1       0.896  -0.557   0.989  0.00  0.00    +0.029 C 
BRANCH  26  28
ATOM     27  C   UNL     1       0.606   1.586  -0.262  0.00  0.00    +0.004 C 
ATOM     28  C   UNL     1       0.546   0.061  -0.366  0.00  0.00    -0.001 C 
ENDBRANCH  26  28
ENDBRANCH  23  26
ENDBRANCH  22  23
ENDBRANCH  20  22
BRANCH  20  29
ATOM     29  C   UNL     1       1.851  -4.785   1.383  0.00  0.00    -0.042 C 
BRANCH  29  30
ATOM     30  C   UNL     1       1.566  -6.261   1.276  0.00  0.00    -0.064 A 
ATOM     31  C   UNL     1       2.175  -7.147   2.144  0.00  0.00    +0.002 A 
ATOM     32  C   UNL     1       1.914  -8.501   2.046  0.00  0.00    +0.000 A 
ATOM     33  C   UNL     1       1.043  -8.969   1.079  0.00  0.00    +0.000 A 
ATOM     34  C   UNL     1       0.433  -8.082   0.211  0.00  0.00    +0.000 A 
ATOM     35  C   UNL     1       0.691  -6.728   0.313  0.00  0.00    +0.002 A 
ENDBRANCH  29  30
ENDBRANCH  20  29
ENDBRANCH  19  20
ENDBRANCH   1  19
TORSDOF 12
