REMARK  Name = ZINC18077239
REMARK  8 active torsions:
REMARK  status: ('A' for Active; 'I' for Inactive)
REMARK    1  A    between atoms: C_1  and  C_2
REMARK    2  A    between atoms: C_4  and  C_36
REMARK    3  A    between atoms: N_10  and  C_11
REMARK    4  A    between atoms: C_11  and  C_13
REMARK    5  A    between atoms: C_14  and  C_15
REMARK    6  A    between atoms: N_22  and  C_23
REMARK    7  A    between atoms: C_23  and  C_24
REMARK    8  A    between atoms: C_24  and  C_25
REMARK                            x       y       z     vdW  Elec       q    Type
REMARK                         _______ _______ _______ _____ _____    ______ ____
ROOT
ATOM      1  C   UNL     1      -3.528   5.745   0.316  0.00  0.00    +0.066 C 
ATOM      2  C   UNL     1      -4.791   5.006  -0.045  0.00  0.00    +0.044 A 
ATOM      3  C   UNL     1      -5.945   5.705  -0.364  0.00  0.00    +0.046 A 
ATOM      4  C   UNL     1      -7.085   4.987  -0.691  0.00  0.00    +0.044 A 
ATOM      5  N   UNL     1      -7.037   3.665  -0.688  0.00  0.00    -0.217 NA
ATOM      6  C   UNL     1      -5.918   3.028  -0.379  0.00  0.00    +0.231 A 
ATOM      7  N   UNL     1      -4.813   3.684  -0.057  0.00  0.00    -0.217 NA
ATOM      8  N   UNL     1      -5.904   1.640  -0.387  0.00  0.00    -0.297 N 
ATOM      9  C   UNL     1      -4.756   0.966  -0.070  0.00  0.00    +0.196 C 
ATOM     10  N   UNL     1      -3.660   1.636   0.244  0.00  0.00    -0.143 NA
ATOM     11  N   UNL     1      -4.742  -0.399  -0.078  0.00  0.00    -0.357 N 
ATOM     12  C   UNL     1      -8.363   5.703  -1.044  0.00  0.00    +0.066 C 
ATOM     13  H   UNL     1      -6.707   1.148  -0.617  0.00  0.00    +0.171 HD
ATOM     14  H   UNL     1      -3.909  -0.876   0.062  0.00  0.00    +0.162 HD
ENDROOT
BRANCH  10  15
ATOM     15  C   UNL     1      -2.603   0.991   0.764  0.00  0.00    +0.263 C 
ATOM     16  O   UNL     1      -2.692  -0.191   1.051  0.00  0.00    -0.269 OA
BRANCH  15  17
ATOM     17  C   UNL     1      -1.343   1.708   0.988  0.00  0.00    +0.070 C 
ATOM     18  C   UNL     1      -0.283   1.061   1.510  0.00  0.00    +0.013 C 
BRANCH  18  19
ATOM     19  C   UNL     1       0.984   1.779   1.728  0.00  0.00    -0.025 A 
ATOM     20  C   UNL     1       1.090   3.133   1.395  0.00  0.00    +0.009 A 
ATOM     21  C   UNL     1       2.278   3.800   1.606  0.00  0.00    +0.020 A 
ATOM     22  C   UNL     1       3.367   3.129   2.138  0.00  0.00    +0.041 A 
ATOM     23  C   UNL     1       3.271   1.787   2.466  0.00  0.00    +0.020 A 
ATOM     24  C   UNL     1       2.088   1.108   2.264  0.00  0.00    +0.009 A 
ATOM     25 CL   UNL     1       4.861   3.976   2.394  0.00  0.00    -0.084 Cl
ENDBRANCH  18  19
ENDBRANCH  15  17
ENDBRANCH  10  15
BRANCH  11  26
ATOM     26  C   UNL     1      -5.985  -1.143  -0.296  0.00  0.00    +0.120 C 
BRANCH  26  27
ATOM     27  C   UNL     1      -5.694  -2.644  -0.257  0.00  0.00    +0.058 C 
BRANCH  27  28
ATOM     28  C   UNL     1      -6.972  -3.410  -0.482  0.00  0.00    -0.021 A 
ATOM     29  C   UNL     1      -7.784  -3.904   0.466  0.00  0.00    +0.087 A 
ATOM     30  N   UNL     1      -8.849  -4.537  -0.115  0.00  0.00    -0.360 N 
ATOM     31  H   UNL     1      -9.569  -4.972   0.367  0.00  0.00    +0.165 HD
ATOM     32  C   UNL     1      -8.745  -4.464  -1.487  0.00  0.00    +0.047 A 
ATOM     33  C   UNL     1      -7.568  -3.750  -1.776  0.00  0.00    +0.006 A 
ATOM     34  C   UNL     1      -7.198  -3.523  -3.104  0.00  0.00    +0.048 A 
ATOM     35  C   UNL     1      -7.996  -3.995  -4.124  0.00  0.00    +0.124 A 
ATOM     36  C   UNL     1      -9.162  -4.696  -3.836  0.00  0.00    +0.040 A 
ATOM     37  C   UNL     1      -9.536  -4.930  -2.532  0.00  0.00    +0.029 A 
ATOM     38  F   UNL     1      -7.645  -3.773  -5.409  0.00  0.00    -0.205 F 
ENDBRANCH  27  28
ENDBRANCH  26  27
ENDBRANCH  11  26
TORSDOF 6
