REMARK  Name = ZINC39694425
REMARK  5 active torsions:
REMARK  status: ('A' for Active; 'I' for Inactive)
REMARK    1  A    between atoms: N_4  and  C_6
REMARK    2  A    between atoms: C_6  and  C_7
REMARK    3  A    between atoms: C_7  and  N_8
REMARK    4  A    between atoms: C_9  and  C_11
REMARK    5  A    between atoms: C_22  and  C_24
REMARK                            x       y       z     vdW  Elec       q    Type
REMARK                         _______ _______ _______ _____ _____    ______ ____
ROOT
ATOM      1  C   UNL     1       4.519  -5.208  -2.204  0.00  0.00    +0.100 C 
ATOM      2  C   UNL     1       3.332  -6.194  -2.277  0.00  0.00    +0.121 C 
ATOM      3  N   UNL     1       3.179  -6.490  -3.721  0.00  0.00    -0.296 N 
ATOM      4  C   UNL     1       4.569  -6.587  -4.226  0.00  0.00    +0.115 C 
ATOM      5  C   UNL     1       5.330  -5.471  -3.483  0.00  0.00    -0.004 C 
ATOM      6  C   UNL     1       5.387  -4.211  -4.341  0.00  0.00    -0.010 C 
ATOM      7  C   UNL     1       6.246  -4.480  -5.580  0.00  0.00    -0.082 C 
ATOM      8  N   UNL     1       7.598  -4.874  -5.163  0.00  0.00    +0.379 N 
ATOM      9  C   UNL     1       7.544  -6.137  -4.417  0.00  0.00    -0.082 C 
ATOM     10  C   UNL     1       6.739  -5.937  -3.129  0.00  0.00    -0.010 C 
ATOM     11  C   UNL     1       2.035  -6.638  -4.417  0.00  0.00    +0.248 C 
ATOM     12  O   UNL     1       0.964  -6.432  -3.879  0.00  0.00    -0.270 OA
ATOM     13  H   UNL     1       8.179  -4.992  -5.979  0.00  0.00    -0.086 HD
ATOM     14  H   UNL     1       7.990  -4.154  -4.575  0.00  0.00    -0.086 HD
ENDROOT
BRANCH  11  15
ATOM     15  C   UNL     1       2.081  -7.050  -5.835  0.00  0.00    +0.055 A 
ATOM     16  C   UNL     1       3.058  -7.946  -6.273  0.00  0.00    +0.016 A 
ATOM     17  C   UNL     1       3.096  -8.327  -7.598  0.00  0.00    +0.021 A 
ATOM     18  C   UNL     1       2.168  -7.822  -8.494  0.00  0.00    +0.042 A 
ATOM     19  C   UNL     1       1.197  -6.933  -8.067  0.00  0.00    +0.040 A 
ATOM     20  C   UNL     1       1.144  -6.549  -6.742  0.00  0.00    +0.054 A 
ATOM     21 CL   UNL     1      -0.080  -5.440  -6.206  0.00  0.00    -0.083 Cl
ATOM     22 CL   UNL     1       2.224  -8.306 -10.160  0.00  0.00    -0.083 Cl
ENDBRANCH  11  15
BRANCH   1  24
ATOM     23  N   UNL     1       4.722  -2.834  -1.537  0.00  0.00    -0.313 N 
ATOM     24  C   UNL     1       4.019  -3.786  -2.182  0.00  0.00    +0.218 C 
ATOM     25  O   UNL     1       2.984  -3.499  -2.745  0.00  0.00    -0.275 OA
ATOM     26  H   UNL     1       5.549  -3.064  -1.087  0.00  0.00    +0.149 HD
BRANCH  23  27
ATOM     27  C   UNL     1       4.236  -1.452  -1.516  0.00  0.00    +0.127 C 
BRANCH  27  28
ATOM     28  C   UNL     1       5.211  -0.581  -0.724  0.00  0.00    +0.162 C 
BRANCH  28  32
ATOM     29  C   UNL     1       4.061   2.761  -0.007  0.00  0.00    +0.041 A 
ATOM     30  C   UNL     1       4.011   2.755  -1.405  0.00  0.00    +0.134 A 
ATOM     31  N   UNL     1       4.409   1.581  -1.823  0.00  0.00    -0.180 NA
ATOM     32  N   UNL     1       4.725   0.801  -0.703  0.00  0.00    -0.270 N 
ATOM     33  C   UNL     1       4.503   1.548   0.399  0.00  0.00    +0.108 A 
ENDBRANCH  28  32
ENDBRANCH  27  28
ENDBRANCH  23  27
ENDBRANCH   1  24
TORSDOF 5
