REMARK  Name = ZINC53362889
REMARK  7 active torsions:
REMARK  status: ('A' for Active; 'I' for Inactive)
REMARK    1  A    between atoms: C_1  and  C_2
REMARK    2  A    between atoms: C_5  and  C_8
REMARK    3  A    between atoms: C_11  and  C_24
REMARK    4  A    between atoms: C_14  and  C_16
REMARK    5  A    between atoms: C_19  and  O_22
REMARK    6  A    between atoms: O_22  and  C_23
REMARK    7  A    between atoms: C_29  and  O_30
REMARK                            x       y       z     vdW  Elec       q    Type
REMARK                         _______ _______ _______ _____ _____    ______ ____
ROOT
ATOM      1  C   UNL     1       0.059  -4.275  -0.021  0.00  0.00    +0.204 C 
ATOM      2  N   UNL     1       0.753  -4.757   1.179  0.00  0.00    -0.284 NA
ATOM      3  C   UNL     1       0.963  -6.212   1.096  0.00  0.00    +0.095 C 
ATOM      4  C   UNL     1       1.965  -6.487  -0.029  0.00  0.00    +0.079 C 
ATOM      5  C   UNL     1       1.569  -5.711  -1.254  0.00  0.00    +0.047 C 
ATOM      6  N   UNL     1       0.735  -4.740  -1.226  0.00  0.00    -0.264 NA
ATOM      7  H   UNL     1       1.628  -4.272   1.310  0.00  0.00    +0.125 HD
ENDROOT
BRANCH   1  12
ATOM      8  C   UNL     1      -0.018   1.503   0.010  0.00  0.00    +0.044 C 
ATOM      9  C   UNL     1       0.002  -0.004   0.002  0.00  0.00    -0.050 A 
ATOM     10  C   UNL     1       0.006  -0.689  -1.199  0.00  0.00    +0.004 A 
ATOM     11  C   UNL     1       0.025  -2.071  -1.206  0.00  0.00    +0.007 A 
ATOM     12  C   UNL     1       0.040  -2.768  -0.013  0.00  0.00    -0.009 A 
ATOM     13  C   UNL     1       0.037  -2.084   1.188  0.00  0.00    +0.007 A 
ATOM     14  C   UNL     1       0.023  -0.702   1.195  0.00  0.00    +0.004 A 
ENDBRANCH   1  12
BRANCH   5  15
ATOM     15  C   UNL     1       2.171  -6.083  -2.547  0.00  0.00    -0.004 A 
ATOM     16  C   UNL     1       3.083  -7.140  -2.617  0.00  0.00    +0.013 A 
ATOM     17  C   UNL     1       3.643  -7.485  -3.827  0.00  0.00    +0.046 A 
ATOM     18  C   UNL     1       3.303  -6.784  -4.978  0.00  0.00    +0.120 A 
ATOM     19  C   UNL     1       2.397  -5.732  -4.913  0.00  0.00    +0.046 A 
ATOM     20  C   UNL     1       1.828  -5.384  -3.708  0.00  0.00    +0.013 A 
BRANCH  18  21
ATOM     21  O   UNL     1       3.857  -7.127  -6.168  0.00  0.00    -0.495 OA
ATOM     22  C   UNL     1       3.464  -6.364  -7.311  0.00  0.00    +0.277 C 
ENDBRANCH  18  21
ENDBRANCH   5  15
BRANCH   3  23
ATOM     23  C   UNL     1       1.513  -6.722   2.404  0.00  0.00    +0.011 A 
ATOM     24  C   UNL     1       2.118  -5.848   3.287  0.00  0.00    +0.009 A 
ATOM     25  C   UNL     1       2.622  -6.315   4.486  0.00  0.00    +0.001 A 
ATOM     26  C   UNL     1       2.523  -7.657   4.805  0.00  0.00    +0.004 A 
ATOM     27  C   UNL     1       1.919  -8.535   3.925  0.00  0.00    +0.046 A 
ATOM     28  C   UNL     1       1.407  -8.067   2.724  0.00  0.00    +0.122 A 
BRANCH  28  29
ATOM     29  O   UNL     1       0.807  -8.928   1.859  0.00  0.00    -0.506 OA
ATOM     30  H   UNL     1       1.413  -9.330   1.221  0.00  0.00    +0.292 HD
ENDBRANCH  28  29
ENDBRANCH   3  23
TORSDOF 5
