REMARK  Name = ZINC39695392
REMARK  8 active torsions:
REMARK  status: ('A' for Active; 'I' for Inactive)
REMARK    1  A    between atoms: C_1  and  C_2
REMARK    2  A    between atoms: C_2  and  C_3
REMARK    3  A    between atoms: C_3  and  C_5
REMARK    4  A    between atoms: C_3  and  N_11
REMARK    5  A    between atoms: C_12  and  C_14
REMARK    6  A    between atoms: C_25  and  C_27
REMARK    7  A    between atoms: C_28  and  C_38
REMARK    8  A    between atoms: C_31  and  C_32
REMARK                            x       y       z     vdW  Elec       q    Type
REMARK                         _______ _______ _______ _____ _____    ______ ____
ROOT
ATOM      1  C   UNL     1      -3.446   1.411   2.700  0.00  0.00    +0.100 C 
ATOM      2  C   UNL     1      -4.449   0.297   3.075  0.00  0.00    +0.121 C 
ATOM      3  N   UNL     1      -5.615   1.017   3.638  0.00  0.00    -0.296 N 
ATOM      4  C   UNL     1      -5.757   2.218   2.779  0.00  0.00    +0.115 C 
ATOM      5  C   UNL     1      -4.308   2.670   2.506  0.00  0.00    -0.004 C 
ATOM      6  C   UNL     1      -4.178   3.185   1.076  0.00  0.00    -0.010 C 
ATOM      7  C   UNL     1      -4.998   4.469   0.924  0.00  0.00    -0.082 C 
ATOM      8  N   UNL     1      -4.513   5.477   1.874  0.00  0.00    +0.379 N 
ATOM      9  C   UNL     1      -4.727   5.012   3.250  0.00  0.00    -0.082 C 
ATOM     10  C   UNL     1      -3.896   3.751   3.500  0.00  0.00    -0.010 C 
ATOM     11  C   UNL     1      -6.376   0.661   4.692  0.00  0.00    +0.252 C 
ATOM     12  O   UNL     1      -7.307   1.363   5.035  0.00  0.00    -0.270 OA
ATOM     13  H   UNL     1      -3.527   5.633   1.723  0.00  0.00    -0.086 HD
ATOM     14  H   UNL     1      -5.013   6.341   1.730  0.00  0.00    -0.086 HD
ENDROOT
BRANCH  11  15
ATOM     15  C   UNL     1      -6.078  -0.579   5.429  0.00  0.00    +0.106 A 
ATOM     16  C   UNL     1      -5.253  -0.706   6.508  0.00  0.00    +0.147 A 
ATOM     17  O   UNL     1      -5.251  -1.987   6.885  0.00  0.00    -0.359 OA
ATOM     18  N   UNL     1      -6.099  -2.731   6.032  0.00  0.00    -0.077 NA
ATOM     19  C   UNL     1      -6.619  -1.918   5.148  0.00  0.00    +0.126 A 
ATOM     20  C   UNL     1      -4.477   0.408   7.162  0.00  0.00    +0.090 C 
BRANCH  19  21
ATOM     21  C   UNL     1      -7.568  -2.278   4.067  0.00  0.00    +0.004 A 
ATOM     22  C   UNL     1      -8.560  -1.379   3.679  0.00  0.00    +0.010 A 
ATOM     23  C   UNL     1      -9.441  -1.720   2.673  0.00  0.00    +0.001 A 
ATOM     24  C   UNL     1      -9.340  -2.950   2.049  0.00  0.00    +0.000 A 
ATOM     25  C   UNL     1      -8.358  -3.846   2.430  0.00  0.00    +0.001 A 
ATOM     26  C   UNL     1      -7.468  -3.514   3.431  0.00  0.00    +0.010 A 
ENDBRANCH  19  21
ENDBRANCH  11  15
BRANCH   1  28
ATOM     27  N   UNL     1      -1.511   1.581   1.168  0.00  0.00    -0.308 N 
ATOM     28  C   UNL     1      -2.730   1.064   1.420  0.00  0.00    +0.219 C 
ATOM     29  O   UNL     1      -3.250   0.319   0.617  0.00  0.00    -0.275 OA
ATOM     30  H   UNL     1      -1.130   2.240   1.769  0.00  0.00    +0.149 HD
BRANCH  27  31
ATOM     31  C   UNL     1      -0.761   1.148  -0.013  0.00  0.00    +0.103 C 
BRANCH  31  32
ATOM     32  C   UNL     1       0.673   0.887   0.369  0.00  0.00    -0.027 A 
ATOM     33  C   UNL     1       1.315   1.728   1.259  0.00  0.00    +0.005 A 
ATOM     34  C   UNL     1       2.630   1.489   1.610  0.00  0.00    +0.000 A 
ATOM     35  C   UNL     1       3.304   0.408   1.072  0.00  0.00    +0.000 A 
ATOM     36  C   UNL     1       2.661  -0.434   0.183  0.00  0.00    +0.000 A 
ATOM     37  C   UNL     1       1.345  -0.197  -0.165  0.00  0.00    +0.005 A 
ENDBRANCH  31  32
BRANCH  31  39
ATOM     38  C   UNL     1      -2.252   2.405  -1.575  0.00  0.00    +0.006 C 
ATOM     39  C   UNL     1      -0.813   2.243  -1.080  0.00  0.00    +0.024 C 
ENDBRANCH  31  39
ENDBRANCH  27  31
ENDBRANCH   1  28
TORSDOF 6
