REMARK  Name = ZINC64981395
REMARK  11 active torsions:
REMARK  status: ('A' for Active; 'I' for Inactive)
REMARK    1  A    between atoms: C_1  and  C_2
REMARK    2  A    between atoms: C_2  and  C_3
REMARK    3  A    between atoms: C_3  and  C_4
REMARK    4  A    between atoms: C_4  and  N_5
REMARK    5  A    between atoms: N_18  and  N_19
REMARK    6  A    between atoms: C_20  and  C_21
REMARK    7  A    between atoms: C_24  and  O_29
REMARK    8  A    between atoms: C_25  and  O_27
REMARK    9  A    between atoms: O_27  and  C_28
REMARK   10  A    between atoms: O_29  and  C_30
REMARK   11  A    between atoms: C_30  and  C_31
REMARK                            x       y       z     vdW  Elec       q    Type
REMARK                         _______ _______ _______ _____ _____    ______ ____
ROOT
ATOM      1  N   UNL     1       1.425  -2.500  -2.470  0.00  0.00    -0.323 N 
ATOM      2  C   UNL     1       0.805  -2.760  -3.682  0.00  0.00    +0.053 A 
ATOM      3  C   UNL     1      -0.520  -2.665  -4.095  0.00  0.00    +0.026 A 
ATOM      4  C   UNL     1      -0.865  -2.994  -5.389  0.00  0.00    +0.002 A 
ATOM      5  C   UNL     1       0.099  -3.421  -6.289  0.00  0.00    +0.001 A 
ATOM      6  C   UNL     1       1.417  -3.522  -5.899  0.00  0.00    +0.012 A 
ATOM      7  C   UNL     1       1.780  -3.192  -4.595  0.00  0.00    +0.029 A 
ATOM      8  C   UNL     1       3.061  -3.186  -3.868  0.00  0.00    +0.138 A 
ATOM      9  C   UNL     1       2.773  -2.742  -2.561  0.00  0.00    +0.166 A 
ATOM     10  N   UNL     1       3.776  -2.640  -1.694  0.00  0.00    -0.192 NA
ATOM     11  C   UNL     1       5.005  -2.953  -2.084  0.00  0.00    +0.256 A 
ATOM     12  N   UNL     1       5.252  -3.366  -3.323  0.00  0.00    -0.111 NA
ATOM     13  N   UNL     1       4.309  -3.488  -4.194  0.00  0.00    -0.142 NA
ATOM     14  N   UNL     1       6.050  -2.848  -1.183  0.00  0.00    -0.204 N 
ATOM     15  H   UNL     1       5.881  -2.547  -0.276  0.00  0.00    +0.177 HD
ENDROOT
BRANCH  14  16
ATOM     16  N   UNL     1       7.353  -3.175  -1.580  0.00  0.00    -0.187 NA
ATOM     17  C   UNL     1       8.334  -3.076  -0.735  0.00  0.00    +0.138 C 
BRANCH  17  18
ATOM     18  C   UNL     1       9.705  -3.420  -1.153  0.00  0.00    -0.002 A 
ATOM     19  C   UNL     1       9.952  -3.848  -2.460  0.00  0.00    +0.013 A 
ATOM     20  C   UNL     1      11.236  -4.169  -2.849  0.00  0.00    +0.050 A 
ATOM     21  C   UNL     1      12.283  -4.069  -1.946  0.00  0.00    +0.162 A 
ATOM     22  C   UNL     1      12.044  -3.644  -0.641  0.00  0.00    +0.162 A 
ATOM     23  C   UNL     1      10.761  -3.314  -0.245  0.00  0.00    +0.059 A 
BRANCH  22  24
ATOM     24  O   UNL     1      13.074  -3.548   0.242  0.00  0.00    -0.491 OA
ATOM     25  C   UNL     1      12.757  -3.105   1.563  0.00  0.00    +0.277 C 
ENDBRANCH  22  24
BRANCH  21  26
ATOM     26  O   UNL     1      13.547  -4.388  -2.335  0.00  0.00    -0.484 OA
BRANCH  26  27
ATOM     27  C   UNL     1      13.720  -4.817  -3.687  0.00  0.00    +0.266 C 
BRANCH  27  28
ATOM     28  C   UNL     1      15.175  -5.124  -3.933  0.00  0.00    +0.008 A 
ATOM     29  C   UNL     1      16.096  -4.975  -2.912  0.00  0.00    +0.008 A 
ATOM     30  C   UNL     1      17.430  -5.256  -3.138  0.00  0.00    +0.000 A 
ATOM     31  C   UNL     1      17.845  -5.687  -4.385  0.00  0.00    +0.001 A 
ATOM     32  C   UNL     1      16.926  -5.836  -5.406  0.00  0.00    +0.020 A 
ATOM     33  C   UNL     1      15.589  -5.560  -5.179  0.00  0.00    +0.047 A 
ATOM     34 CL   UNL     1      14.433  -5.753  -6.459  0.00  0.00    -0.083 Cl
ENDBRANCH  27  28
ENDBRANCH  26  27
ENDBRANCH  21  26
ENDBRANCH  17  18
ENDBRANCH  14  16
BRANCH   1  35
ATOM     35  C   UNL     1       0.739  -2.027  -1.265  0.00  0.00    +0.124 C 
BRANCH  35  36
ATOM     36  C   UNL     1       0.718  -0.497  -1.257  0.00  0.00    +0.021 C 
BRANCH  36  38
ATOM     37  C   UNL     1      -0.019   1.526   0.010  0.00  0.00    +0.004 C 
ATOM     38  C   UNL     1       0.002  -0.004   0.002  0.00  0.00    -0.002 C 
ENDBRANCH  36  38
ENDBRANCH  35  36
ENDBRANCH   1  35
TORSDOF 9
