REMARK  Name = ZINC35592891
REMARK  9 active torsions:
REMARK  status: ('A' for Active; 'I' for Inactive)
REMARK    1  A    between atoms: C_1  and  C_2
REMARK    2  A    between atoms: C_7  and  C_12
REMARK    3  A    between atoms: C_14  and  C_17
REMARK    4  A    between atoms: C_17  and  C_18
REMARK    5  A    between atoms: N_20  and  C_21
REMARK    6  A    between atoms: C_21  and  C_22
REMARK    7  A    between atoms: C_22  and  C_23
REMARK    8  A    between atoms: C_26  and  S_29
REMARK    9  A    between atoms: S_29  and  N_32
REMARK                            x       y       z     vdW  Elec       q    Type
REMARK                         _______ _______ _______ _____ _____    ______ ____
ROOT
ATOM      1  C   UNL     1      -4.545  -8.373   4.643  0.00  0.00    +0.219 C 
ATOM      2  O   UNL     1      -5.302  -7.425   4.624  0.00  0.00    -0.275 OA
ATOM      3  N   UNL     1      -4.830  -9.447   5.405  0.00  0.00    -0.315 N 
ATOM      4  H   UNL     1      -4.225 -10.205   5.421  0.00  0.00    +0.149 HD
ENDROOT
BRANCH   1   5
ATOM      5  C   UNL     1      -3.287  -8.349   3.814  0.00  0.00    +0.154 C 
BRANCH   5   8
ATOM      6  C   UNL     1      -2.443  -5.094   2.284  0.00  0.00    +0.167 A 
ATOM      7  C   UNL     1      -2.136  -6.142   3.097  0.00  0.00    +0.076 A 
ATOM      8  C   UNL     1      -3.206  -7.046   3.061  0.00  0.00    +0.093 A 
ATOM      9  N   UNL     1      -4.120  -6.567   2.263  0.00  0.00    -0.082 NA
ATOM     10  O   UNL     1      -3.661  -5.325   1.761  0.00  0.00    -0.354 OA
BRANCH   6  16
ATOM     11  C   UNL     1      -0.019   1.526   0.010  0.00  0.00    +0.052 C 
ATOM     12  C   UNL     1       0.002  -0.004   0.002  0.00  0.00    +0.175 C 
ATOM     13  C   UNL     1      -1.435  -0.572   0.076  0.00  0.00    +0.083 C 
ATOM     14  C   UNL     1      -1.241  -1.803   0.940  0.00  0.00    -0.002 A 
ATOM     15  C   UNL     1      -2.037  -2.900   1.172  0.00  0.00    +0.019 A 
ATOM     16  C   UNL     1      -1.595  -3.911   2.028  0.00  0.00    +0.020 A 
ATOM     17  C   UNL     1      -0.345  -3.795   2.641  0.00  0.00    +0.015 A 
ATOM     18  C   UNL     1       0.442  -2.692   2.404  0.00  0.00    +0.046 A 
ATOM     19  C   UNL     1       0.001  -1.679   1.553  0.00  0.00    +0.124 A 
ATOM     20  O   UNL     1       0.612  -0.512   1.201  0.00  0.00    -0.488 OA
ENDBRANCH   6  16
ENDBRANCH   5   8
ENDBRANCH   1   5
BRANCH   3  21
ATOM     21  C   UNL     1      -6.053  -9.470   6.211  0.00  0.00    +0.109 C 
BRANCH  21  22
ATOM     22  C   UNL     1      -6.135 -10.793   6.976  0.00  0.00    +0.054 C 
BRANCH  22  23
ATOM     23  C   UNL     1      -7.393 -10.816   7.805  0.00  0.00    -0.046 A 
ATOM     24  C   UNL     1      -7.378 -10.330   9.099  0.00  0.00    +0.005 A 
ATOM     25  C   UNL     1      -8.532 -10.351   9.859  0.00  0.00    +0.029 A 
ATOM     26  C   UNL     1      -9.702 -10.860   9.326  0.00  0.00    +0.105 A 
ATOM     27  C   UNL     1      -9.717 -11.346   8.031  0.00  0.00    +0.029 A 
ATOM     28  C   UNL     1      -8.564 -11.320   7.270  0.00  0.00    +0.005 A 
BRANCH  26  29
ATOM     29  S   UNL     1     -11.173 -10.888  10.295  0.00  0.00    +0.056 S 
ATOM     30  O   UNL     1     -11.996 -11.913   9.755  0.00  0.00    -0.153 OA
ATOM     31  O   UNL     1     -10.763 -10.879  11.656  0.00  0.00    -0.153 OA
BRANCH  29  32
ATOM     32  N   UNL     1     -11.963  -9.457  10.029  0.00  0.00    -0.204 NA
ATOM     33  H   UNL     1     -11.584  -8.799   9.426  0.00  0.00    +0.144 HD
ATOM     34  H   UNL     1     -12.804  -9.277  10.477  0.00  0.00    +0.144 HD
ENDBRANCH  29  32
ENDBRANCH  26  29
ENDBRANCH  22  23
ENDBRANCH  21  22
ENDBRANCH   3  21
TORSDOF 8
