REMARK  Name = ZINC06527515
REMARK  9 active torsions:
REMARK  status: ('A' for Active; 'I' for Inactive)
REMARK    1  A    between atoms: C_1  and  C_2
REMARK    2  A    between atoms: C_3  and  C_8
REMARK    3  A    between atoms: N_6  and  C_7
REMARK    4  A    between atoms: N_9  and  N_10
REMARK    5  A    between atoms: C_11  and  C_13
REMARK    6  A    between atoms: C_13  and  C_31
REMARK    7  A    between atoms: C_16  and  C_21
REMARK    8  A    between atoms: C_18  and  C_19
REMARK    9  A    between atoms: C_18  and  C_20
REMARK                            x       y       z     vdW  Elec       q    Type
REMARK                         _______ _______ _______ _____ _____    ______ ____
ROOT
ATOM      1  C   UNL     1      -1.281   3.037  -0.757  0.00  0.00    +0.052 C 
ATOM      2  C   UNL     1      -0.871   1.637  -1.259  0.00  0.00    +0.017 C 
ATOM      3  C   UNL     1      -0.021   1.052  -0.104  0.00  0.00    +0.013 C 
ATOM      4  C   UNL     1      -0.757   1.564   1.160  0.00  0.00    +0.062 C 
ATOM      5  C   UNL     1      -1.212   2.990   0.779  0.00  0.00    -0.012 C 
ATOM      6  C   UNL     1      -0.194   4.013   1.289  0.00  0.00    +0.012 C 
ATOM      7  C   UNL     1      -2.590   3.280   1.375  0.00  0.00    +0.012 C 
ATOM      8  C   UNL     1      -2.708   3.358  -1.208  0.00  0.00    +0.021 C 
ENDROOT
BRANCH   4   9
ATOM      9  C   UNL     1       0.182   1.601   2.338  0.00  0.00    +0.112 A 
ATOM     10  N   UNL     1       1.511   1.881   2.266  0.00  0.00    -0.342 N 
ATOM     11  H   UNL     1       2.029   2.093   1.437  0.00  0.00    +0.167 HD
ATOM     12  C   UNL     1       2.014   1.817   3.551  0.00  0.00    +0.066 A 
ATOM     13  C   UNL     1       3.273   2.001   4.106  0.00  0.00    +0.028 A 
ATOM     14  C   UNL     1       3.446   1.860   5.467  0.00  0.00    +0.002 A 
ATOM     15  C   UNL     1       2.371   1.536   6.283  0.00  0.00    +0.002 A 
ATOM     16  C   UNL     1       1.125   1.351   5.753  0.00  0.00    +0.030 A 
ATOM     17  C   UNL     1       0.926   1.489   4.377  0.00  0.00    +0.089 A 
ATOM     18  N   UNL     1      -0.162   1.377   3.573  0.00  0.00    -0.232 NA
ENDBRANCH   4   9
BRANCH   1  20
ATOM     19  N   UNL     1      -0.581   5.385  -1.096  0.00  0.00    -0.207 N 
ATOM     20  C   UNL     1      -0.327   4.075  -1.287  0.00  0.00    +0.239 C 
ATOM     21  O   UNL     1       0.671   3.733  -1.886  0.00  0.00    -0.273 OA
ATOM     22  H   UNL     1      -1.379   5.659  -0.617  0.00  0.00    +0.177 HD
BRANCH  19  24
ATOM     23  C   UNL     1       0.061   7.611  -1.404  0.00  0.00    +0.141 C 
ATOM     24  N   UNL     1       0.306   6.350  -1.588  0.00  0.00    -0.188 NA
BRANCH  23  27
ATOM     25  C   UNL     1       2.724   7.037  -2.977  0.00  0.00    +0.066 C 
ATOM     26  C   UNL     1       2.164   8.388  -2.613  0.00  0.00    +0.044 A 
ATOM     27  C   UNL     1       0.996   8.628  -1.923  0.00  0.00    +0.035 A 
ATOM     28  C   UNL     1       0.862  10.028  -1.800  0.00  0.00    +0.144 A 
ATOM     29  N   UNL     1       1.887  10.586  -2.386  0.00  0.00    -0.179 NA
ATOM     30  N   UNL     1       2.713   9.583  -2.905  0.00  0.00    -0.271 N 
ATOM     31  C   UNL     1       3.964   9.797  -3.637  0.00  0.00    +0.172 C 
ENDBRANCH  23  27
ENDBRANCH  19  24
ENDBRANCH   1  20
TORSDOF 4
