REMARK  Name = ZINC38686459
REMARK  11 active torsions:
REMARK  status: ('A' for Active; 'I' for Inactive)
REMARK    1  A    between atoms: C_1  and  O_2
REMARK    2  A    between atoms: O_2  and  C_3
REMARK    3  A    between atoms: C_7  and  C_9
REMARK    4  A    between atoms: C_9  and  O_11
REMARK    5  A    between atoms: O_11  and  C_12
REMARK    6  A    between atoms: C_19  and  N_40
REMARK    7  A    between atoms: C_20  and  C_38
REMARK    8  A    between atoms: C_21  and  C_23
REMARK    9  A    between atoms: C_26  and  O_29
REMARK   10  A    between atoms: O_29  and  C_30
REMARK   11  A    between atoms: C_30  and  C_31
REMARK                            x       y       z     vdW  Elec       q    Type
REMARK                         _______ _______ _______ _____ _____    ______ ____
ROOT
ATOM      1  C   UNL     1      -3.864  -6.118  -0.010  0.00  0.00    +0.135 A 
ATOM      2  C   UNL     1      -2.725  -6.911   0.023  0.00  0.00    +0.047 A 
ATOM      3  C   UNL     1      -2.840  -8.287  -0.012  0.00  0.00    +0.012 A 
ATOM      4  C   UNL     1      -4.088  -8.880  -0.081  0.00  0.00    +0.008 A 
ATOM      5  C   UNL     1      -5.229  -8.093  -0.114  0.00  0.00    +0.138 A 
ATOM      6  C   UNL     1      -5.115  -6.710  -0.073  0.00  0.00    +0.093 A 
ATOM      7  O   UNL     1      -6.460  -8.656  -0.182  0.00  0.00    -0.441 OA
ATOM      8  C   UNL     1      -6.629  -9.943   0.164  0.00  0.00    +0.199 C 
ATOM      9  C   UNL     1      -5.593 -10.814   0.214  0.00  0.00    +0.098 C 
ATOM     10  C   UNL     1      -4.193 -10.382  -0.119  0.00  0.00    +0.098 C 
ENDROOT
BRANCH  10  11
ATOM     11  C   UNL     1      -3.834 -10.872  -1.499  0.00  0.00    -0.034 A 
ATOM     12  C   UNL     1      -4.567 -10.451  -2.593  0.00  0.00    +0.008 A 
ATOM     13  C   UNL     1      -4.240 -10.899  -3.858  0.00  0.00    +0.046 A 
ATOM     14  C   UNL     1      -3.176 -11.772  -4.030  0.00  0.00    +0.121 A 
ATOM     15  C   UNL     1      -2.442 -12.193  -2.931  0.00  0.00    +0.046 A 
ATOM     16  C   UNL     1      -2.770 -11.738  -1.668  0.00  0.00    +0.008 A 
BRANCH  14  17
ATOM     17  O   UNL     1      -2.853 -12.215  -5.274  0.00  0.00    -0.487 OA
BRANCH  17  18
ATOM     18  C   UNL     1      -1.746 -13.112  -5.376  0.00  0.00    +0.264 C 
BRANCH  18  19
ATOM     19  C   UNL     1      -1.539 -13.492  -6.819  0.00  0.00    -0.010 A 
ATOM     20  C   UNL     1      -2.189 -14.594  -7.344  0.00  0.00    +0.010 A 
ATOM     21  C   UNL     1      -2.000 -14.943  -8.667  0.00  0.00    +0.039 A 
ATOM     22  C   UNL     1      -1.159 -14.190  -9.469  0.00  0.00    +0.123 A 
ATOM     23  C   UNL     1      -0.508 -13.087  -8.942  0.00  0.00    +0.039 A 
ATOM     24  C   UNL     1      -0.703 -12.736  -7.620  0.00  0.00    +0.010 A 
ATOM     25  F   UNL     1      -0.974 -14.531 -10.762  0.00  0.00    -0.205 F 
ENDBRANCH  18  19
ENDBRANCH  17  18
ENDBRANCH  14  17
ENDBRANCH  10  11
BRANCH   8  26
ATOM     26  N   UNL     1      -7.889 -10.389   0.478  0.00  0.00    -0.328 N 
ATOM     27  H   UNL     1      -8.641  -9.777   0.447  0.00  0.00    +0.145 HD
ATOM     28  H   UNL     1      -8.027 -11.315   0.730  0.00  0.00    +0.145 HD
ENDBRANCH   8  26
BRANCH   9  29
ATOM     29  C   UNL     1      -5.837 -12.174   0.591  0.00  0.00    +0.101 C 
ATOM     30  N   UNL     1      -6.030 -13.252   0.891  0.00  0.00    -0.191 NA
ENDBRANCH   9  29
BRANCH   1  31
ATOM     31  O   UNL     1      -3.752  -4.764   0.025  0.00  0.00    -0.422 OA
BRANCH  31  32
ATOM     32  C   UNL     1      -3.385  -4.131  -1.107  0.00  0.00    +0.345 C 
ATOM     33  O   UNL     1      -3.080  -4.774  -2.091  0.00  0.00    -0.245 OA
BRANCH  32  38
ATOM     34  C   UNL     1      -2.950  -0.612  -2.354  0.00  0.00    +0.121 A 
ATOM     35  C   UNL     1      -3.301   0.117  -1.225  0.00  0.00    +0.045 A 
ATOM     36  C   UNL     1      -3.677  -0.534  -0.065  0.00  0.00    +0.004 A 
ATOM     37  C   UNL     1      -3.706  -1.913  -0.020  0.00  0.00    +0.015 A 
ATOM     38  C   UNL     1      -3.355  -2.655  -1.150  0.00  0.00    +0.063 A 
ATOM     39  C   UNL     1      -2.981  -1.996  -2.322  0.00  0.00    +0.060 A 
BRANCH  34  41
ATOM     40  C   UNL     1      -2.572   1.462  -3.453  0.00  0.00    +0.277 C 
ATOM     41  O   UNL     1      -2.581   0.034  -3.491  0.00  0.00    -0.495 OA
ENDBRANCH  34  41
ENDBRANCH  32  38
ENDBRANCH  31  32
ENDBRANCH   1  31
TORSDOF 10
