REMARK  Name = ZINC62621124
REMARK  13 active torsions:
REMARK  status: ('A' for Active; 'I' for Inactive)
REMARK    1  A    between atoms: C_1  and  C_2
REMARK    2  A    between atoms: C_2  and  C_3
REMARK    3  A    between atoms: C_2  and  C_4
REMARK    4  A    between atoms: C_2  and  O_5
REMARK    5  A    between atoms: O_5  and  C_6
REMARK    6  A    between atoms: C_12  and  C_14
REMARK    7  A    between atoms: C_14  and  O_15
REMARK    8  A    between atoms: O_15  and  C_16
REMARK    9  A    between atoms: C_16  and  C_18
REMARK   10  A    between atoms: C_22  and  N_24
REMARK   11  A    between atoms: N_24  and  S_25
REMARK   12  A    between atoms: S_25  and  C_28
REMARK   13  A    between atoms: N_30  and  C_33
REMARK                            x       y       z     vdW  Elec       q    Type
REMARK                         _______ _______ _______ _____ _____    ______ ____
ROOT
ATOM      1  C   UNL     1       4.566   3.001   0.951  0.00  0.00    +0.061 A 
ATOM      2  C   UNL     1       4.459   1.919   1.826  0.00  0.00    +0.015 A 
ATOM      3  C   UNL     1       4.540   2.122   3.188  0.00  0.00    +0.003 A 
ATOM      4  C   UNL     1       4.726   3.396   3.692  0.00  0.00    +0.027 A 
ATOM      5  C   UNL     1       4.833   4.481   2.829  0.00  0.00    +0.075 A 
ATOM      6  C   UNL     1       4.759   4.286   1.458  0.00  0.00    +0.041 A 
ENDROOT
BRANCH   1   7
ATOM      7  C   UNL     1       4.480   2.786  -0.508  0.00  0.00    +0.339 C 
ATOM      8  O   UNL     1       4.578   3.729  -1.268  0.00  0.00    -0.245 OA
BRANCH   7   9
ATOM      9  O   UNL     1       4.293   1.544  -0.996  0.00  0.00    -0.459 OA
BRANCH   9  10
ATOM     10  C   UNL     1       4.220   1.410  -2.417  0.00  0.00    +0.255 C 
BRANCH  10  17
ATOM     11  C   UNL     1       1.964  -0.091  -1.320  0.00  0.00    +0.404 C 
ATOM     12  O   UNL     1       2.510   0.599  -0.482  0.00  0.00    -0.226 OA
ATOM     13  N   UNL     1       2.644  -0.488  -2.413  0.00  0.00    -0.261 N 
ATOM     14  C   UNL     1       2.148  -1.414  -3.442  0.00  0.00    +0.111 C 
ATOM     15  C   UNL     1       3.255  -1.550  -4.509  0.00  0.00    +0.021 C 
ATOM     16  C   UNL     1       4.088  -0.256  -4.312  0.00  0.00    +0.027 C 
ATOM     17  C   UNL     1       4.007  -0.061  -2.780  0.00  0.00    +0.117 C 
BRANCH  11  18
ATOM     18  O   UNL     1       0.679  -0.457  -1.157  0.00  0.00    -0.445 OA
BRANCH  18  20
ATOM     19  C   UNL     1       0.016   1.530   0.049  0.00  0.00    +0.055 C 
ATOM     20  C   UNL     1       0.019  -0.000   0.025  0.00  0.00    +0.107 C 
ATOM     21  C   UNL     1       0.757  -0.528   1.258  0.00  0.00    +0.055 C 
ATOM     22  C   UNL     1      -1.423  -0.513   0.035  0.00  0.00    +0.055 C 
ENDBRANCH  18  20
ENDBRANCH  11  18
ENDBRANCH  10  17
ENDBRANCH   9  10
ENDBRANCH   7   9
ENDBRANCH   1   7
BRANCH   5  23
ATOM     23  N   UNL     1       5.020   5.766   3.344  0.00  0.00    -0.096 NA
BRANCH  23  24
ATOM     24  S   UNL     1       5.115   5.998   4.981  0.00  0.00    +0.110 S 
ATOM     25  O   UNL     1       3.837   5.675   5.511  0.00  0.00    -0.147 OA
ATOM     26  O   UNL     1       6.305   5.353   5.414  0.00  0.00    -0.147 OA
BRANCH  24  27
ATOM     27  C   UNL     1       5.351   7.723   5.250  0.00  0.00    +0.214 A 
ATOM     28  C   UNL     1       6.425   8.445   4.872  0.00  0.00    +0.154 A 
ATOM     29  N   UNL     1       6.198   9.733   5.275  0.00  0.00    -0.324 N 
ATOM     30  C   UNL     1       4.992   9.754   5.885  0.00  0.00    +0.176 A 
ATOM     31  N   UNL     1       4.489   8.550   5.862  0.00  0.00    -0.329 N 
ATOM     32  C   UNL     1       7.094  10.875   5.081  0.00  0.00    +0.151 C 
ATOM     33 CL   UNL     1       7.827   7.854   4.037  0.00  0.00    -0.060 Cl
ATOM     34  H   UNL     1       3.630   8.293   6.231  0.00  0.00    +0.168 HD
ENDBRANCH  24  27
ENDBRANCH  23  24
ENDBRANCH   5  23
TORSDOF 9
