REMARK  Name = ZINC33522590
REMARK  12 active torsions:
REMARK  status: ('A' for Active; 'I' for Inactive)
REMARK    1  A    between atoms: C_1  and  C_2
REMARK    2  A    between atoms: C_3  and  C_14
REMARK    3  A    between atoms: C_14  and  C_16
REMARK    4  A    between atoms: N_20  and  C_33
REMARK    5  A    between atoms: C_21  and  C_23
REMARK    6  A    between atoms: C_26  and  C_29
REMARK    7  A    between atoms: C_29  and  O_31
REMARK    8  A    between atoms: O_31  and  C_32
REMARK    9  A    between atoms: C_33  and  C_34
REMARK   10  A    between atoms: C_34  and  N_35
REMARK   11  A    between atoms: N_35  and  C_36
REMARK   12  A    between atoms: N_35  and  C_37
REMARK                            x       y       z     vdW  Elec       q    Type
REMARK                         _______ _______ _______ _____ _____    ______ ____
ROOT
ATOM      1  C   UNL     1      -4.923  -3.871  -0.052  0.00  0.00    +0.077 C 
ATOM      2  C   UNL     1      -6.180  -4.368  -0.116  0.00  0.00    +0.249 C 
ATOM      3  C   UNL     1      -6.119  -5.843  -0.135  0.00  0.00    +0.288 C 
ATOM      4  O   UNL     1      -7.084  -6.580  -0.189  0.00  0.00    -0.266 OA
ATOM      5  N   UNL     1      -4.838  -6.251  -0.083  0.00  0.00    -0.285 N 
ATOM      6  C   UNL     1      -3.986  -5.056  -0.034  0.00  0.00    +0.145 C 
ATOM      7  O   UNL     1      -7.314  -3.629  -0.158  0.00  0.00    -0.282 OA
ENDROOT
BRANCH   6   8
ATOM      8  C   UNL     1      -3.075  -5.016  -1.234  0.00  0.00    -0.022 A 
ATOM      9  C   UNL     1      -3.580  -5.297  -2.491  0.00  0.00    +0.006 A 
ATOM     10  C   UNL     1      -2.753  -5.256  -3.594  0.00  0.00    +0.015 A 
ATOM     11  C   UNL     1      -1.401  -4.943  -3.438  0.00  0.00    +0.059 A 
ATOM     12  C   UNL     1      -0.897  -4.666  -2.166  0.00  0.00    +0.015 A 
ATOM     13  C   UNL     1      -1.737  -4.704  -1.072  0.00  0.00    +0.006 A 
BRANCH  11  14
ATOM     14  C   UNL     1      -0.508  -4.904  -4.614  0.00  0.00    +0.339 C 
ATOM     15  O   UNL     1       0.668  -4.632  -4.475  0.00  0.00    -0.245 OA
BRANCH  14  16
ATOM     16  O   UNL     1      -0.997  -5.172  -5.841  0.00  0.00    -0.464 OA
ATOM     17  C   UNL     1      -0.062  -5.115  -6.950  0.00  0.00    +0.280 C 
ENDBRANCH  14  16
ENDBRANCH  11  14
ENDBRANCH   6   8
BRANCH   1  18
ATOM     18  C   UNL     1      -4.543  -2.454  -0.015  0.00  0.00    +0.203 C 
ATOM     19  O   UNL     1      -4.767  -1.738  -0.975  0.00  0.00    -0.286 OA
BRANCH  18  22
ATOM     20  C   UNL     1      -3.461   0.365   0.273  0.00  0.00    +0.065 C 
ATOM     21  C   UNL     1      -3.388  -0.658   1.377  0.00  0.00    +0.041 A 
ATOM     22  C   UNL     1      -3.893  -1.901   1.178  0.00  0.00    +0.082 A 
ATOM     23  S   UNL     1      -3.560  -2.687   2.747  0.00  0.00    -0.046 S 
ATOM     24  C   UNL     1      -2.776  -1.301   3.542  0.00  0.00    +0.179 A 
ATOM     25  N   UNL     1      -2.815  -0.327   2.570  0.00  0.00    -0.290 N 
ATOM     26  C   UNL     1      -2.204   0.794   3.155  0.00  0.00    +0.074 A 
ATOM     27  C   UNL     1      -1.942   2.072   2.690  0.00  0.00    +0.028 A 
ATOM     28  C   UNL     1      -1.311   2.983   3.514  0.00  0.00    +0.002 A 
ATOM     29  C   UNL     1      -0.940   2.626   4.802  0.00  0.00    +0.002 A 
ATOM     30  C   UNL     1      -1.193   1.359   5.278  0.00  0.00    +0.030 A 
ATOM     31  C   UNL     1      -1.831   0.425   4.455  0.00  0.00    +0.091 A 
ATOM     32  N   UNL     1      -2.208  -0.867   4.630  0.00  0.00    -0.221 NA
ENDBRANCH  18  22
ENDBRANCH   1  18
BRANCH   5  33
ATOM     33  C   UNL     1      -4.375  -7.641  -0.081  0.00  0.00    +0.090 C 
BRANCH  33  34
ATOM     34  C   UNL     1      -4.148  -8.104  -1.522  0.00  0.00    -0.060 C 
BRANCH  34  35
ATOM     35  N   UNL     1      -3.684  -9.498  -1.521  0.00  0.00    +0.377 N 
ATOM     36  C   UNL     1      -3.682 -10.053  -2.881  0.00  0.00    -0.097 C 
ATOM     37  C   UNL     1      -2.355  -9.610  -0.904  0.00  0.00    -0.097 C 
ATOM     38  H   UNL     1      -4.388 -10.088  -0.916  0.00  0.00    -0.083 HD
ENDBRANCH  34  35
ENDBRANCH  33  34
ENDBRANCH   5  33
TORSDOF 8
