REMARK  Name = ZINC09727420
REMARK  10 active torsions:
REMARK  status: ('A' for Active; 'I' for Inactive)
REMARK    1  A    between atoms: C_1  and  C_2
REMARK    2  A    between atoms: C_2  and  C_3
REMARK    3  A    between atoms: C_2  and  C_4
REMARK    4  A    between atoms: C_4  and  C_6
REMARK    5  A    between atoms: C_4  and  S_12
REMARK    6  A    between atoms: S_12  and  C_13
REMARK    7  A    between atoms: C_16  and  C_24
REMARK    8  A    between atoms: N_17  and  C_18
REMARK    9  A    between atoms: C_24  and  O_25
REMARK   10  A    between atoms: O_25  and  C_26
REMARK                            x       y       z     vdW  Elec       q    Type
REMARK                         _______ _______ _______ _____ _____    ______ ____
ROOT
ATOM      1  C   UNL     1      -5.263   0.297   0.612  0.00  0.00    +0.197 A 
ATOM      2  N   UNL     1      -5.071  -0.894   0.094  0.00  0.00    -0.122 NA
ATOM      3  N   UNL     1      -6.159  -1.575   0.148  0.00  0.00    -0.130 NA
ATOM      4  C   UNL     1      -7.104  -0.868   0.699  0.00  0.00    +0.176 A 
ATOM      5  N   UNL     1      -6.567   0.350   1.021  0.00  0.00    -0.271 N 
ENDROOT
BRANCH   5   6
ATOM      6  C   UNL     1      -7.219   1.428   1.638  0.00  0.00    +0.050 A 
ATOM      7  C   UNL     1      -7.685   1.306   2.940  0.00  0.00    +0.026 A 
ATOM      8  C   UNL     1      -8.322   2.371   3.547  0.00  0.00    +0.002 A 
ATOM      9  C   UNL     1      -8.506   3.554   2.854  0.00  0.00    +0.000 A 
ATOM     10  C   UNL     1      -8.048   3.676   1.556  0.00  0.00    +0.002 A 
ATOM     11  C   UNL     1      -7.405   2.616   0.946  0.00  0.00    +0.026 A 
ENDBRANCH   5   6
BRANCH   1  12
ATOM     12  S   UNL     1      -4.066   1.582   0.760  0.00  0.00    -0.073 S 
BRANCH  12  13
ATOM     13  C   UNL     1      -2.679   0.822  -0.121  0.00  0.00    +0.143 C 
BRANCH  13  14
ATOM     14  C   UNL     1      -1.448   1.673   0.050  0.00  0.00    +0.234 C 
ATOM     15  O   UNL     1      -1.556   2.837   0.372  0.00  0.00    -0.274 OA
ATOM     16  N   UNL     1      -0.227   1.141  -0.155  0.00  0.00    -0.239 N 
ATOM     17  C   UNL     1       0.875   1.905  -0.007  0.00  0.00    +0.303 C 
ATOM     18  O   UNL     1       0.766   3.071   0.316  0.00  0.00    -0.253 OA
ATOM     19  N   UNL     1       2.095   1.374  -0.217  0.00  0.00    -0.313 N 
ATOM     20  H   UNL     1      -0.140   0.210  -0.412  0.00  0.00    +0.159 HD
ATOM     21  H   UNL     1       2.182   0.443  -0.475  0.00  0.00    +0.146 HD
ATOM     22  H   UNL     1       2.888   1.923  -0.111  0.00  0.00    +0.146 HD
ENDBRANCH  13  14
BRANCH  13  24
ATOM     23  C   UNL     1      -3.156   2.112  -2.207  0.00  0.00    +0.009 C 
ATOM     24  C   UNL     1      -3.019   0.710  -1.609  0.00  0.00    +0.005 C 
ATOM     25  C   UNL     1      -1.903  -0.046  -2.332  0.00  0.00    +0.009 C 
ENDBRANCH  13  24
ENDBRANCH  12  13
ENDBRANCH   1  12
BRANCH   4  26
ATOM     26  C   UNL     1      -8.524  -1.311   0.943  0.00  0.00    +0.305 C 
BRANCH  26  27
ATOM     27  O   UNL     1      -8.618  -1.921   2.232  0.00  0.00    -0.484 OA
BRANCH  27  28
ATOM     28  C   UNL     1      -9.840  -2.379   2.611  0.00  0.00    +0.121 A 
ATOM     29  C   UNL     1     -10.928  -2.239   1.762  0.00  0.00    +0.047 A 
ATOM     30  C   UNL     1     -12.168  -2.710   2.146  0.00  0.00    +0.023 A 
ATOM     31  C   UNL     1     -12.329  -3.311   3.382  0.00  0.00    +0.041 A 
ATOM     32  C   UNL     1     -11.246  -3.447   4.233  0.00  0.00    +0.023 A 
ATOM     33  C   UNL     1     -10.003  -2.982   3.850  0.00  0.00    +0.047 A 
ATOM     34 CL   UNL     1     -13.890  -3.896   3.866  0.00  0.00    -0.084 Cl
ENDBRANCH  27  28
ENDBRANCH  26  27
ENDBRANCH   4  26
TORSDOF 8
