REMARK  Name = ZINC36313592
REMARK  15 active torsions:
REMARK  status: ('A' for Active; 'I' for Inactive)
REMARK    1  A    between atoms: C_1  and  C_2
REMARK    2  A    between atoms: C_2  and  C_3
REMARK    3  A    between atoms: C_2  and  C_4
REMARK    4  A    between atoms: C_4  and  N_5
REMARK    5  A    between atoms: N_5  and  C_6
REMARK    6  A    between atoms: N_5  and  C_23
REMARK    7  A    between atoms: C_6  and  C_7
REMARK    8  A    between atoms: C_23  and  C_24
REMARK    9  A    between atoms: C_24  and  C_26
REMARK   10  A    between atoms: C_24  and  O_32
REMARK   11  A    between atoms: C_26  and  O_27
REMARK   12  A    between atoms: O_27  and  C_28
REMARK   13  A    between atoms: C_28  and  C_29
REMARK   14  A    between atoms: C_28  and  C_30
REMARK   15  A    between atoms: C_28  and  C_31
REMARK                            x       y       z     vdW  Elec       q    Type
REMARK                         _______ _______ _______ _____ _____    ______ ____
ROOT
ATOM      1  C   UNL     1      -1.659  -1.100  -2.181  0.00  0.00    -0.003 C 
ENDROOT
BRANCH   1   2
ATOM      2  C   UNL     1      -2.425  -0.813  -3.447  0.00  0.00    +0.094 A 
ATOM      3  N   UNL     1      -2.187  -1.562  -4.554  0.00  0.00    -0.312 N 
ATOM      4  H   UNL     1      -1.528  -2.272  -4.515  0.00  0.00    +0.170 HD
ATOM      5  C   UNL     1      -2.848  -1.339  -5.706  0.00  0.00    +0.260 A 
ATOM      6  O   UNL     1      -2.623  -2.020  -6.691  0.00  0.00    -0.267 OA
ATOM      7  C   UNL     1      -3.820  -0.286  -5.752  0.00  0.00    +0.075 A 
ATOM      8  C   UNL     1      -4.650   0.130  -6.887  0.00  0.00    -0.023 A 
ATOM      9  C   UNL     1      -5.493   1.161  -6.675  0.00  0.00    -0.004 A 
ATOM     10  S   UNL     1      -5.244   1.621  -4.979  0.00  0.00    -0.073 S 
ATOM     11  C   UNL     1      -3.997   0.431  -4.561  0.00  0.00    +0.116 A 
ATOM     12  N   UNL     1      -3.309   0.149  -3.458  0.00  0.00    -0.229 NA
ATOM     13  C   UNL     1      -6.431   1.797  -7.653  0.00  0.00    +0.043 C 
ATOM     14  C   UNL     1      -7.244   0.704  -8.359  0.00  0.00    +0.005 C 
ATOM     15  C   UNL     1      -6.479   0.265  -9.604  0.00  0.00    +0.001 C 
ATOM     16  C   UNL     1      -4.975   0.358  -9.354  0.00  0.00    +0.005 C 
ATOM     17  C   UNL     1      -4.560  -0.586  -8.232  0.00  0.00    +0.037 C 
ENDBRANCH   1   2
BRANCH   1  18
ATOM     18  N   UNL     1      -2.189  -0.271  -1.090  0.00  0.00    +0.386 N 
ATOM     19  H   UNL     1      -2.190   0.697  -1.373  0.00  0.00    -0.081 HD
BRANCH  18  20
ATOM     20  C   UNL     1      -1.344  -0.432   0.101  0.00  0.00    -0.075 C 
BRANCH  20  22
ATOM     21  C   UNL     1      -0.054   1.641  -0.430  0.00  0.00    +0.005 C 
ATOM     22  C   UNL     1       0.049   0.135  -0.181  0.00  0.00    -0.034 C 
ATOM     23  C   UNL     1       0.958  -0.121   1.023  0.00  0.00    +0.005 C 
ENDBRANCH  20  22
ENDBRANCH  18  20
BRANCH  18  24
ATOM     24  C   UNL     1      -3.561  -0.692  -0.777  0.00  0.00    -0.044 C 
BRANCH  24  25
ATOM     25  C   UNL     1      -4.156   0.250   0.272  0.00  0.00    +0.124 C 
BRANCH  25  26
ATOM     26  O   UNL     1      -4.280   1.562  -0.282  0.00  0.00    -0.391 OA
ATOM     27  H   UNL     1      -4.848   1.608  -1.062  0.00  0.00    +0.210 HD
ENDBRANCH  25  26
BRANCH  25  28
ATOM     28  C   UNL     1      -5.537  -0.259   0.689  0.00  0.00    +0.189 C 
BRANCH  28  29
ATOM     29  O   UNL     1      -6.044   0.552   1.750  0.00  0.00    -0.372 OA
BRANCH  29  30
ATOM     30  C   UNL     1      -7.336   0.160   2.217  0.00  0.00    +0.061 C 
ATOM     31  C   UNL     1      -7.275  -1.278   2.737  0.00  0.00    +0.041 C 
ATOM     32  C   UNL     1      -7.776   1.093   3.346  0.00  0.00    +0.041 C 
ATOM     33  C   UNL     1      -8.341   0.243   1.066  0.00  0.00    +0.041 C 
ENDBRANCH  29  30
ENDBRANCH  28  29
ENDBRANCH  25  28
ENDBRANCH  24  25
ENDBRANCH  18  24
ENDBRANCH   1  18
TORSDOF 10
