REMARK  Name = ZINC08832462
REMARK  4 active torsions:
REMARK  status: ('A' for Active; 'I' for Inactive)
REMARK    1  A    between atoms: C_1  and  C_2
REMARK    2  A    between atoms: C_9  and  N_14
REMARK    3  A    between atoms: C_10  and  C_11
REMARK    4  A    between atoms: C_15  and  C_17
REMARK                            x       y       z     vdW  Elec       q    Type
REMARK                         _______ _______ _______ _____ _____    ______ ____
ROOT
ATOM      1  C   UNL     1      -1.441   3.614   2.532  0.00  0.00    +0.008 C 
ATOM      2  C   UNL     1      -0.946   3.084   1.185  0.00  0.00    -0.009 C 
ATOM      3  C   UNL     1      -0.764   1.565   1.267  0.00  0.00    +0.008 C 
ATOM      4  C   UNL     1      -0.044   1.059   0.016  0.00  0.00    +0.037 C 
ATOM      5  C   UNL     1      -0.776   1.576  -1.217  0.00  0.00    -0.023 A 
ATOM      6  C   UNL     1      -1.628   2.621  -1.133  0.00  0.00    -0.004 A 
ATOM      7  S   UNL     1      -2.223   2.853  -2.784  0.00  0.00    -0.077 S 
ATOM      8  C   UNL     1      -1.353   1.582  -3.577  0.00  0.00    +0.085 A 
ATOM      9  C   UNL     1      -0.623   1.007  -2.545  0.00  0.00    +0.068 A 
ATOM     10  C   UNL     1      -1.980   3.402   0.095  0.00  0.00    +0.046 C 
ENDROOT
BRANCH   9  11
ATOM     11  C   UNL     1       0.269  -0.131  -2.787  0.00  0.00    +0.244 C 
ATOM     12  O   UNL     1      -0.156  -1.267  -2.694  0.00  0.00    -0.270 OA
ATOM     13  N   UNL     1       1.560   0.082  -3.112  0.00  0.00    -0.325 N 
ATOM     14  H   UNL     1       1.898   0.988  -3.186  0.00  0.00    +0.145 HD
ATOM     15  H   UNL     1       2.150  -0.671  -3.272  0.00  0.00    +0.145 HD
ENDBRANCH   9  11
BRANCH   8  16
ATOM     16  N   UNL     1      -1.380   1.225  -4.915  0.00  0.00    -0.275 N 
ATOM     17  C   UNL     1      -2.158   1.906  -5.779  0.00  0.00    +0.249 C 
ATOM     18  O   UNL     1      -2.837   2.834  -5.383  0.00  0.00    -0.270 OA
ATOM     19  H   UNL     1      -0.838   0.484  -5.230  0.00  0.00    +0.156 HD
BRANCH  17  20
ATOM     20  C   UNL     1      -2.187   1.526  -7.202  0.00  0.00    +0.045 A 
ATOM     21  C   UNL     1      -1.330   0.549  -7.693  0.00  0.00    +0.014 A 
ATOM     22  C   UNL     1      -1.360   0.193  -9.034  0.00  0.00    +0.001 A 
ATOM     23  C   UNL     1      -2.217   0.778  -9.914  0.00  0.00    +0.009 A 
ATOM     24  C   UNL     1      -3.112   1.774  -9.488  0.00  0.00    -0.003 A 
ATOM     25  C   UNL     1      -3.121   2.166  -8.127  0.00  0.00    -0.005 A 
ATOM     26  C   UNL     1      -4.006   3.163  -7.699  0.00  0.00    +0.009 A 
ATOM     27  C   UNL     1      -4.857   3.737  -8.595  0.00  0.00    +0.002 A 
ATOM     28  C   UNL     1      -4.856   3.352  -9.933  0.00  0.00    +0.016 A 
ATOM     29  C   UNL     1      -4.003   2.389 -10.385  0.00  0.00    +0.026 A 
ATOM     30 BR   UNL     1      -4.019   1.883 -12.207  0.00  0.00    -0.050 Br
ENDBRANCH  17  20
ENDBRANCH   8  16
TORSDOF 3
