REMARK  Name = ZINC05634721
REMARK  6 active torsions:
REMARK  status: ('A' for Active; 'I' for Inactive)
REMARK    1  A    between atoms: C_1  and  C_2
REMARK    2  A    between atoms: C_8  and  C_16
REMARK    3  A    between atoms: C_10  and  C_14
REMARK    4  A    between atoms: C_11  and  N_13
REMARK    5  A    between atoms: N_18  and  C_27
REMARK    6  A    between atoms: C_20  and  C_21
REMARK                            x       y       z     vdW  Elec       q    Type
REMARK                         _______ _______ _______ _____ _____    ______ ____
ROOT
ATOM      1  C   UNL     1       1.125   0.382   3.014  0.00  0.00    +0.008 A 
ATOM      2  C   UNL     1       0.204   0.419   4.002  0.00  0.00    +0.119 A 
ATOM      3  N   UNL     1       0.363   1.588   4.675  0.00  0.00    -0.239 N 
ATOM      4  N   UNL     1       1.417   2.292   4.079  0.00  0.00    -0.166 NA
ATOM      5  C   UNL     1       1.882   1.568   3.083  0.00  0.00    +0.097 A 
ENDROOT
BRANCH   1  12
ATOM      6  C   UNL     1      -0.018   1.503   0.010  0.00  0.00    +0.063 C 
ATOM      7  C   UNL     1       0.002  -0.004   0.002  0.00  0.00    +0.051 C 
ATOM      8  N   UNL     1       0.008  -0.776  -1.037  0.00  0.00    -0.155 NA
ATOM      9  N   UNL     1       0.058  -2.128  -0.698  0.00  0.00    -0.115 NA
ATOM     10  C   UNL     1       0.132  -2.303   0.571  0.00  0.00    +0.227 C 
ATOM     11  C   UNL     1       0.026  -0.917   1.204  0.00  0.00    +0.135 C 
ATOM     12  C   UNL     1       1.312  -0.734   2.018  0.00  0.00    +0.086 C 
ATOM     13  C   UNL     1       1.615  -2.017   2.745  0.00  0.00    +0.095 C 
ATOM     14  C   UNL     1       1.130  -3.225   2.393  0.00  0.00    +0.200 C 
ATOM     15  O   UNL     1       0.289  -3.404   1.336  0.00  0.00    -0.425 OA
BRANCH  14  16
ATOM     16  N   UNL     1       1.495  -4.322   3.134  0.00  0.00    -0.328 N 
ATOM     17  H   UNL     1       2.090  -4.218   3.893  0.00  0.00    +0.145 HD
ATOM     18  H   UNL     1       1.158  -5.200   2.898  0.00  0.00    +0.145 HD
ENDBRANCH  14  16
BRANCH  13  19
ATOM     19  C   UNL     1       2.476  -1.950   3.888  0.00  0.00    +0.100 C 
ATOM     20  N   UNL     1       3.159  -1.897   4.794  0.00  0.00    -0.191 NA
ENDBRANCH  13  19
ENDBRANCH   1  12
BRANCH   5  21
ATOM     21  C   UNL     1       3.006   1.937   2.187  0.00  0.00    +0.002 A 
ATOM     22  C   UNL     1       3.862   0.954   1.697  0.00  0.00    +0.010 A 
ATOM     23  C   UNL     1       4.905   1.303   0.864  0.00  0.00    +0.001 A 
ATOM     24  C   UNL     1       5.101   2.627   0.514  0.00  0.00    +0.000 A 
ATOM     25  C   UNL     1       4.254   3.608   0.998  0.00  0.00    +0.001 A 
ATOM     26  C   UNL     1       3.204   3.269   1.827  0.00  0.00    +0.010 A 
ENDBRANCH   5  21
BRANCH   3  27
ATOM     27  C   UNL     1      -0.396   2.016   5.773  0.00  0.00    +0.065 A 
ATOM     28  C   UNL     1      -1.414   1.213   6.269  0.00  0.00    +0.028 A 
ATOM     29  C   UNL     1      -2.160   1.637   7.352  0.00  0.00    +0.002 A 
ATOM     30  C   UNL     1      -1.894   2.860   7.941  0.00  0.00    +0.000 A 
ATOM     31  C   UNL     1      -0.880   3.662   7.448  0.00  0.00    +0.002 A 
ATOM     32  C   UNL     1      -0.127   3.240   6.370  0.00  0.00    +0.028 A 
ENDBRANCH   3  27
TORSDOF 5
