REMARK  Name = ZINC39661317
REMARK  6 active torsions:
REMARK  status: ('A' for Active; 'I' for Inactive)
REMARK    1  A    between atoms: C_1  and  C_2
REMARK    2  A    between atoms: C_2  and  N_3
REMARK    3  A    between atoms: C_4  and  C_10
REMARK    4  A    between atoms: C_6  and  C_8
REMARK    5  A    between atoms: C_14  and  C_23
REMARK    6  A    between atoms: N_25  and  C_26
REMARK                            x       y       z     vdW  Elec       q    Type
REMARK                         _______ _______ _______ _____ _____    ______ ____
ROOT
ATOM      1  C   UNL     1      -1.589  -0.668  -2.577  0.00  0.00    +0.266 C 
ATOM      2  O   UNL     1      -2.085  -1.036  -3.625  0.00  0.00    -0.268 OA
ATOM      3  N   UNL     1      -2.376  -0.211  -1.583  0.00  0.00    -0.295 N 
ATOM      4  C   UNL     1      -1.971   0.191  -0.215  0.00  0.00    +0.121 C 
ATOM      5  C   UNL     1      -2.830   1.437   0.095  0.00  0.00    +0.100 C 
ATOM      6  C   UNL     1      -4.058   1.306  -0.822  0.00  0.00    -0.004 C 
ATOM      7  C   UNL     1      -3.842   0.008  -1.613  0.00  0.00    +0.115 C 
ATOM      8  C   UNL     1      -4.132   2.493  -1.778  0.00  0.00    -0.010 C 
ATOM      9  C   UNL     1      -5.391   2.369  -2.640  0.00  0.00    -0.082 C 
ATOM     10  N   UNL     1      -6.577   2.337  -1.776  0.00  0.00    +0.379 N 
ATOM     11  C   UNL     1      -6.543   1.142  -0.923  0.00  0.00    -0.082 C 
ATOM     12  C   UNL     1      -5.332   1.213   0.011  0.00  0.00    -0.010 C 
ATOM     13  H   UNL     1      -6.591   3.162  -1.195  0.00  0.00    -0.086 HD
ATOM     14  H   UNL     1      -7.408   2.317  -2.347  0.00  0.00    -0.086 HD
ENDROOT
BRANCH   1  16
ATOM     15  N   UNL     1       0.596  -1.764  -1.890  0.00  0.00    -0.258 N 
ATOM     16  C   UNL     1      -0.131  -0.721  -2.394  0.00  0.00    +0.138 A 
ATOM     17  C   UNL     1       0.783   0.274  -2.700  0.00  0.00    +0.071 A 
ATOM     18  C   UNL     1       2.031  -0.249  -2.350  0.00  0.00    +0.075 A 
ATOM     19  N   UNL     1       1.842  -1.453  -1.874  0.00  0.00    -0.175 NA
ATOM     20  C   UNL     1       3.357   0.452  -2.490  0.00  0.00    +0.069 C 
ATOM     21 BR   UNL     1       0.419   1.978  -3.436  0.00  0.00    -0.046 Br
BRANCH  15  23
ATOM     22  C   UNL     1      -0.415  -2.902   0.025  0.00  0.00    +0.029 C 
ATOM     23  C   UNL     1       0.037  -3.038  -1.431  0.00  0.00    +0.141 C 
ENDBRANCH  15  23
ENDBRANCH   1  16
BRANCH   5  24
ATOM     24  C   UNL     1      -2.065   2.696  -0.225  0.00  0.00    +0.219 C 
ATOM     25  O   UNL     1      -1.301   2.717  -1.167  0.00  0.00    -0.275 OA
ATOM     26  N   UNL     1      -2.229   3.796   0.535  0.00  0.00    -0.304 N 
ATOM     27  H   UNL     1      -2.792   3.761   1.325  0.00  0.00    +0.149 HD
BRANCH  26  28
ATOM     28  C   UNL     1      -1.558   5.046   0.169  0.00  0.00    +0.151 C 
ATOM     29  C   UNL     1      -1.335   5.880   1.433  0.00  0.00    +0.042 C 
ATOM     30  C   UNL     1      -1.186   7.358   1.001  0.00  0.00    +0.079 C 
ATOM     31  S   UNL     1      -2.221   7.410  -0.512  0.00  0.00    -0.086 S 
ATOM     32  C   UNL     1      -2.402   5.777  -0.847  0.00  0.00    +0.209 C 
ATOM     33  O   UNL     1      -3.075   5.284  -1.729  0.00  0.00    -0.283 OA
ENDBRANCH  26  28
ENDBRANCH   5  24
TORSDOF 4
