REMARK  Name = ZINC40370647
REMARK  7 active torsions:
REMARK  status: ('A' for Active; 'I' for Inactive)
REMARK    1  A    between atoms: C_1  and  C_2
REMARK    2  A    between atoms: C_2  and  C_3
REMARK    3  A    between atoms: C_3  and  C_4
REMARK    4  A    between atoms: C_4  and  C_6
REMARK    5  A    between atoms: C_4  and  N_10
REMARK    6  A    between atoms: N_7  and  O_8
REMARK    7  A    between atoms: C_11  and  C_13
REMARK                            x       y       z     vdW  Elec       q    Type
REMARK                         _______ _______ _______ _____ _____    ______ ____
ROOT
ATOM      1  C   UNL     1       0.763  -2.041   1.233  0.00  0.00    +0.140 C 
ENDROOT
BRANCH   1   2
ATOM      2  C   UNL     1       1.596  -2.538   2.386  0.00  0.00    +0.152 C 
ATOM      3  N   UNL     1       1.091  -3.370   3.236  0.00  0.00    -0.075 NA
ATOM      4  N   UNL     1       2.895  -2.106   2.535  0.00  0.00    -0.342 N 
ATOM      5  H   UNL     1       3.274  -1.481   1.897  0.00  0.00    +0.144 HD
ATOM      6  H   UNL     1       3.431  -2.426   3.277  0.00  0.00    +0.144 HD
BRANCH   3   7
ATOM      7  O   UNL     1       1.873  -3.837   4.320  0.00  0.00    -0.408 OA
ATOM      8  H   UNL     1       1.410  -4.456   4.901  0.00  0.00    +0.328 HD
ENDBRANCH   3   7
ENDBRANCH   1   2
BRANCH   1   9
ATOM      9  N   UNL     1      -0.605  -2.548   1.364  0.00  0.00    -0.302 N 
ATOM     10  C   UNL     1      -0.918  -3.772   0.893  0.00  0.00    +0.246 C 
ATOM     11  O   UNL     1      -0.064  -4.455   0.361  0.00  0.00    -0.270 OA
ATOM     12  H   UNL     1      -1.286  -2.004   1.789  0.00  0.00    +0.150 HD
BRANCH  10  13
ATOM     13  C   UNL     1      -2.298  -4.284   1.025  0.00  0.00    +0.050 A 
ATOM     14  C   UNL     1      -3.282  -3.501   1.631  0.00  0.00    +0.014 A 
ATOM     15  C   UNL     1      -4.568  -3.985   1.751  0.00  0.00    +0.001 A 
ATOM     16  C   UNL     1      -4.884  -5.244   1.272  0.00  0.00    +0.001 A 
ATOM     17  C   UNL     1      -3.915  -6.026   0.670  0.00  0.00    +0.015 A 
ATOM     18  C   UNL     1      -2.625  -5.552   0.539  0.00  0.00    +0.025 A 
ATOM     19  I   UNL     1      -1.160  -6.734  -0.380  0.00  0.00    -0.043 I 
ENDBRANCH  10  13
ENDBRANCH   1   9
BRANCH   1  20
ATOM     20  C   UNL     1       0.742  -0.511   1.242  0.00  0.00    +0.030 C 
BRANCH  20  22
ATOM     21  C   UNL     1      -0.019   1.526   0.010  0.00  0.00    +0.004 C 
ATOM     22  C   UNL     1       0.002  -0.004   0.002  0.00  0.00    -0.001 C 
ENDBRANCH  20  22
ENDBRANCH   1  20
TORSDOF 6
