REMARK  Name = ZINC39685779
REMARK  17 active torsions:
REMARK  status: ('A' for Active; 'I' for Inactive)
REMARK    1  A    between atoms: C_1  and  C_2
REMARK    2  A    between atoms: C_2  and  C_3
REMARK    3  A    between atoms: C_2  and  C_4
REMARK    4  A    between atoms: C_4  and  C_6
REMARK    5  A    between atoms: C_4  and  N_13
REMARK    6  A    between atoms: N_8  and  C_9
REMARK    7  A    between atoms: C_9  and  C_10
REMARK    8  A    between atoms: C_9  and  C_11
REMARK    9  A    between atoms: C_9  and  C_12
REMARK   10  A    between atoms: C_14  and  C_16
REMARK   11  A    between atoms: C_27  and  C_29
REMARK   12  A    between atoms: C_31  and  O_39
REMARK   13  A    between atoms: C_32  and  O_37
REMARK   14  A    between atoms: C_33  and  O_35
REMARK   15  A    between atoms: O_35  and  C_36
REMARK   16  A    between atoms: O_37  and  C_38
REMARK   17  A    between atoms: O_39  and  C_40
REMARK                            x       y       z     vdW  Elec       q    Type
REMARK                         _______ _______ _______ _____ _____    ______ ____
ROOT
ATOM      1  C   UNL     1       0.620  -4.345   1.821  0.00  0.00    +0.100 C 
ATOM      2  C   UNL     1       1.815  -4.119   0.867  0.00  0.00    +0.121 C 
ATOM      3  N   UNL     1       2.931  -3.715   1.754  0.00  0.00    -0.296 N 
ATOM      4  C   UNL     1       2.780  -4.576   2.952  0.00  0.00    +0.115 C 
ATOM      5  C   UNL     1       1.258  -4.649   3.187  0.00  0.00    -0.004 C 
ATOM      6  C   UNL     1       0.862  -6.045   3.656  0.00  0.00    -0.010 C 
ATOM      7  C   UNL     1       1.459  -6.302   5.042  0.00  0.00    -0.082 C 
ATOM      8  N   UNL     1       0.967  -5.290   5.985  0.00  0.00    +0.379 N 
ATOM      9  C   UNL     1       1.432  -3.958   5.577  0.00  0.00    -0.082 C 
ATOM     10  C   UNL     1       0.833  -3.603   4.213  0.00  0.00    -0.010 C 
ATOM     11  C   UNL     1       3.872  -2.778   1.525  0.00  0.00    +0.247 C 
ATOM     12  O   UNL     1       3.797  -2.071   0.538  0.00  0.00    -0.270 OA
ATOM     13  H   UNL     1      -0.042  -5.304   5.995  0.00  0.00    -0.086 HD
ATOM     14  H   UNL     1       1.314  -5.497   6.910  0.00  0.00    -0.086 HD
ENDROOT
BRANCH  11  15
ATOM     15  C   UNL     1       4.992  -2.610   2.471  0.00  0.00    +0.044 A 
ATOM     16  C   UNL     1       5.365  -3.663   3.308  0.00  0.00    +0.062 A 
ATOM     17  C   UNL     1       6.416  -3.503   4.193  0.00  0.00    +0.166 A 
ATOM     18  C   UNL     1       7.101  -2.293   4.250  0.00  0.00    +0.204 A 
ATOM     19  C   UNL     1       6.731  -1.241   3.416  0.00  0.00    +0.166 A 
ATOM     20  C   UNL     1       5.685  -1.398   2.526  0.00  0.00    +0.062 A 
BRANCH  19  21
ATOM     21  O   UNL     1       7.402  -0.059   3.475  0.00  0.00    -0.491 OA
ATOM     22  C   UNL     1       6.969   0.977   2.591  0.00  0.00    +0.277 C 
ENDBRANCH  19  21
BRANCH  18  23
ATOM     23  O   UNL     1       8.133  -2.138   5.120  0.00  0.00    -0.488 OA
ATOM     24  C   UNL     1       9.437  -2.482   4.649  0.00  0.00    +0.277 C 
ENDBRANCH  18  23
BRANCH  17  25
ATOM     25  O   UNL     1       6.779  -4.529   5.008  0.00  0.00    -0.491 OA
ATOM     26  C   UNL     1       6.033  -5.742   4.897  0.00  0.00    +0.277 C 
ENDBRANCH  17  25
ENDBRANCH  11  15
BRANCH   1  28
ATOM     27  N   UNL     1      -1.536  -3.199   2.214  0.00  0.00    -0.303 N 
ATOM     28  C   UNL     1      -0.229  -3.103   1.903  0.00  0.00    +0.219 C 
ATOM     29  O   UNL     1       0.265  -2.016   1.688  0.00  0.00    -0.275 OA
ATOM     30  H   UNL     1      -1.931  -4.069   2.386  0.00  0.00    +0.149 HD
BRANCH  27  31
ATOM     31  C   UNL     1      -2.362  -1.992   2.294  0.00  0.00    +0.161 C 
BRANCH  31  32
ATOM     32  C   UNL     1      -3.534  -2.243   3.207  0.00  0.00    +0.234 C 
ATOM     33  O   UNL     1      -3.884  -3.380   3.444  0.00  0.00    -0.274 OA
ATOM     34  N   UNL     1      -4.193  -1.206   3.760  0.00  0.00    -0.309 N 
ATOM     35  H   UNL     1      -3.872  -0.300   3.624  0.00  0.00    +0.149 HD
BRANCH  34  36
ATOM     36  C   UNL     1      -5.393  -1.445   4.565  0.00  0.00    +0.026 C 
ATOM     37  C   UNL     1      -5.037  -2.335   5.758  0.00  0.00    +0.031 C 
ATOM     38  C   UNL     1      -5.942  -0.110   5.071  0.00  0.00    +0.031 C 
ATOM     39  C   UNL     1      -6.452  -2.140   3.707  0.00  0.00    +0.031 C 
ENDBRANCH  34  36
ENDBRANCH  31  32
BRANCH  31  41
ATOM     40  C   UNL     1      -1.688  -1.252   0.004  0.00  0.00    +0.009 C 
ATOM     41  C   UNL     1      -2.872  -1.629   0.897  0.00  0.00    +0.012 C 
ATOM     42  C   UNL     1      -3.603  -2.830   0.294  0.00  0.00    +0.009 C 
ENDBRANCH  31  41
ENDBRANCH  27  31
ENDBRANCH   1  28
TORSDOF 9
