REMARK  Name = ZINC32690940
REMARK  6 active torsions:
REMARK  status: ('A' for Active; 'I' for Inactive)
REMARK    1  A    between atoms: C_1  and  N_2
REMARK    2  A    between atoms: N_11  and  N_12
REMARK    3  A    between atoms: C_13  and  C_14
REMARK    4  A    between atoms: C_15  and  N_29
REMARK    5  A    between atoms: C_17  and  C_18
REMARK    6  A    between atoms: C_21  and  N_24
REMARK                            x       y       z     vdW  Elec       q    Type
REMARK                         _______ _______ _______ _____ _____    ______ ____
ROOT
ATOM      1  C   UNL     1      -7.982   3.104  -1.106  0.00  0.00    -0.007 C 
ATOM      2  C   UNL     1      -9.439   3.075  -1.060  0.00  0.00    +0.022 C 
ATOM      3  C   UNL     1      -9.945   4.237  -0.472  0.00  0.00    -0.027 C 
ATOM      4  C   UNL     1     -11.267   4.513  -0.284  0.00  0.00    +0.013 C 
ATOM      5  C   UNL     1      -8.803   5.139  -0.077  0.00  0.00    +0.042 C 
ATOM      6  C   UNL     1      -7.518   4.400  -0.483  0.00  0.00    +0.043 C 
ENDROOT
BRANCH   2   7
ATOM      7  N   UNL     1     -10.207   2.049  -1.532  0.00  0.00    -0.389 NA
ATOM      8  C   UNL     1     -11.218   2.278  -2.576  0.00  0.00    +0.113 C 
ATOM      9  C   UNL     1     -11.002   1.240  -3.689  0.00  0.00    +0.177 C 
ATOM     10  O   UNL     1     -10.971  -0.068  -3.111  0.00  0.00    -0.377 OA
ATOM     11  C   UNL     1      -9.896  -0.276  -2.191  0.00  0.00    +0.177 C 
ATOM     12  C   UNL     1     -10.053   0.684  -1.006  0.00  0.00    +0.113 C 
ATOM     13  H   UNL     1      -9.558   2.867  -1.185  0.00  0.00    +0.127 HD
ENDBRANCH   2   7
BRANCH   4  14
ATOM     14  C   UNL     1     -12.255   3.430  -0.322  0.00  0.00    -0.025 A 
ATOM     15  C   UNL     1     -13.483   3.619  -0.971  0.00  0.00    +0.010 A 
ATOM     16  C   UNL     1     -14.403   2.593  -1.007  0.00  0.00    +0.033 A 
ATOM     17  C   UNL     1     -14.121   1.383  -0.394  0.00  0.00    +0.126 A 
ATOM     18  C   UNL     1     -12.912   1.190   0.254  0.00  0.00    +0.033 A 
ATOM     19  C   UNL     1     -11.978   2.202   0.295  0.00  0.00    +0.010 A 
BRANCH  17  20
ATOM     20  N   UNL     1     -15.118   0.290  -0.433  0.00  0.00    +0.056 N 
ATOM     21  O   UNL     1     -14.854  -0.863   0.148  0.00  0.00    -0.126 OA
ATOM     22  O   UNL     1     -16.269   0.469  -1.048  0.00  0.00    -0.126 OA
ENDBRANCH  17  20
ENDBRANCH   4  14
BRANCH   1  24
ATOM     23  N   UNL     1      -5.852   2.324  -1.687  0.00  0.00    -0.155 NA
ATOM     24  C   UNL     1      -7.181   2.131  -1.614  0.00  0.00    +0.140 C 
BRANCH  23  35
ATOM     25  C   UNL     1      -3.211  -0.561  -3.225  0.00  0.00    +0.151 C 
ATOM     26  N   UNL     1      -2.817   0.753  -2.710  0.00  0.00    -0.321 N 
ATOM     27  C   UNL     1      -1.493   1.114  -2.710  0.00  0.00    +0.057 A 
ATOM     28  C   UNL     1      -0.382   0.374  -3.155  0.00  0.00    +0.027 A 
ATOM     29  C   UNL     1       0.883   0.899  -3.084  0.00  0.00    +0.002 A 
ATOM     30  C   UNL     1       1.111   2.168  -2.570  0.00  0.00    +0.001 A 
ATOM     31  C   UNL     1       0.042   2.918  -2.120  0.00  0.00    +0.017 A 
ATOM     32  C   UNL     1      -1.230   2.396  -2.189  0.00  0.00    +0.039 A 
ATOM     33  S   UNL     1      -2.845   2.982  -1.742  0.00  0.00    -0.048 S 
ATOM     34  C   UNL     1      -3.759   1.594  -2.241  0.00  0.00    +0.195 A 
ATOM     35  N   UNL     1      -5.092   1.400  -2.169  0.00  0.00    -0.124 NA
ENDBRANCH  23  35
ENDBRANCH   1  24
TORSDOF 5
