REMARK  Name = ZINC63156248
REMARK  13 active torsions:
REMARK  status: ('A' for Active; 'I' for Inactive)
REMARK    1  A    between atoms: C_1  and  O_2
REMARK    2  A    between atoms: O_2  and  C_3
REMARK    3  A    between atoms: C_3  and  C_5
REMARK    4  A    between atoms: C_5  and  C_7
REMARK    5  A    between atoms: C_5  and  N_9
REMARK    6  A    between atoms: C_7  and  O_8
REMARK    7  A    between atoms: C_10  and  C_12
REMARK    8  A    between atoms: C_12  and  C_14
REMARK    9  A    between atoms: C_12  and  N_24
REMARK   10  A    between atoms: C_14  and  C_15
REMARK   11  A    between atoms: C_25  and  O_27
REMARK   12  A    between atoms: O_27  and  C_28
REMARK   13  A    between atoms: C_28  and  C_29
REMARK                            x       y       z     vdW  Elec       q    Type
REMARK                         _______ _______ _______ _____ _____    ______ ____
ROOT
ATOM      1  C   UNK A   1      -4.417  -4.224  -0.472  0.00  0.00    +0.166 C 
ENDROOT
BRANCH   1   3
ATOM      2  N   UNK A   1      -2.643  -2.570   0.013  0.00  0.00    -0.299 N 
ATOM      3  C   UNK A   1      -2.978  -3.777  -0.483  0.00  0.00    +0.234 C 
ATOM      4  O   UNK A   1      -2.120  -4.504  -0.939  0.00  0.00    -0.274 OA
ATOM      5  H   UNK A   1      -3.329  -1.989   0.378  0.00  0.00    +0.150 HD
BRANCH   2   6
ATOM      6  C   UNK A   1      -1.244  -2.135   0.003  0.00  0.00    +0.207 C 
BRANCH   6   7
ATOM      7  C   UNK A   1      -1.185  -0.630   0.010  0.00  0.00    +0.330 C 
ATOM      8  O   UNK A   1      -2.208   0.015   0.023  0.00  0.00    -0.249 OA
BRANCH   7  10
ATOM      9  C   UNK A   1      -0.017   1.425   0.010  0.00  0.00    +0.280 C 
ATOM     10  O   UNK A   1       0.002  -0.004   0.002  0.00  0.00    -0.467 OA
ENDBRANCH   7  10
ENDBRANCH   6   7
BRANCH   6  11
ATOM     11  C   UNK A   1      -0.531  -2.680   1.242  0.00  0.00    +0.189 C 
BRANCH  11  12
ATOM     12  O   UNK A   1      -1.100  -2.093   2.414  0.00  0.00    -0.393 OA
ATOM     13  H   UNK A   1      -0.696  -2.393   3.240  0.00  0.00    +0.209 HD
ENDBRANCH  11  12
ENDBRANCH   6  11
ENDBRANCH   2   6
ENDBRANCH   1   3
BRANCH   1  14
ATOM     14  N   UNK A   1      -4.518  -5.561  -1.062  0.00  0.00    -0.270 N 
ATOM     15  C   UNK A   0      -5.676  -5.966  -1.619  0.00  0.00    +0.401 C 
ATOM     16  O   UNK A   0      -6.636  -5.223  -1.633  0.00  0.00    -0.226 OA
ATOM     17  H   UNK A   1      -3.751  -6.155  -1.051  0.00  0.00    +0.153 HD
BRANCH  15  18
ATOM     18  O   UNK A   0      -5.768  -7.195  -2.162  0.00  0.00    -0.446 OA
BRANCH  18  19
ATOM     19  C   UNK A   0      -7.026  -7.558  -2.735  0.00  0.00    +0.269 C 
BRANCH  19  20
ATOM     20  C   UNK A   0      -6.941  -8.957  -3.288  0.00  0.00    -0.010 A 
ATOM     21  C   UNK A   0      -6.541  -9.160  -4.596  0.00  0.00    +0.007 A 
ATOM     22  C   UNK A   0      -6.463 -10.444  -5.104  0.00  0.00    +0.000 A 
ATOM     23  C   UNK A   0      -6.784 -11.524  -4.303  0.00  0.00    +0.000 A 
ATOM     24  C   UNK A   0      -7.182 -11.321  -2.995  0.00  0.00    +0.000 A 
ATOM     25  C   UNK A   0      -7.256 -10.038  -2.486  0.00  0.00    +0.007 A 
ENDBRANCH  19  20
ENDBRANCH  18  19
ENDBRANCH  15  18
ENDBRANCH   1  14
BRANCH   1  26
ATOM     26  C   UNK A   1      -4.927  -4.263   0.970  0.00  0.00    +0.065 C 
BRANCH  26  27
ATOM     27  C   UNK A   1      -6.398  -4.591   0.973  0.00  0.00    -0.039 C 
ATOM     28  C   UNK A   1      -6.959  -5.811   1.129  0.00  0.00    -0.001 A 
ATOM     29  C   UNK A   1      -6.390  -7.149   1.333  0.00  0.00    +0.010 A 
ATOM     30  C   UNK A   1      -7.225  -8.205   1.457  0.00  0.00    +0.001 A 
ATOM     31  C   UNK A   1      -8.617  -8.056   1.395  0.00  0.00    +0.002 A 
ATOM     32  C   UNK A   1      -9.214  -6.860   1.210  0.00  0.00    +0.026 A 
ATOM     33  C   UNK A   1      -8.433  -5.680   1.068  0.00  0.00    +0.043 A 
ATOM     34  N   UNK A   1      -8.769  -4.427   0.882  0.00  0.00    -0.380 N 
ATOM     35  C   UNK A   1      -7.546  -3.620   0.810  0.00  0.00    +0.144 C 
ATOM     36  H   UNK A   1      -9.676  -4.089   0.808  0.00  0.00    +0.160 HD
ENDBRANCH  26  27
ENDBRANCH   1  26
TORSDOF 12
