REMARK  Name = ZINC23141463
REMARK  8 active torsions:
REMARK  status: ('A' for Active; 'I' for Inactive)
REMARK    1  A    between atoms: C_1  and  C_2
REMARK    2  A    between atoms: C_3  and  C_10
REMARK    3  A    between atoms: C_13  and  S_16
REMARK    4  A    between atoms: N_14  and  C_15
REMARK    5  A    between atoms: S_16  and  C_17
REMARK    6  A    between atoms: C_17  and  C_18
REMARK    7  A    between atoms: N_20  and  C_21
REMARK    8  A    between atoms: C_21  and  C_22
REMARK                            x       y       z     vdW  Elec       q    Type
REMARK                         _______ _______ _______ _____ _____    ______ ____
ROOT
ATOM      1  C   UNL     1       1.297   1.912   2.817  0.00  0.00    +0.183 A 
ATOM      2  N   UNL     1       1.816   2.122   4.008  0.00  0.00    -0.127 NA
ATOM      3  N   UNL     1       3.097   2.048   3.948  0.00  0.00    -0.122 NA
ATOM      4  C   UNL     1       3.479   1.787   2.720  0.00  0.00    +0.192 A 
ATOM      5  N   UNL     1       2.348   1.684   1.956  0.00  0.00    -0.304 N 
ATOM      6  C   UNL     1       2.271   1.396   0.521  0.00  0.00    +0.153 C 
ENDROOT
BRANCH   1   9
ATOM      7  C   UNL     1      -1.049   1.346   4.790  0.00  0.00    +0.068 C 
ATOM      8  C   UNL     1      -1.168   1.668   3.322  0.00  0.00    +0.068 A 
ATOM      9  C   UNL     1      -0.132   1.913   2.473  0.00  0.00    +0.114 A 
ATOM     10  N   UNL     1      -0.682   2.166   1.209  0.00  0.00    -0.290 N 
ATOM     11  C   UNL     1      -0.244   2.472  -0.060  0.00  0.00    +0.101 A 
ATOM     12  C   UNL     1      -1.111   2.649  -1.057  0.00  0.00    +0.067 A 
ATOM     13  S   UNL     1      -2.675   2.382  -0.237  0.00  0.00    -0.058 S 
ATOM     14  C   UNL     1      -2.035   2.053   1.389  0.00  0.00    +0.178 A 
ATOM     15  N   UNL     1      -2.307   1.756   2.630  0.00  0.00    -0.226 NA
ENDBRANCH   1   9
BRANCH   4  16
ATOM     16  S   UNL     1       5.139   1.595   2.160  0.00  0.00    -0.077 S 
BRANCH  16  17
ATOM     17  C   UNL     1       6.027   1.860   3.715  0.00  0.00    +0.173 C 
BRANCH  17  18
ATOM     18  C   UNL     1       7.510   1.740   3.473  0.00  0.00    +0.224 C 
ATOM     19  O   UNL     1       7.925   1.499   2.360  0.00  0.00    -0.275 OA
ATOM     20  N   UNL     1       8.374   1.900   4.495  0.00  0.00    -0.310 N 
ATOM     21  H   UNL     1       7.997   2.118   5.505  0.00  0.00    +0.149 HD
BRANCH  20  22
ATOM     22  C   UNL     1       9.815   1.783   4.260  0.00  0.00    +0.141 C 
BRANCH  22  23
ATOM     23  C   UNL     1      10.555   2.003   5.554  0.00  0.00    -0.012 A 
ATOM     24  C   UNL     1      11.136   3.230   5.818  0.00  0.00    +0.006 A 
ATOM     25  C   UNL     1      11.811   3.433   7.007  0.00  0.00    +0.000 A 
ATOM     26  C   UNL     1      11.913   2.408   7.929  0.00  0.00    +0.001 A 
ATOM     27  C   UNL     1      11.337   1.180   7.664  0.00  0.00    +0.020 A 
ATOM     28  C   UNL     1      10.657   0.977   6.476  0.00  0.00    +0.046 A 
ATOM     29 CL   UNL     1       9.934  -0.565   6.142  0.00  0.00    -0.083 Cl
ENDBRANCH  22  23
ENDBRANCH  20  22
ENDBRANCH  17  18
ENDBRANCH  16  17
ENDBRANCH   4  16
TORSDOF 6
