REMARK  Name = ZINC63980708
REMARK  11 active torsions:
REMARK  status: ('A' for Active; 'I' for Inactive)
REMARK    1  A    between atoms: C_1  and  C_2
REMARK    2  A    between atoms: C_2  and  C_3
REMARK    3  A    between atoms: C_2  and  C_4
REMARK    4  A    between atoms: C_4  and  C_5
REMARK    5  A    between atoms: C_5  and  N_6
REMARK    6  A    between atoms: N_9  and  C_29
REMARK    7  A    between atoms: N_15  and  C_18
REMARK    8  A    between atoms: C_18  and  C_19
REMARK    9  A    between atoms: C_29  and  C_30
REMARK   10  A    between atoms: C_34  and  O_36
REMARK   11  A    between atoms: O_36  and  C_37
REMARK                            x       y       z     vdW  Elec       q    Type
REMARK                         _______ _______ _______ _____ _____    ______ ____
ROOT
ATOM      1  N   UNL     1       2.897  -0.430  -2.438  0.00  0.00    -0.271 N 
ATOM      2  C   UNL     1       3.515  -1.597  -2.704  0.00  0.00    +0.312 C 
ATOM      3  O   UNL     1       3.563  -2.529  -1.926  0.00  0.00    -0.252 OA
ATOM      4  N   UNL     1       4.072  -1.614  -3.921  0.00  0.00    -0.220 N 
ATOM      5  C   UNL     1       3.871  -0.452  -4.576  0.00  0.00    +0.247 C 
ATOM      6  O   UNL     1       4.249  -0.162  -5.691  0.00  0.00    -0.273 OA
ATOM      7  C   UNL     1       3.068   0.410  -3.630  0.00  0.00    +0.112 C 
ATOM      8  C   UNL     1       1.714   0.758  -4.240  0.00  0.00    +0.017 C 
ATOM      9  C   UNL     1       0.946   1.672  -3.280  0.00  0.00    -0.076 C 
ATOM     10  N   UNL     1       1.724   2.892  -3.036  0.00  0.00    +0.381 N 
ATOM     11  C   UNL     1       2.985   2.556  -2.363  0.00  0.00    -0.076 C 
ATOM     12  C   UNL     1       3.839   1.680  -3.284  0.00  0.00    +0.017 C 
ATOM     13  H   UNL     1       1.924   3.344  -3.916  0.00  0.00    -0.082 HD
ENDROOT
BRANCH   1  14
ATOM     14  C   UNL     1       2.187  -0.073  -1.207  0.00  0.00    +0.110 C 
BRANCH  14  15
ATOM     15  C   UNL     1       3.186   0.019  -0.052  0.00  0.00    +0.022 C 
BRANCH  15  17
ATOM     16  C   UNL     1       1.434  -0.522   1.645  0.00  0.00    +0.007 C 
ATOM     17  C   UNL     1       2.468   0.516   1.204  0.00  0.00    -0.016 C 
ATOM     18  C   UNL     1       3.488   0.728   2.325  0.00  0.00    +0.007 C 
ENDBRANCH  15  17
ENDBRANCH  14  15
ENDBRANCH   1  14
BRANCH  10  19
ATOM     19  C   UNL     1       0.947   3.805  -2.187  0.00  0.00    -0.050 C 
BRANCH  19  20
ATOM     20  C   UNL     1       1.701   5.127  -2.034  0.00  0.00    +0.086 C 
ATOM     21  C   UNL     1       0.838   6.140  -1.317  0.00  0.00    +0.005 C 
ATOM     22  C   UNL     1       0.674   7.170  -2.179  0.00  0.00    -0.004 A 
ATOM     23  C   UNL     1      -0.050   8.443  -2.081  0.00  0.00    +0.010 A 
ATOM     24  C   UNL     1      -0.031   9.291  -3.135  0.00  0.00    +0.001 A 
ATOM     25  C   UNL     1       0.662   8.985  -4.314  0.00  0.00    +0.002 A 
ATOM     26  C   UNL     1       1.351   7.836  -4.479  0.00  0.00    +0.026 A 
ATOM     27  C   UNL     1       1.398   6.871  -3.435  0.00  0.00    +0.043 A 
ATOM     28  N   UNL     1       1.988   5.701  -3.353  0.00  0.00    -0.380 N 
ATOM     29  H   UNL     1       2.523   5.286  -4.047  0.00  0.00    +0.160 HD
ENDBRANCH  19  20
ENDBRANCH  10  19
BRANCH   4  30
ATOM     30  C   UNL     1       4.809  -2.753  -4.473  0.00  0.00    +0.153 C 
BRANCH  30  31
ATOM     31  C   UNL     1       3.855  -3.660  -5.208  0.00  0.00    -0.026 A 
ATOM     32  C   UNL     1       3.220  -4.687  -4.534  0.00  0.00    +0.005 A 
ATOM     33  C   UNL     1       2.345  -5.520  -5.204  0.00  0.00    +0.004 A 
ATOM     34  C   UNL     1       2.102  -5.329  -6.551  0.00  0.00    +0.045 A 
ATOM     35  C   UNL     1       2.738  -4.300  -7.230  0.00  0.00    +0.120 A 
ATOM     36  C   UNL     1       3.612  -3.461  -6.553  0.00  0.00    +0.050 A 
BRANCH  35  37
ATOM     37  O   UNL     1       2.502  -4.110  -8.555  0.00  0.00    -0.495 OA
ATOM     38  C   UNL     1       1.586  -5.008  -9.185  0.00  0.00    +0.277 C 
ENDBRANCH  35  37
ENDBRANCH  30  31
ENDBRANCH   4  30
TORSDOF 8
