REMARK  Name = ZINC39666476
REMARK  8 active torsions:
REMARK  status: ('A' for Active; 'I' for Inactive)
REMARK    1  A    between atoms: C_1  and  C_2
REMARK    2  A    between atoms: C_2  and  C_4
REMARK    3  A    between atoms: C_2  and  O_28
REMARK    4  A    between atoms: C_4  and  N_5
REMARK    5  A    between atoms: C_6  and  C_8
REMARK    6  A    between atoms: C_19  and  C_21
REMARK    7  A    between atoms: C_21  and  C_27
REMARK    8  A    between atoms: O_28  and  C_29
REMARK                            x       y       z     vdW  Elec       q    Type
REMARK                         _______ _______ _______ _____ _____    ______ ____
ROOT
ATOM      1  C   UNL     1      -2.141  -4.730   0.877  0.00  0.00    +0.100 C 
ATOM      2  C   UNL     1      -1.540  -5.013   2.271  0.00  0.00    +0.121 C 
ATOM      3  N   UNL     1      -2.693  -5.446   3.096  0.00  0.00    -0.300 N 
ATOM      4  C   UNL     1      -3.501  -6.291   2.184  0.00  0.00    +0.115 C 
ATOM      5  C   UNL     1      -3.426  -5.572   0.822  0.00  0.00    -0.004 C 
ATOM      6  C   UNL     1      -4.642  -4.670   0.635  0.00  0.00    -0.010 C 
ATOM      7  C   UNL     1      -5.902  -5.535   0.527  0.00  0.00    -0.082 C 
ATOM      8  N   UNL     1      -5.770  -6.454  -0.610  0.00  0.00    +0.379 N 
ATOM      9  C   UNL     1      -4.654  -7.379  -0.379  0.00  0.00    -0.082 C 
ATOM     10  C   UNL     1      -3.342  -6.593  -0.309  0.00  0.00    -0.010 C 
ATOM     11  C   UNL     1      -2.949  -5.140   4.383  0.00  0.00    +0.222 C 
ATOM     12  O   UNL     1      -2.227  -4.368   4.978  0.00  0.00    -0.275 OA
ATOM     13  H   UNL     1      -6.625  -6.979  -0.716  0.00  0.00    -0.086 HD
ATOM     14  H   UNL     1      -5.597  -5.924  -1.451  0.00  0.00    -0.086 HD
ENDROOT
BRANCH  11  15
ATOM     15  C   UNL     1      -4.132  -5.757   5.083  0.00  0.00    +0.044 C 
ATOM     16  C   UNL     1      -5.426  -5.217   4.471  0.00  0.00    +0.016 C 
ATOM     17  C   UNL     1      -5.472  -3.696   4.636  0.00  0.00    +0.001 C 
ATOM     18  C   UNL     1      -5.425  -3.343   6.124  0.00  0.00    +0.000 C 
ATOM     19  C   UNL     1      -4.131  -3.884   6.736  0.00  0.00    +0.001 C 
ATOM     20  C   UNL     1      -4.085  -5.404   6.571  0.00  0.00    +0.016 C 
ATOM     21  C   UNL     1      -4.086  -7.278   4.918  0.00  0.00    +0.021 C 
ENDBRANCH  11  15
BRANCH   1  23
ATOM     22  N   UNL     1      -2.597  -2.720  -0.492  0.00  0.00    -0.312 N 
ATOM     23  C   UNL     1      -2.467  -3.265   0.734  0.00  0.00    +0.218 C 
ATOM     24  O   UNL     1      -2.613  -2.577   1.722  0.00  0.00    -0.275 OA
ATOM     25  H   UNL     1      -2.480  -3.271  -1.282  0.00  0.00    +0.149 HD
BRANCH  22  26
ATOM     26  C   UNL     1      -2.914  -1.297  -0.631  0.00  0.00    +0.148 C 
BRANCH  26  28
ATOM     27  C   UNL     1      -3.336   0.550  -2.260  0.00  0.00    +0.053 C 
ATOM     28  C   UNL     1      -3.005  -0.937  -2.115  0.00  0.00    +0.187 C 
BRANCH  28  29
ATOM     29  O   UNL     1      -1.753  -1.210  -2.749  0.00  0.00    -0.486 OA
BRANCH  29  30
ATOM     30  C   UNL     1      -1.794  -1.631  -4.040  0.00  0.00    +0.139 A 
ATOM     31  C   UNL     1      -3.000  -1.654  -4.725  0.00  0.00    +0.047 A 
ATOM     32  C   UNL     1      -3.039  -2.082  -6.039  0.00  0.00    +0.004 A 
ATOM     33  C   UNL     1      -1.878  -2.486  -6.671  0.00  0.00    +0.002 A 
ATOM     34  C   UNL     1      -0.674  -2.464  -5.991  0.00  0.00    +0.023 A 
ATOM     35  C   UNL     1      -0.628  -2.032  -4.678  0.00  0.00    +0.083 A 
ATOM     36 CL   UNL     1       0.884  -1.998  -3.827  0.00  0.00    -0.080 Cl
ENDBRANCH  29  30
ENDBRANCH  28  29
ENDBRANCH  26  28
ENDBRANCH  22  26
ENDBRANCH   1  23
TORSDOF 6
