REMARK  Name = ZINC14535113
REMARK  10 active torsions:
REMARK  status: ('A' for Active; 'I' for Inactive)
REMARK    1  A    between atoms: C_1  and  C_2
REMARK    2  A    between atoms: C_5  and  C_8
REMARK    3  A    between atoms: C_8  and  N_9
REMARK    4  A    between atoms: N_9  and  C_10
REMARK    5  A    between atoms: C_12  and  C_22
REMARK    6  A    between atoms: C_14  and  S_16
REMARK    7  A    between atoms: S_16  and  N_19
REMARK    8  A    between atoms: N_19  and  C_20
REMARK    9  A    between atoms: N_19  and  C_21
REMARK   10  A    between atoms: C_28  and  C_31
REMARK                            x       y       z     vdW  Elec       q    Type
REMARK                         _______ _______ _______ _____ _____    ______ ____
ROOT
ATOM      1  C   UNL     1       1.732  -4.975  -2.452  0.00  0.00    +0.030 A 
ATOM      2  C   UNL     1       0.694  -5.771  -2.912  0.00  0.00    +0.036 A 
ATOM      3  C   UNL     1       0.908  -6.638  -3.983  0.00  0.00    +0.040 A 
ATOM      4  C   UNL     1       2.166  -6.699  -4.585  0.00  0.00    +0.041 A 
ATOM      5  C   UNL     1       3.193  -5.903  -4.120  0.00  0.00    +0.108 A 
ATOM      6  C   UNL     1       2.979  -5.039  -3.062  0.00  0.00    +0.051 A 
ENDROOT
BRANCH   3   7
ATOM      7  C   UNL     1      -0.194  -7.490  -4.479  0.00  0.00    +0.247 C 
ATOM      8  O   UNL     1       0.024  -8.645  -4.791  0.00  0.00    -0.270 OA
ATOM      9  N   UNL     1      -1.440  -6.988  -4.585  0.00  0.00    -0.297 N 
ATOM     10  C   UNL     1      -1.695  -5.561  -4.339  0.00  0.00    +0.108 C 
ATOM     11  C   UNL     1      -2.429  -4.977  -5.550  0.00  0.00    +0.020 C 
ATOM     12  C   UNL     1      -3.688  -5.802  -5.826  0.00  0.00    +0.016 C 
ATOM     13  C   UNL     1      -3.293  -7.244  -6.151  0.00  0.00    +0.092 C 
ATOM     14  C   UNL     1      -2.568  -7.854  -4.953  0.00  0.00    +0.120 C 
BRANCH  13  15
ATOM     15  C   UNL     1      -4.531  -8.048  -6.455  0.00  0.00    +0.215 C 
ATOM     16  O   UNL     1      -5.622  -7.520  -6.416  0.00  0.00    -0.276 OA
ATOM     17  N   UNL     1      -4.426  -9.354  -6.770  0.00  0.00    -0.329 N 
ATOM     18  H   UNL     1      -3.553  -9.777  -6.802  0.00  0.00    +0.145 HD
ATOM     19  H   UNL     1      -5.223  -9.872  -6.966  0.00  0.00    +0.145 HD
ENDBRANCH  13  15
ENDBRANCH   3   7
BRANCH   5  20
ATOM     20  S   UNL     1       4.779  -5.983  -4.882  0.00  0.00    +0.060 S 
ATOM     21  O   UNL     1       5.718  -5.537  -3.912  0.00  0.00    -0.153 OA
ATOM     22  O   UNL     1       4.870  -7.259  -5.500  0.00  0.00    -0.153 OA
BRANCH  20  23
ATOM     23  N   UNL     1       4.793  -4.864  -6.103  0.00  0.00    -0.183 NA
ATOM     24  C   UNL     1       5.231  -3.492  -5.834  0.00  0.00    +0.131 C 
ATOM     25  C   UNL     1       4.367  -5.246  -7.451  0.00  0.00    +0.131 C 
ENDBRANCH  20  23
ENDBRANCH   5  20
BRANCH   1  26
ATOM     26  N   UNL     1       1.522  -4.104  -1.380  0.00  0.00    -0.338 N 
ATOM     27  H   UNL     1       2.248  -3.544  -1.061  0.00  0.00    +0.146 HD
BRANCH  26  28
ATOM     28  C   UNL     1       0.208  -4.036  -0.737  0.00  0.00    +0.156 C 
BRANCH  28  33
ATOM     29  C   UNL     1       0.046   0.305   1.864  0.00  0.00    +0.084 C 
ATOM     30  C   UNL     1       0.178  -1.154   1.510  0.00  0.00    +0.081 A 
ATOM     31  N   UNL     1       0.060  -1.677   0.271  0.00  0.00    -0.346 N 
ATOM     32  H   UNL     1      -0.123  -1.187  -0.546  0.00  0.00    +0.167 HD
ATOM     33  C   UNL     1       0.247  -3.029   0.383  0.00  0.00    +0.051 A 
ATOM     34  C   UNL     1       0.473  -3.284   1.685  0.00  0.00    +0.106 A 
ATOM     35  N   UNL     1       0.431  -2.120   2.350  0.00  0.00    -0.350 N 
ATOM     36  H   UNL     1       0.564  -2.014   3.305  0.00  0.00    +0.166 HD
ENDBRANCH  28  33
ENDBRANCH  26  28
ENDBRANCH   1  26
TORSDOF 7
