REMARK  Name = ZINC39934769
REMARK  8 active torsions:
REMARK  status: ('A' for Active; 'I' for Inactive)
REMARK    1  A    between atoms: C_1  and  O_2
REMARK    2  A    between atoms: O_2  and  C_3
REMARK    3  A    between atoms: C_5  and  C_13
REMARK    4  A    between atoms: C_7  and  C_10
REMARK    5  A    between atoms: C_8  and  O_9
REMARK    6  A    between atoms: C_10  and  C_11
REMARK    7  A    between atoms: C_14  and  C_15
REMARK    8  A    between atoms: C_14  and  C_17
REMARK                            x       y       z     vdW  Elec       q    Type
REMARK                         _______ _______ _______ _____ _____    ______ ____
ROOT
ATOM      1  C   UNL     1      -4.853   0.222   0.038  0.00  0.00    +0.026 C 
ATOM      2  C   UNL     1      -5.937  -0.232  -0.626  0.00  0.00    +0.072 C 
ENDROOT
BRANCH   2   3
ATOM      3  C   UNL     1      -7.179   0.617  -0.710  0.00  0.00    +0.216 C 
ATOM      4  N   UNL     1      -8.329  -0.117  -0.166  0.00  0.00    -0.359 N 
ATOM      5  C   UNL     1      -9.202  -0.240  -1.124  0.00  0.00    +0.060 A 
ATOM      6  C   UNL     1     -10.530  -0.866  -1.192  0.00  0.00    +0.027 A 
ATOM      7  C   UNL     1     -11.220  -0.837  -2.349  0.00  0.00    +0.002 A 
ATOM      8  C   UNL     1     -10.723  -0.226  -3.514  0.00  0.00    +0.002 A 
ATOM      9  C   UNL     1      -9.518   0.376  -3.560  0.00  0.00    +0.027 A 
ATOM     10  C   UNL     1      -8.676   0.408  -2.357  0.00  0.00    +0.060 A 
ATOM     11  N   UNL     1      -7.498   0.906  -2.114  0.00  0.00    -0.359 N 
ATOM     12  H   UNL     1      -8.421  -0.449   0.740  0.00  0.00    +0.162 HD
ATOM     13  H   UNL     1      -6.935   1.381  -2.744  0.00  0.00    +0.162 HD
ENDBRANCH   2   3
BRANCH   1  16
ATOM     14  C   UNL     1      -1.322  -0.993   0.400  0.00  0.00    +0.162 A 
ATOM     15  C   UNL     1      -2.400  -0.155   0.192  0.00  0.00    +0.057 A 
ATOM     16  C   UNL     1      -3.701  -0.665   0.258  0.00  0.00    -0.020 A 
ATOM     17  C   UNL     1      -3.903  -2.022   0.535  0.00  0.00    +0.015 A 
ATOM     18  C   UNL     1      -2.822  -2.851   0.741  0.00  0.00    +0.002 A 
ATOM     19  C   UNL     1      -1.531  -2.345   0.670  0.00  0.00    +0.162 A 
BRANCH  14  21
ATOM     20  C   UNL     1       0.085   0.893   0.055  0.00  0.00    +0.277 C 
ATOM     21  O   UNL     1      -0.056  -0.501   0.335  0.00  0.00    -0.491 OA
ENDBRANCH  14  21
BRANCH  19  22
ATOM     22  O   UNL     1      -0.469  -3.168   0.869  0.00  0.00    -0.503 OA
ATOM     23  H   UNL     1      -0.187  -3.230   1.792  0.00  0.00    +0.292 HD
ENDBRANCH  19  22
BRANCH  18  24
ATOM     24  C   UNL     1      -3.041  -4.312   1.039  0.00  0.00    +0.065 C 
BRANCH  24  25
ATOM     25  C   UNL     1      -3.034  -4.527   2.530  0.00  0.00    -0.030 C 
ATOM     26  C   UNL     1      -4.051  -5.114   3.112  0.00  0.00    +0.004 C 
ENDBRANCH  24  25
ENDBRANCH  18  24
ENDBRANCH   1  16
BRANCH   2  27
ATOM     27  C   UNL     1      -5.907  -1.521  -1.250  0.00  0.00    +0.099 C 
ATOM     28  N   UNL     1      -5.884  -2.543  -1.744  0.00  0.00    -0.191 NA
ENDBRANCH   2  27
TORSDOF 7
