REMARK  Name = ZINC01374038
REMARK  12 active torsions:
REMARK  status: ('A' for Active; 'I' for Inactive)
REMARK    1  A    between atoms: C_1  and  C_2
REMARK    2  A    between atoms: C_2  and  C_3
REMARK    3  A    between atoms: C_10  and  C_15
REMARK    4  A    between atoms: C_15  and  N_16
REMARK    5  A    between atoms: N_16  and  C_17
REMARK    6  A    between atoms: N_16  and  C_27
REMARK    7  A    between atoms: C_17  and  C_18
REMARK    8  A    between atoms: C_27  and  C_29
REMARK    9  A    between atoms: C_27  and  C_31
REMARK   10  A    between atoms: C_29  and  C_30
REMARK   11  A    between atoms: N_35  and  C_36
REMARK   12  A    between atoms: C_36  and  C_37
REMARK                            x       y       z     vdW  Elec       q    Type
REMARK                         _______ _______ _______ _____ _____    ______ ____
ROOT
ATOM      1  N   UNL     1       6.654  -3.107  -2.764  0.00  0.00    -0.284 NA
ENDROOT
BRANCH   1   2
ATOM      2  C   UNL     1       6.527  -1.644  -2.752  0.00  0.00    +0.126 C 
BRANCH   2  10
ATOM      3  C   UNL     1       1.631   0.018   0.647  0.00  0.00    -0.047 A 
ATOM      4  C   UNL     1       0.722   0.063  -0.402  0.00  0.00    +0.005 A 
ATOM      5  C   UNL     1       1.117  -0.230  -1.689  0.00  0.00    +0.026 A 
ATOM      6  C   UNL     1       2.441  -0.575  -1.943  0.00  0.00    +0.049 A 
ATOM      7  C   UNL     1       3.359  -0.620  -0.877  0.00  0.00    -0.001 A 
ATOM      8  C   UNL     1       2.937  -0.314   0.420  0.00  0.00    +0.013 A 
ATOM      9  C   UNL     1       4.750  -0.984  -1.155  0.00  0.00    +0.020 A 
ATOM     10  C   UNL     1       5.103  -1.266  -2.433  0.00  0.00    +0.031 A 
ATOM     11  C   UNL     1       4.143  -1.206  -3.465  0.00  0.00    +0.254 A 
ATOM     12  O   UNL     1       4.482  -1.464  -4.607  0.00  0.00    -0.268 OA
ATOM     13  N   UNL     1       2.864  -0.873  -3.220  0.00  0.00    -0.322 N 
ATOM     14  H   UNL     1       2.229  -0.842  -3.953  0.00  0.00    +0.169 HD
BRANCH   3  16
ATOM     15  C   UNL     1       1.334   1.843   2.299  0.00  0.00    +0.009 C 
ATOM     16  C   UNL     1       1.174   0.342   2.046  0.00  0.00    +0.032 C 
ENDBRANCH   3  16
ENDBRANCH   2  10
ENDBRANCH   1   2
BRANCH   1  17
ATOM     17  C   UNL     1       5.929  -3.690  -3.902  0.00  0.00    +0.120 C 
BRANCH  17  18
ATOM     18  C   UNL     1       5.687  -5.155  -3.646  0.00  0.00    -0.030 A 
ATOM     19  C   UNL     1       6.504  -6.102  -4.235  0.00  0.00    +0.009 A 
ATOM     20  C   UNL     1       6.287  -7.447  -4.003  0.00  0.00    +0.050 A 
ATOM     21  C   UNL     1       5.248  -7.850  -3.180  0.00  0.00    +0.166 A 
ATOM     22  C   UNL     1       4.424  -6.896  -2.587  0.00  0.00    +0.167 A 
ATOM     23  C   UNL     1       4.652  -5.549  -2.819  0.00  0.00    +0.054 A 
ATOM     24  O   UNL     1       3.487  -7.539  -1.831  0.00  0.00    -0.453 OA
ATOM     25  C   UNL     1       3.490  -8.903  -2.292  0.00  0.00    +0.466 C 
ATOM     26  O   UNL     1       4.826  -9.090  -2.796  0.00  0.00    -0.453 OA
ENDBRANCH  17  18
ENDBRANCH   1  17
BRANCH   1  27
ATOM     27  C   UNL     1       8.066  -3.513  -2.776  0.00  0.00    +0.127 C 
BRANCH  27  28
ATOM     28  C   UNL     1       8.213  -4.839  -2.075  0.00  0.00    +0.169 A 
ATOM     29  N   UNL     1       7.385  -5.853  -2.137  0.00  0.00    -0.112 NA
ATOM     30  N   UNL     1       7.860  -6.800  -1.403  0.00  0.00    -0.023 NA
ATOM     31  N   UNL     1       8.969  -6.415  -0.874  0.00  0.00    -0.044 NA
ATOM     32  N   UNL     1       9.223  -5.214  -1.269  0.00  0.00    -0.223 N 
BRANCH  32  33
ATOM     33  C   UNL     1      10.391  -4.408  -0.905  0.00  0.00    +0.182 C 
BRANCH  33  34
ATOM     34  C   UNL     1      10.088  -3.617   0.341  0.00  0.00    -0.026 A 
ATOM     35  C   UNL     1       9.530  -2.356   0.241  0.00  0.00    +0.005 A 
ATOM     36  C   UNL     1       9.252  -1.631   1.384  0.00  0.00    +0.000 A 
ATOM     37  C   UNL     1       9.530  -2.167   2.627  0.00  0.00    +0.000 A 
ATOM     38  C   UNL     1      10.086  -3.428   2.728  0.00  0.00    +0.000 A 
ATOM     39  C   UNL     1      10.361  -4.155   1.585  0.00  0.00    +0.005 A 
ENDBRANCH  33  34
ENDBRANCH  32  33
ENDBRANCH  27  28
BRANCH  27  40
ATOM     40  C   UNL     1       8.546  -3.645  -4.223  0.00  0.00    +0.023 C 
ATOM     41  C   UNL     1       8.486  -2.278  -4.907  0.00  0.00    +0.006 C 
ENDBRANCH  27  40
ENDBRANCH   1  27
TORSDOF 10
