REMARK  Name = ZINC63134381
REMARK  13 active torsions:
REMARK  status: ('A' for Active; 'I' for Inactive)
REMARK    1  A    between atoms: C_1  and  C_2
REMARK    2  A    between atoms: C_7  and  O_16
REMARK    3  A    between atoms: C_13  and  C_15
REMARK    4  A    between atoms: O_16  and  C_17
REMARK    5  A    between atoms: C_17  and  C_19
REMARK    6  A    between atoms: C_19  and  C_21
REMARK    7  A    between atoms: C_19  and  N_31
REMARK    8  A    between atoms: C_21  and  C_22
REMARK    9  A    between atoms: C_32  and  O_34
REMARK   10  A    between atoms: O_34  and  C_35
REMARK   11  A    between atoms: C_35  and  C_36
REMARK   12  A    between atoms: C_35  and  C_37
REMARK   13  A    between atoms: C_35  and  C_38
REMARK                            x       y       z     vdW  Elec       q    Type
REMARK                         _______ _______ _______ _____ _____    ______ ____
ROOT
ATOM      1  C   UNL     1       2.358  -2.438  -7.098  0.00  0.00    +0.189 C 
ENDROOT
BRANCH   1   2
ATOM      2  N   UNL     1       1.278  -2.884  -7.981  0.00  0.00    -0.268 N 
ATOM      3  C   UNL     1       0.356  -2.003  -8.417  0.00  0.00    +0.401 C 
ATOM      4  O   UNL     1       0.420  -0.838  -8.077  0.00  0.00    -0.226 OA
ATOM      5  H   UNL     1       1.227  -3.814  -8.253  0.00  0.00    +0.153 HD
BRANCH   3   6
ATOM      6  O   UNL     1      -0.636  -2.413  -9.229  0.00  0.00    -0.445 OA
BRANCH   6   7
ATOM      7  C   UNL     1      -1.578  -1.426  -9.652  0.00  0.00    +0.107 C 
ATOM      8  C   UNL     1      -0.849  -0.321 -10.420  0.00  0.00    +0.055 C 
ATOM      9  C   UNL     1      -2.623  -2.075 -10.562  0.00  0.00    +0.055 C 
ATOM     10  C   UNL     1      -2.271  -0.824  -8.428  0.00  0.00    +0.055 C 
ENDBRANCH   6   7
ENDBRANCH   3   6
ENDBRANCH   1   2
BRANCH   1  11
ATOM     11  C   UNL     1       1.769  -1.871  -5.831  0.00  0.00    +0.333 C 
ATOM     12  O   UNL     1       0.617  -1.506  -5.811  0.00  0.00    -0.248 OA
BRANCH  11  13
ATOM     13  O   UNL     1       2.524  -1.771  -4.726  0.00  0.00    -0.424 OA
BRANCH  13  19
ATOM     14  C   UNL     1      -1.422   0.372  -0.298  0.00  0.00    +0.013 C 
ATOM     15  C   UNL     1      -0.015  -0.128   0.037  0.00  0.00    +0.033 C 
ATOM     16  C   UNL     1       0.687  -0.538  -1.233  0.00  0.00    -0.001 A 
ATOM     17  C   UNL     1       0.398  -1.782  -1.774  0.00  0.00    +0.011 A 
ATOM     18  C   UNL     1       1.010  -2.197  -2.938  0.00  0.00    +0.047 A 
ATOM     19  C   UNL     1       1.922  -1.367  -3.576  0.00  0.00    +0.135 A 
ATOM     20  C   UNL     1       2.216  -0.126  -3.038  0.00  0.00    +0.093 A 
ATOM     21  C   UNL     1       1.600   0.289  -1.862  0.00  0.00    +0.139 A 
ATOM     22  O   UNL     1       1.931   1.509  -1.356  0.00  0.00    -0.425 OA
ATOM     23  C   UNL     1       1.186   1.984  -0.338  0.00  0.00    +0.316 C 
ATOM     24  O   UNL     1       0.865   3.148  -0.279  0.00  0.00    -0.250 OA
ATOM     25  C   UNL     1       0.771   0.991   0.726  0.00  0.00    +0.102 C 
ATOM     26  C   UNL     1       2.013   0.410   1.407  0.00  0.00    +0.020 C 
ENDBRANCH  13  19
ENDBRANCH  11  13
ENDBRANCH   1  11
BRANCH   1  27
ATOM     27  C   UNL     1       3.182  -1.359  -7.804  0.00  0.00    +0.067 C 
BRANCH  27  28
ATOM     28  C   UNL     1       3.871  -1.958  -9.003  0.00  0.00    -0.039 C 
ATOM     29  C   UNL     1       3.433  -1.944 -10.283  0.00  0.00    -0.001 A 
ATOM     30  C   UNL     1       2.231  -1.389 -10.917  0.00  0.00    +0.010 A 
ATOM     31  C   UNL     1       2.066  -1.537 -12.251  0.00  0.00    +0.001 A 
ATOM     32  C   UNL     1       3.011  -2.206 -13.041  0.00  0.00    +0.002 A 
ATOM     33  C   UNL     1       4.139  -2.742 -12.531  0.00  0.00    +0.026 A 
ATOM     34  C   UNL     1       4.416  -2.645 -11.140  0.00  0.00    +0.043 A 
ATOM     35  N   UNL     1       5.422  -3.075 -10.418  0.00  0.00    -0.380 N 
ATOM     36  C   UNL     1       5.194  -2.691  -9.020  0.00  0.00    +0.144 C 
ATOM     37  H   UNL     1       6.191  -3.563 -10.752  0.00  0.00    +0.160 HD
ENDBRANCH  27  28
ENDBRANCH   1  27
TORSDOF 8
