REMARK  Name = ZINC14077582
REMARK  5 active torsions:
REMARK  status: ('A' for Active; 'I' for Inactive)
REMARK    1  A    between atoms: C_4  and  C_7
REMARK    2  A    between atoms: C_8  and  C_22
REMARK    3  A    between atoms: C_10  and  S_13
REMARK    4  A    between atoms: S_13  and  C_14
REMARK    5  A    between atoms: C_15  and  C_20
REMARK                            x       y       z     vdW  Elec       q    Type
REMARK                         _______ _______ _______ _____ _____    ______ ____
ROOT
ATOM      1  C   UNL     1      -4.014   6.647  -0.174  0.00  0.00    +0.075 A 
ATOM      2  C   UNL     1      -4.138   5.284   0.014  0.00  0.00    +0.098 A 
ATOM      3  N   UNL     1      -2.908   4.791   0.256  0.00  0.00    -0.221 NA
ATOM      4  C   UNL     1      -2.032   5.766   0.239  0.00  0.00    +0.173 A 
ATOM      5  N   UNL     1      -2.672   6.939  -0.028  0.00  0.00    -0.332 N 
ATOM      6  H   UNL     1      -2.249   7.842  -0.104  0.00  0.00    +0.168 HD
ENDROOT
BRANCH   1  10
ATOM      7  C   UNL     1      -7.137   9.393  -1.028  0.00  0.00    +0.000 A 
ATOM      8  C   UNL     1      -6.213   9.686  -0.041  0.00  0.00    +0.001 A 
ATOM      9  C   UNL     1      -5.196   8.799   0.242  0.00  0.00    +0.010 A 
ATOM     10  C   UNL     1      -5.100   7.601  -0.471  0.00  0.00    +0.000 A 
ATOM     11  C   UNL     1      -6.033   7.314  -1.470  0.00  0.00    +0.010 A 
ATOM     12  C   UNL     1      -7.048   8.208  -1.738  0.00  0.00    +0.001 A 
ENDBRANCH   1  10
BRANCH   2  13
ATOM     13  C   UNL     1      -5.396   4.504  -0.046  0.00  0.00    +0.002 A 
ATOM     14  C   UNL     1      -6.554   4.995   0.557  0.00  0.00    +0.010 A 
ATOM     15  C   UNL     1      -7.724   4.266   0.493  0.00  0.00    +0.001 A 
ATOM     16  C   UNL     1      -7.747   3.046  -0.158  0.00  0.00    +0.000 A 
ATOM     17  C   UNL     1      -6.601   2.551  -0.754  0.00  0.00    +0.001 A 
ATOM     18  C   UNL     1      -5.426   3.273  -0.702  0.00  0.00    +0.010 A 
ENDBRANCH   2  13
BRANCH   4  19
ATOM     19  S   UNL     1      -0.300   5.588   0.510  0.00  0.00    -0.031 S 
BRANCH  19  20
ATOM     20  C   UNL     1      -0.211   3.849   0.784  0.00  0.00    +0.122 A 
ATOM     21  C   UNL     1       1.030   3.246   1.050  0.00  0.00    +0.084 A 
ATOM     22  C   UNL     1       1.076   1.864   1.264  0.00  0.00    +0.023 A 
ATOM     23  C   UNL     1      -0.109   1.150   1.204  0.00  0.00    +0.021 A 
ATOM     24  C   UNL     1      -1.291   1.814   0.932  0.00  0.00    +0.112 A 
ATOM     25  N   UNL     1      -1.314   3.118   0.739  0.00  0.00    -0.247 NA
BRANCH  21  26
ATOM     26  C   UNL     1       2.227   4.032   1.102  0.00  0.00    +0.102 C 
ATOM     27  N   UNL     1       3.176   4.654   1.143  0.00  0.00    -0.191 NA
ENDBRANCH  21  26
ENDBRANCH  19  20
ENDBRANCH   4  19
TORSDOF 5
