REMARK  Name = ZINC27100108
REMARK  11 active torsions:
REMARK  status: ('A' for Active; 'I' for Inactive)
REMARK    1  A    between atoms: C_1  and  C_2
REMARK    2  A    between atoms: C_2  and  O_3
REMARK    3  A    between atoms: O_3  and  C_4
REMARK    4  A    between atoms: C_4  and  C_6
REMARK    5  A    between atoms: C_9  and  O_12
REMARK    6  A    between atoms: O_12  and  C_13
REMARK    7  A    between atoms: C_14  and  C_38
REMARK    8  A    between atoms: C_22  and  O_37
REMARK    9  A    between atoms: C_23  and  C_24
REMARK   10  A    between atoms: C_24  and  N_25
REMARK   11  A    between atoms: C_30  and  C_32
REMARK                            x       y       z     vdW  Elec       q    Type
REMARK                         _______ _______ _______ _____ _____    ______ ____
ROOT
ATOM      1  C   UNL     1      -2.695  -1.529   5.453  0.00  0.00    +0.213 A 
ATOM      2  C   UNL     1      -2.170  -1.690   4.223  0.00  0.00    +0.148 A 
ATOM      3  O   UNL     1      -2.188  -0.724   3.295  0.00  0.00    -0.456 OA
ATOM      4  C   UNL     1      -2.741   0.485   3.521  0.00  0.00    +0.144 A 
ATOM      5  C   UNL     1      -3.314   0.767   4.773  0.00  0.00    +0.068 A 
ATOM      6  C   UNL     1      -3.300  -0.287   5.802  0.00  0.00    +0.235 A 
ATOM      7  O   UNL     1      -3.786  -0.105   6.905  0.00  0.00    -0.283 OA
ATOM      8  C   UNL     1      -3.883   2.017   5.021  0.00  0.00    +0.019 A 
ATOM      9  C   UNL     1      -3.877   2.970   4.043  0.00  0.00    +0.046 A 
ATOM     10  C   UNL     1      -3.306   2.701   2.801  0.00  0.00    +0.122 A 
ATOM     11  C   UNL     1      -2.737   1.466   2.539  0.00  0.00    +0.020 A 
ATOM     12  C   UNL     1      -1.535  -3.012   3.876  0.00  0.00    +0.090 C 
ENDROOT
BRANCH  10  13
ATOM     13  O   UNL     1      -3.306   3.659   1.838  0.00  0.00    -0.506 OA
ATOM     14  H   UNL     1      -2.856   3.452   0.856  0.00  0.00    +0.292 HD
ENDBRANCH  10  13
BRANCH   1  15
ATOM     15  O   UNL     1      -2.648  -2.545   6.357  0.00  0.00    -0.449 OA
BRANCH  15  19
ATOM     16  C   UNL     1      -5.793  -5.218   6.435  0.00  0.00    +0.059 A 
ATOM     17  C   UNL     1      -4.721  -5.371   7.319  0.00  0.00    +0.018 A 
ATOM     18  C   UNL     1      -3.674  -4.477   7.290  0.00  0.00    +0.047 A 
ATOM     19  C   UNL     1      -3.681  -3.424   6.383  0.00  0.00    +0.129 A 
ATOM     20  C   UNL     1      -4.748  -3.265   5.505  0.00  0.00    +0.047 A 
ATOM     21  C   UNL     1      -5.796  -4.157   5.524  0.00  0.00    +0.018 A 
BRANCH  16  22
ATOM     22  C   UNL     1      -6.916  -6.173   6.462  0.00  0.00    +0.339 C 
ATOM     23  O   UNL     1      -6.910  -7.094   7.254  0.00  0.00    -0.245 OA
BRANCH  22  24
ATOM     24  O   UNL     1      -7.948  -6.023   5.609  0.00  0.00    -0.461 OA
BRANCH  24  26
ATOM     25  C   UNL     1     -10.093  -6.670   4.654  0.00  0.00    +0.048 C 
ATOM     26  C   UNL     1      -9.018  -7.000   5.692  0.00  0.00    +0.229 C 
ENDBRANCH  24  26
ENDBRANCH  22  24
ENDBRANCH  16  22
ENDBRANCH  15  19
ENDBRANCH   1  15
BRANCH  11  27
ATOM     27  C   UNL     1      -2.122   1.186   1.192  0.00  0.00    -0.035 C 
BRANCH  27  28
ATOM     28  N   UNL     1      -0.701   1.559   1.216  0.00  0.00    +0.387 N 
ATOM     29  C   UNL     1      -0.046   1.059   2.431  0.00  0.00    -0.077 C 
ATOM     30  C   UNL     1       1.389   1.588   2.492  0.00  0.00    -0.019 C 
ATOM     31  C   UNL     1       2.153   1.123   1.250  0.00  0.00    -0.003 C 
ATOM     32  C   UNL     1       1.423   1.615  -0.003  0.00  0.00    -0.010 C 
ATOM     33  C   UNL     1      -0.013   1.086   0.008  0.00  0.00    -0.030 C 
ATOM     34  H   UNL     1      -0.639   2.657   1.228  0.00  0.00    -0.080 HD
BRANCH  33  35
ATOM     35  C   UNL     1      -0.741   1.585  -1.213  0.00  0.00    -0.024 A 
ATOM     36  C   UNL     1      -0.994   0.941  -2.379  0.00  0.00    +0.009 A 
ATOM     37  C   UNL     1      -1.691   1.602  -3.372  0.00  0.00    +0.008 A 
ATOM     38  C   UNL     1      -2.093   2.878  -3.155  0.00  0.00    +0.045 A 
ATOM     39  S   UNL     1      -1.489   3.180  -1.503  0.00  0.00    -0.103 S 
ENDBRANCH  33  35
ENDBRANCH  27  28
ENDBRANCH  11  27
TORSDOF 9
