REMARK  Name = ZINC57414210
REMARK  8 active torsions:
REMARK  status: ('A' for Active; 'I' for Inactive)
REMARK    1  A    between atoms: C_1  and  O_2
REMARK    2  A    between atoms: O_2  and  C_3
REMARK    3  A    between atoms: C_3  and  C_5
REMARK    4  A    between atoms: C_6  and  C_19
REMARK    5  A    between atoms: C_11  and  C_13
REMARK    6  A    between atoms: C_19  and  N_20
REMARK    7  A    between atoms: C_23  and  C_26
REMARK    8  A    between atoms: C_23  and  N_29
REMARK                            x       y       z     vdW  Elec       q    Type
REMARK                         _______ _______ _______ _____ _____    ______ ____
ROOT
ATOM      1  C   UNL     1       2.245  -2.160   0.674  0.00  0.00    +0.079 C 
ATOM      2  C   UNL     1       2.264  -2.826  -0.500  0.00  0.00    +0.038 C 
ATOM      3  N   UNL     1       2.302  -4.190  -0.536  0.00  0.00    -0.271 N 
ATOM      4  C   UNL     1       2.323  -4.962   0.558  0.00  0.00    +0.304 C 
ATOM      5  O   UNL     1       2.357  -6.170   0.425  0.00  0.00    -0.252 OA
ATOM      6  N   UNL     1       2.309  -4.443   1.802  0.00  0.00    -0.288 N 
ATOM      7  C   UNL     1       2.274  -2.978   1.949  0.00  0.00    +0.144 C 
ATOM      8  H   UNL     1       2.314  -4.625  -1.403  0.00  0.00    +0.156 HD
ATOM      9  H   UNL     1       2.324  -5.020   2.581  0.00  0.00    +0.151 HD
ENDROOT
BRANCH   7  10
ATOM     10  C   UNL     1       3.483  -2.557   2.744  0.00  0.00    -0.023 A 
ATOM     11  C   UNL     1       4.733  -3.048   2.413  0.00  0.00    +0.006 A 
ATOM     12  C   UNL     1       5.842  -2.663   3.142  0.00  0.00    +0.000 A 
ATOM     13  C   UNL     1       5.703  -1.786   4.201  0.00  0.00    +0.000 A 
ATOM     14  C   UNL     1       4.454  -1.294   4.532  0.00  0.00    +0.000 A 
ATOM     15  C   UNL     1       3.345  -1.677   3.800  0.00  0.00    +0.006 A 
ENDBRANCH   7  10
BRANCH   1  16
ATOM     16  C   UNL     1       2.206  -0.746   0.713  0.00  0.00    +0.339 C 
ATOM     17  O   UNL     1       3.220  -0.116   0.948  0.00  0.00    -0.245 OA
BRANCH  16  19
ATOM     18  C   UNL     1       1.078   1.331   0.544  0.00  0.00    +0.280 C 
ATOM     19  O   UNL     1       1.044  -0.097   0.490  0.00  0.00    -0.465 OA
ENDBRANCH  16  19
ENDBRANCH   1  16
BRANCH   2  20
ATOM     20  C   UNL     1       2.242  -2.051  -1.792  0.00  0.00    +0.135 C 
BRANCH  20  21
ATOM     21  N   UNL     1       3.502  -2.268  -2.515  0.00  0.00    -0.297 NA
ATOM     22  C   UNL     1       4.636  -1.697  -1.779  0.00  0.00    +0.084 C 
ATOM     23  C   UNL     1       5.943  -2.067  -2.485  0.00  0.00    +0.013 C 
ATOM     24  C   UNL     1       5.915  -1.525  -3.916  0.00  0.00    +0.015 C 
ATOM     25  C   UNL     1       4.697  -2.097  -4.647  0.00  0.00    +0.013 C 
ATOM     26  C   UNL     1       3.427  -1.726  -3.878  0.00  0.00    +0.084 C 
BRANCH  24  27
ATOM     27  N   UNL     1       7.142  -1.927  -4.618  0.00  0.00    +0.389 N 
ATOM     28  C   UNL     1       8.307  -1.371  -3.920  0.00  0.00    -0.077 C 
ATOM     29  C   UNL     1       9.591  -1.854  -4.598  0.00  0.00    -0.019 C 
ATOM     30  C   UNL     1       9.597  -1.387  -6.057  0.00  0.00    -0.004 C 
ATOM     31  C   UNL     1       8.339  -1.911  -6.755  0.00  0.00    -0.019 C 
ATOM     32  C   UNL     1       7.102  -1.426  -5.997  0.00  0.00    -0.077 C 
ATOM     33  H   UNL     1       7.207  -2.934  -4.628  0.00  0.00    -0.080 HD
ENDBRANCH  24  27
BRANCH  24  34
ATOM     34  C   UNL     1       5.822  -0.021  -3.884  0.00  0.00    +0.200 C 
ATOM     35  O   UNL     1       6.040   0.578  -2.852  0.00  0.00    -0.278 OA
ATOM     36  N   UNL     1       5.498   0.658  -5.002  0.00  0.00    -0.330 N 
ATOM     37  H   UNL     1       5.252   0.178  -5.807  0.00  0.00    +0.145 HD
ATOM     38  H   UNL     1       5.510   1.628  -5.000  0.00  0.00    +0.145 HD
ENDBRANCH  24  34
ENDBRANCH  20  21
ENDBRANCH   2  20
TORSDOF 7
