REMARK  Name = ZINC59157743
REMARK  13 active torsions:
REMARK  status: ('A' for Active; 'I' for Inactive)
REMARK    1  A    between atoms: C_1  and  C_2
REMARK    2  A    between atoms: C_2  and  C_3
REMARK    3  A    between atoms: C_3  and  N_4
REMARK    4  A    between atoms: N_4  and  C_5
REMARK    5  A    between atoms: N_4  and  C_8
REMARK    6  A    between atoms: C_5  and  C_6
REMARK    7  A    between atoms: C_6  and  C_7
REMARK    8  A    between atoms: C_11  and  C_14
REMARK    9  A    between atoms: N_16  and  N_17
REMARK   10  A    between atoms: C_18  and  C_19
REMARK   11  A    between atoms: C_20  and  O_27
REMARK   12  A    between atoms: C_22  and  O_26
REMARK   13  A    between atoms: C_24  and  O_25
REMARK                            x       y       z     vdW  Elec       q    Type
REMARK                         _______ _______ _______ _____ _____    ______ ____
ROOT
ATOM      1  C   UNL     1      -1.423  -4.790  -4.892  0.00  0.00    +0.263 C 
ATOM      2  O   UNL     1      -1.437  -4.176  -5.942  0.00  0.00    -0.268 OA
ATOM      3  N   UNL     1      -1.411  -6.138  -4.899  0.00  0.00    -0.203 N 
ATOM      4  H   UNL     1      -1.399  -6.628  -4.062  0.00  0.00    +0.178 HD
ENDROOT
BRANCH   1   8
ATOM      5  C   UNL     1      -1.415  -2.687  -1.203  0.00  0.00    +0.030 A 
ATOM      6  C   UNL     1      -1.431  -1.983  -2.404  0.00  0.00    +0.024 A 
ATOM      7  C   UNL     1      -1.433  -2.662  -3.601  0.00  0.00    +0.015 A 
ATOM      8  C   UNL     1      -1.420  -4.060  -3.611  0.00  0.00    +0.038 A 
ATOM      9  C   UNL     1      -1.404  -4.764  -2.403  0.00  0.00    +0.015 A 
ATOM     10  C   UNL     1      -1.397  -4.079  -1.209  0.00  0.00    +0.024 A 
BRANCH   5  11
ATOM     11  N   UNL     1      -1.413  -1.998   0.005  0.00  0.00    -0.330 N 
BRANCH  11  12
ATOM     12  C   UNL     1      -1.433  -0.534   0.013  0.00  0.00    +0.105 C 
BRANCH  12  14
ATOM     13  C   UNL     1      -0.019   1.526   0.010  0.00  0.00    +0.005 C 
ATOM     14  C   UNL     1       0.002  -0.004   0.002  0.00  0.00    +0.015 C 
ENDBRANCH  12  14
ENDBRANCH  11  12
BRANCH  11  15
ATOM     15  C   UNL     1      -1.391  -2.738   1.269  0.00  0.00    +0.105 C 
BRANCH  15  16
ATOM     16  C   UNL     1      -2.826  -3.015   1.723  0.00  0.00    +0.015 C 
ATOM     17  C   UNL     1      -2.803  -3.787   3.044  0.00  0.00    +0.005 C 
ENDBRANCH  15  16
ENDBRANCH  11  15
ENDBRANCH   5  11
ENDBRANCH   1   8
BRANCH   3  18
ATOM     18  N   UNL     1      -1.414  -6.832  -6.117  0.00  0.00    -0.187 NA
ATOM     19  C   UNL     1      -1.401  -8.131  -6.124  0.00  0.00    +0.145 C 
BRANCH  19  20
ATOM     20  C   UNL     1      -1.405  -8.860  -7.402  0.00  0.00    +0.078 A 
ATOM     21  C   UNL     1      -1.415  -8.156  -8.615  0.00  0.00    +0.132 A 
ATOM     22  C   UNL     1      -1.418  -8.848  -9.813  0.00  0.00    +0.091 A 
ATOM     23  C   UNL     1      -1.411 -10.236  -9.816  0.00  0.00    +0.124 A 
ATOM     24  C   UNL     1      -1.401 -10.940  -8.620  0.00  0.00    +0.091 A 
ATOM     25  C   UNL     1      -1.391 -10.262  -7.414  0.00  0.00    +0.132 A 
BRANCH  25  26
ATOM     26  O   UNL     1      -1.375 -10.952  -6.245  0.00  0.00    -0.506 OA
ATOM     27  H   UNL     1      -2.254 -11.161  -5.899  0.00  0.00    +0.292 HD
ENDBRANCH  25  26
BRANCH  23  28
ATOM     28  O   UNL     1      -1.414 -10.909 -10.996  0.00  0.00    -0.507 OA
ATOM     29  H   UNL     1      -0.532 -11.099 -11.343  0.00  0.00    +0.292 HD
ENDBRANCH  23  28
BRANCH  21  30
ATOM     30  O   UNL     1      -1.423  -6.798  -8.613  0.00  0.00    -0.506 OA
ATOM     31  H   UNL     1      -0.541  -6.399  -8.617  0.00  0.00    +0.292 HD
ENDBRANCH  21  30
ENDBRANCH  19  20
ENDBRANCH   3  18
TORSDOF 11
