REMARK  Name = ZINC04273384
REMARK  20 active torsions:
REMARK  status: ('A' for Active; 'I' for Inactive)
REMARK    1  A    between atoms: C_1  and  C_2
REMARK    2  A    between atoms: C_2  and  C_3
REMARK    3  A    between atoms: C_2  and  C_4
REMARK    4  A    between atoms: C_4  and  C_5
REMARK    5  A    between atoms: C_10  and  O_36
REMARK    6  A    between atoms: C_11  and  O_14
REMARK    7  A    between atoms: C_12  and  O_13
REMARK    8  A    between atoms: O_14  and  C_15
REMARK    9  A    between atoms: C_19  and  O_25
REMARK   10  A    between atoms: C_20  and  O_21
REMARK   11  A    between atoms: O_21  and  C_22
REMARK   12  A    between atoms: C_22  and  C_24
REMARK   13  A    between atoms: O_25  and  C_26
REMARK   14  A    between atoms: C_29  and  C_31
REMARK   15  A    between atoms: C_31  and  C_32
REMARK   16  A    between atoms: C_32  and  C_33
REMARK   17  A    between atoms: C_32  and  C_34
REMARK   18  A    between atoms: C_35  and  N_85
REMARK   19  A    between atoms: O_36  and  C_37
REMARK   20  A    between atoms: C_40  and  N_87
REMARK                            x       y       z     vdW  Elec       q    Type
REMARK                         _______ _______ _______ _____ _____    ______ ____
ROOT
ATOM      1  C   UNL     1       3.640   6.412   3.104  0.00  0.00    +0.176 A 
ATOM      2  C   UNL     1       2.911   7.594   3.207  0.00  0.00    -0.012 A 
ATOM      3  C   UNL     1       3.151   8.457   4.255  0.00  0.00    -0.040 A 
ATOM      4  C   UNL     1       4.126   8.154   5.194  0.00  0.00    +0.053 A 
ATOM      5  C   UNL     1       4.859   6.984   5.093  0.00  0.00    +0.166 A 
ATOM      6  C   UNL     1       4.616   6.106   4.043  0.00  0.00    +0.215 A 
ATOM      7  C   UNL     1       2.377   9.741   4.414  0.00  0.00    +0.017 C 
ATOM      8  C   UNL     1       1.677  10.095   3.102  0.00  0.00    -0.074 C 
ATOM      9  C   UNL     1       1.867   7.884   2.161  0.00  0.00    -0.034 C 
ATOM     10  C   UNL     1      -0.027   9.275   1.585  0.00  0.00    -0.095 C 
ATOM     11  N   UNL     1       0.926   8.903   2.655  0.00  0.00    +0.383 N 
ATOM     12  H   UNL     1       0.402   8.519   3.450  0.00  0.00    -0.081 HD
ENDROOT
BRANCH   5  13
ATOM     13  O   UNL     1       5.814   6.695   6.017  0.00  0.00    -0.491 OA
ATOM     14  C   UNL     1       6.008   7.644   7.067  0.00  0.00    +0.277 C 
ENDBRANCH   5  13
BRANCH   1  15
ATOM     15  O   UNL     1       3.398   5.556   2.076  0.00  0.00    -0.445 OA
BRANCH  15  21
ATOM     16  C   UNL     1       5.735   7.470  -1.745  0.00  0.00    -0.034 C 
ATOM     17  C   UNL     1       5.540   6.329  -0.781  0.00  0.00    -0.012 A 
ATOM     18  C   UNL     1       6.296   5.178  -0.854  0.00  0.00    -0.040 A 
ATOM     19  C   UNL     1       6.082   4.149   0.051  0.00  0.00    +0.053 A 
ATOM     20  C   UNL     1       5.113   4.269   1.034  0.00  0.00    +0.166 A 
ATOM     21  C   UNL     1       4.351   5.429   1.113  0.00  0.00    +0.211 A 
ATOM     22  C   UNL     1       4.567   6.456   0.205  0.00  0.00    +0.165 A 
ATOM     23  C   UNL     1       7.366   5.000  -1.901  0.00  0.00    +0.017 C 
ATOM     24  C   UNL     1       7.171   6.018  -3.025  0.00  0.00    -0.074 C 
ATOM     25  C   UNL     1       7.188   8.406  -3.438  0.00  0.00    -0.095 C 
ATOM     26  N   UNL     1       7.045   7.353  -2.406  0.00  0.00    +0.383 N 
ATOM     27  H   UNL     1       7.786   7.469  -1.705  0.00  0.00    -0.081 HD
BRANCH  22  28
ATOM     28  O   UNL     1       3.823   7.592   0.279  0.00  0.00    -0.503 OA
ATOM     29  H   UNL     1       3.010   7.565  -0.244  0.00  0.00    +0.292 HD
ENDBRANCH  22  28
BRANCH  20  30
ATOM     30  O   UNL     1       4.909   3.256   1.918  0.00  0.00    -0.491 OA
ATOM     31  C   UNL     1       5.675   2.065   1.728  0.00  0.00    +0.277 C 
ENDBRANCH  20  30
BRANCH  16  32
ATOM     32  C   UNL     1       5.684   8.793  -0.979  0.00  0.00    -0.008 C 
BRANCH  32  34
ATOM     33  C   UNL     1       8.092   8.703  -0.321  0.00  0.00    +0.007 C 
ATOM     34  C   UNL     1       6.655   8.736   0.202  0.00  0.00    -0.018 C 
ATOM     35  C   UNL     1       6.460   9.973   1.082  0.00  0.00    +0.007 C 
ENDBRANCH  32  34
ENDBRANCH  16  32
ENDBRANCH  15  21
ENDBRANCH   1  15
BRANCH   6  36
ATOM     36  O   UNL     1       5.330   4.953   3.936  0.00  0.00    -0.418 OA
BRANCH  36  37
ATOM     37  C   UNL     1       6.553   5.042   3.391  0.00  0.00    +0.309 C 
ATOM     38  O   UNL     1       6.934   6.094   2.926  0.00  0.00    -0.251 OA
ATOM     39  C   UNL     1       7.452   3.833   3.357  0.00  0.00    +0.136 C 
ENDBRANCH  36  37
ENDBRANCH   6  36
BRANCH   9  40
ATOM     40  C   UNL     1       1.089   6.603   1.851  0.00  0.00    -0.008 C 
BRANCH  40  41
ATOM     41  C   UNL     1       0.251   6.208   3.069  0.00  0.00    -0.018 C 
ATOM     42  C   UNL     1      -0.694   5.066   2.688  0.00  0.00    +0.007 C 
ATOM     43  C   UNL     1       1.176   5.750   4.198  0.00  0.00    +0.007 C 
ENDBRANCH  40  41
ENDBRANCH   9  40
TORSDOF 11
