REMARK  Name = ZINC39652725
REMARK  11 active torsions:
REMARK  status: ('A' for Active; 'I' for Inactive)
REMARK    1  A    between atoms: C_1  and  C_2
REMARK    2  A    between atoms: C_2  and  C_3
REMARK    3  A    between atoms: C_3  and  C_5
REMARK    4  A    between atoms: C_3  and  C_11
REMARK    5  A    between atoms: C_15  and  C_24
REMARK    6  A    between atoms: N_26  and  C_27
REMARK    7  A    between atoms: C_27  and  C_28
REMARK    8  A    between atoms: C_28  and  C_29
REMARK    9  A    between atoms: C_34  and  O_35
REMARK   10  A    between atoms: O_35  and  C_36
REMARK   11  A    between atoms: C_36  and  C_37
REMARK                            x       y       z     vdW  Elec       q    Type
REMARK                         _______ _______ _______ _____ _____    ______ ____
ROOT
ATOM      1  C   UNL     1      -0.090  -0.067   2.566  0.00  0.00    +0.223 C 
ATOM      2  O   UNL     1      -0.412  -0.818   3.462  0.00  0.00    -0.275 OA
ATOM      3  N   UNL     1      -0.326   1.255   2.678  0.00  0.00    -0.300 N 
ATOM      4  C   UNL     1       0.071   2.331   1.739  0.00  0.00    +0.121 C 
ATOM      5  C   UNL     1      -1.138   3.293   1.714  0.00  0.00    +0.100 C 
ATOM      6  C   UNL     1      -1.862   3.047   3.048  0.00  0.00    -0.004 C 
ATOM      7  C   UNL     1      -1.047   1.961   3.764  0.00  0.00    +0.115 C 
ATOM      8  C   UNL     1      -3.283   2.551   2.795  0.00  0.00    -0.010 C 
ATOM      9  C   UNL     1      -4.001   2.368   4.134  0.00  0.00    -0.082 C 
ATOM     10  N   UNL     1      -4.030   3.647   4.855  0.00  0.00    +0.379 N 
ATOM     11  C   UNL     1      -2.662   4.071   5.176  0.00  0.00    -0.082 C 
ATOM     12  C   UNL     1      -1.886   4.326   3.881  0.00  0.00    -0.010 C 
ATOM     13  H   UNL     1      -4.471   4.347   4.277  0.00  0.00    -0.086 HD
ATOM     14  H   UNL     1      -4.556   3.539   5.709  0.00  0.00    -0.086 HD
ENDROOT
BRANCH   5  15
ATOM     15  C   UNL     1      -2.044   2.968   0.555  0.00  0.00    +0.218 C 
ATOM     16  O   UNL     1      -2.133   1.826   0.157  0.00  0.00    -0.275 OA
ATOM     17  N   UNL     1      -2.755   3.946  -0.040  0.00  0.00    -0.315 N 
ATOM     18  H   UNL     1      -2.684   4.859   0.278  0.00  0.00    +0.149 HD
BRANCH  17  19
ATOM     19  C   UNL     1      -3.635   3.630  -1.167  0.00  0.00    +0.109 C 
BRANCH  19  20
ATOM     20  C   UNL     1      -4.320   4.908  -1.654  0.00  0.00    +0.057 C 
BRANCH  20  21
ATOM     21  C   UNL     1      -5.226   4.583  -2.813  0.00  0.00    -0.004 A 
ATOM     22  C   UNL     1      -4.768   4.722  -4.109  0.00  0.00    +0.007 A 
ATOM     23  C   UNL     1      -5.598   4.425  -5.173  0.00  0.00    +0.000 A 
ATOM     24  C   UNL     1      -6.889   3.986  -4.944  0.00  0.00    +0.004 A 
ATOM     25  C   UNL     1      -7.353   3.845  -3.651  0.00  0.00    +0.046 A 
ATOM     26  C   UNL     1      -6.519   4.138  -2.581  0.00  0.00    +0.124 A 
BRANCH  26  27
ATOM     27  O   UNL     1      -6.970   3.994  -1.307  0.00  0.00    -0.492 OA
BRANCH  27  28
ATOM     28  C   UNL     1      -8.312   3.531  -1.142  0.00  0.00    +0.225 C 
ATOM     29  C   UNL     1      -8.639   3.433   0.349  0.00  0.00    +0.048 C 
ENDBRANCH  27  28
ENDBRANCH  26  27
ENDBRANCH  20  21
ENDBRANCH  19  20
ENDBRANCH  17  19
ENDBRANCH   5  15
BRANCH   1  30
ATOM     30  C   UNL     1       0.573  -0.612   1.327  0.00  0.00    +0.105 C 
BRANCH  30  31
ATOM     31  C   UNL     1       2.062  -0.682   1.545  0.00  0.00    -0.036 A 
ATOM     32  C   UNL     1       2.576  -1.463   2.564  0.00  0.00    +0.004 A 
ATOM     33  C   UNL     1       3.943  -1.527   2.763  0.00  0.00    +0.000 A 
ATOM     34  C   UNL     1       4.795  -0.812   1.943  0.00  0.00    +0.000 A 
ATOM     35  C   UNL     1       4.282  -0.033   0.923  0.00  0.00    +0.000 A 
ATOM     36  C   UNL     1       2.916   0.029   0.721  0.00  0.00    +0.004 A 
ENDBRANCH  30  31
BRANCH  30  38
ATOM     37  C   UNL     1      -1.451  -1.924   0.675  0.00  0.00    +0.005 C 
ATOM     38  C   UNL     1       0.034  -2.014   1.035  0.00  0.00    +0.014 C 
ENDBRANCH  30  38
ENDBRANCH   1  30
TORSDOF 9
