REMARK  Name = ZINC09238479
REMARK  9 active torsions:
REMARK  status: ('A' for Active; 'I' for Inactive)
REMARK    1  A    between atoms: C_1  and  C_2
REMARK    2  A    between atoms: C_2  and  O_3
REMARK    3  A    between atoms: O_3  and  C_4
REMARK    4  A    between atoms: C_7  and  C_10
REMARK    5  A    between atoms: C_12  and  C_27
REMARK    6  A    between atoms: C_18  and  C_21
REMARK    7  A    between atoms: N_29  and  C_30
REMARK    8  A    between atoms: C_30  and  C_31
REMARK    9  A    between atoms: C_34  and  C_37
REMARK                            x       y       z     vdW  Elec       q    Type
REMARK                         _______ _______ _______ _____ _____    ______ ____
ROOT
ATOM      1  C   UNL     1       3.223   5.782  -0.394  0.00  0.00    +0.140 C 
ATOM      2  C   UNL     1       4.481   6.151  -1.190  0.00  0.00    +0.166 C 
ATOM      3  S   UNL     1       5.898   5.320  -0.411  0.00  0.00    -0.069 S 
ATOM      4  C   UNL     1       5.152   3.737  -0.176  0.00  0.00    +0.210 A 
ATOM      5  N   UNL     1       5.734   2.612   0.144  0.00  0.00    -0.121 NA
ATOM      6  N   UNL     1       4.851   1.680   0.244  0.00  0.00    -0.127 NA
ATOM      7  C   UNL     1       3.657   2.160  -0.022  0.00  0.00    +0.182 A 
ATOM      8  N   UNL     1       3.813   3.496  -0.302  0.00  0.00    -0.221 N 
ATOM      9  N   UNL     1       2.849   4.389  -0.644  0.00  0.00    -0.272 N 
ATOM     10  H   UNL     1       2.558   4.259  -1.601  0.00  0.00    +0.167 HD
ENDROOT
BRANCH   1  14
ATOM     11  C   UNL     1       0.007   8.340  -1.569  0.00  0.00    +0.121 A 
ATOM     12  C   UNL     1       0.710   8.599  -0.401  0.00  0.00    +0.046 A 
ATOM     13  C   UNL     1       1.749   7.771  -0.024  0.00  0.00    +0.009 A 
ATOM     14  C   UNL     1       2.089   6.684  -0.808  0.00  0.00    -0.024 A 
ATOM     15  C   UNL     1       1.393   6.427  -1.975  0.00  0.00    +0.009 A 
ATOM     16  C   UNL     1       0.349   7.249  -2.354  0.00  0.00    +0.046 A 
BRANCH  11  17
ATOM     17  O   UNL     1      -1.016   9.153  -1.942  0.00  0.00    -0.492 OA
BRANCH  17  19
ATOM     18  C   UNL     1      -2.807   9.845  -3.409  0.00  0.00    +0.048 C 
ATOM     19  C   UNL     1      -1.696   8.825  -3.155  0.00  0.00    +0.225 C 
ENDBRANCH  17  19
ENDBRANCH  11  17
ENDBRANCH   1  14
BRANCH   7  20
ATOM     20  C   UNL     1       2.385   1.407  -0.014  0.00  0.00    +0.021 A 
ATOM     21  C   UNL     1       1.167   2.088   0.002  0.00  0.00    +0.011 A 
ATOM     22  C   UNL     1      -0.017   1.379   0.010  0.00  0.00    +0.001 A 
ATOM     23  C   UNL     1       0.002  -0.004   0.002  0.00  0.00    +0.000 A 
ATOM     24  C   UNL     1       1.206  -0.686  -0.013  0.00  0.00    +0.001 A 
ATOM     25  C   UNL     1       2.397   0.011  -0.021  0.00  0.00    +0.011 A 
ENDBRANCH   7  20
BRANCH   2  26
ATOM     26  C   UNL     1       4.686   7.644  -1.161  0.00  0.00    +0.229 C 
ATOM     27  O   UNL     1       4.366   8.280  -0.179  0.00  0.00    -0.275 OA
ATOM     28  N   UNL     1       5.224   8.271  -2.225  0.00  0.00    -0.310 N 
ATOM     29  H   UNL     1       5.479   7.762  -3.010  0.00  0.00    +0.149 HD
BRANCH  28  30
ATOM     30  C   UNL     1       5.423   9.723  -2.196  0.00  0.00    +0.139 C 
BRANCH  30  31
ATOM     31  C   UNL     1       6.035  10.172  -3.498  0.00  0.00    -0.030 A 
ATOM     32  C   UNL     1       7.409  10.224  -3.634  0.00  0.00    +0.005 A 
ATOM     33  C   UNL     1       7.971  10.632  -4.830  0.00  0.00    +0.003 A 
ATOM     34  C   UNL     1       7.157  10.996  -5.886  0.00  0.00    -0.050 A 
ATOM     35  C   UNL     1       5.782  10.949  -5.749  0.00  0.00    +0.003 A 
ATOM     36  C   UNL     1       5.221  10.537  -4.555  0.00  0.00    +0.005 A 
ATOM     37  C   UNL     1       7.769  11.445  -7.188  0.00  0.00    +0.044 C 
ENDBRANCH  30  31
ENDBRANCH  28  30
ENDBRANCH   2  26
TORSDOF 7
