REMARK  Name = ZINC18176397
REMARK  6 active torsions:
REMARK  status: ('A' for Active; 'I' for Inactive)
REMARK    1  A    between atoms: C_8  and  N_9
REMARK    2  A    between atoms: C_14  and  C_16
REMARK    3  A    between atoms: C_16  and  C_17
REMARK    4  A    between atoms: C_17  and  C_18
REMARK    5  A    between atoms: C_18  and  O_19
REMARK    6  A    between atoms: N_22  and  C_25
REMARK                            x       y       z     vdW  Elec       q    Type
REMARK                         _______ _______ _______ _____ _____    ______ ____
ROOT
ATOM      1  C   UNL     1       1.121   2.000   0.219  0.00  0.00    +0.001 A 
ATOM      2  C   UNL     1      -0.043   1.279  -0.006  0.00  0.00    +0.001 A 
ATOM      3  C   UNL     1       0.009  -0.065  -0.310  0.00  0.00    +0.014 A 
ATOM      4  C   UNL     1       1.245  -0.707  -0.393  0.00  0.00    +0.046 A 
ATOM      5  C   UNL     1       2.426   0.030  -0.163  0.00  0.00    +0.000 A 
ATOM      6  C   UNL     1       2.353   1.384   0.142  0.00  0.00    +0.009 A 
ATOM      7  C   UNL     1       3.720  -0.678  -0.257  0.00  0.00    +0.059 C 
ATOM      8  C   UNL     1       4.908  -0.016  -0.045  0.00  0.00    +0.088 C 
ATOM      9  C   UNL     1       3.700  -2.109  -0.584  0.00  0.00    +0.259 C 
ATOM     10  O   UNL     1       4.749  -2.722  -0.670  0.00  0.00    -0.269 OA
ATOM     11  N   UNL     1       2.538  -2.748  -0.791  0.00  0.00    -0.201 N 
ATOM     12  C   UNL     1       1.345  -2.136  -0.713  0.00  0.00    +0.258 C 
ATOM     13  O   UNL     1       0.330  -2.776  -0.912  0.00  0.00    -0.269 OA
ENDROOT
BRANCH   8  14
ATOM     14  N   UNL     1       6.072  -0.716   0.043  0.00  0.00    -0.290 N 
ATOM     15  C   UNL     1       7.280  -0.044   0.139  0.00  0.00    +0.215 A 
ATOM     16  N   UNL     1       7.445   1.296   0.157  0.00  0.00    -0.246 N 
ATOM     17  H   UNL     1       6.747   1.968   0.105  0.00  0.00    +0.192 HD
ATOM     18  N   UNL     1       8.826   1.522   0.266  0.00  0.00    -0.156 NA
ATOM     19  C   UNL     1       9.403   0.350   0.307  0.00  0.00    +0.153 A 
ATOM     20  N   UNL     1       8.469  -0.598   0.235  0.00  0.00    -0.198 NA
ATOM     21  H   UNL     1       6.056  -1.686   0.039  0.00  0.00    +0.154 HD
BRANCH  19  22
ATOM     22  C   UNL     1      10.886   0.110   0.423  0.00  0.00    +0.080 C 
BRANCH  22  23
ATOM     23  C   UNL     1      11.275   0.024   1.900  0.00  0.00    +0.035 C 
BRANCH  23  24
ATOM     24  C   UNL     1      12.780  -0.221   2.018  0.00  0.00    +0.156 C 
BRANCH  24  25
ATOM     25  O   UNL     1      13.144  -0.301   3.397  0.00  0.00    -0.395 OA
ATOM     26  H   UNL     1      14.086  -0.455   3.548  0.00  0.00    +0.209 HD
ENDBRANCH  24  25
ENDBRANCH  23  24
ENDBRANCH  22  23
ENDBRANCH  19  22
ENDBRANCH   8  14
BRANCH  11  27
ATOM     27  C   UNL     1       2.570  -4.115  -1.100  0.00  0.00    +0.063 A 
ATOM     28  C   UNL     1       2.526  -5.060  -0.084  0.00  0.00    +0.025 A 
ATOM     29  C   UNL     1       2.558  -6.406  -0.392  0.00  0.00    +0.002 A 
ATOM     30  C   UNL     1       2.635  -6.813  -1.712  0.00  0.00    +0.002 A 
ATOM     31  C   UNL     1       2.680  -5.875  -2.727  0.00  0.00    +0.022 A 
ATOM     32  C   UNL     1       2.642  -4.527  -2.425  0.00  0.00    +0.063 A 
ATOM     33 CL   UNL     1       2.690  -3.350  -3.700  0.00  0.00    -0.082 Cl
ENDBRANCH  11  27
TORSDOF 6
