REMARK  Name = ZINC62001498
REMARK  10 active torsions:
REMARK  status: ('A' for Active; 'I' for Inactive)
REMARK    1  A    between atoms: C_1  and  C_2
REMARK    2  A    between atoms: C_5  and  O_29
REMARK    3  A    between atoms: C_6  and  C_10
REMARK    4  A    between atoms: C_7  and  O_8
REMARK    5  A    between atoms: O_8  and  C_9
REMARK    6  A    between atoms: C_10  and  C_11
REMARK    7  A    between atoms: C_12  and  C_13
REMARK    8  A    between atoms: C_12  and  C_14
REMARK    9  A    between atoms: C_14  and  C_15
REMARK   10  A    between atoms: C_15  and  C_16
REMARK                            x       y       z     vdW  Elec       q    Type
REMARK                         _______ _______ _______ _____ _____    ______ ____
ROOT
ATOM      1  C   UNL     1       1.452  -3.248   3.036  0.00  0.00    -0.023 C 
ATOM      2  C   UNL     1       1.904  -2.598   4.079  0.00  0.00    -0.076 C 
ATOM      3  C   UNL     1       0.943  -1.911   5.014  0.00  0.00    +0.039 C 
ENDROOT
BRANCH   1   4
ATOM      4  C   UNL     1      -0.033  -3.429   2.846  0.00  0.00    +0.069 C 
BRANCH   4  10
ATOM      5  C   UNL     1      -0.632  -7.391  -0.171  0.00  0.00    +0.048 C 
ATOM      6  C   UNL     1      -0.629  -6.797   1.214  0.00  0.00    -0.001 A 
ATOM      7  C   UNL     1      -0.907  -7.588   2.300  0.00  0.00    +0.014 A 
ATOM      8  C   UNL     1      -0.906  -7.044   3.590  0.00  0.00    +0.107 A 
ATOM      9  C   UNL     1      -0.620  -5.682   3.766  0.00  0.00    +0.138 A 
ATOM     10  C   UNL     1      -0.341  -4.892   2.663  0.00  0.00    +0.040 A 
ATOM     11  C   UNL     1      -0.339  -5.446   1.391  0.00  0.00    +0.130 A 
ATOM     12  C   UNL     1      -1.234  -8.124   4.529  0.00  0.00    +0.343 C 
ATOM     13  O   UNL     1      -1.319  -7.997   5.735  0.00  0.00    -0.245 OA
ATOM     14  O   UNL     1      -1.428  -9.274   3.861  0.00  0.00    -0.456 OA
ATOM     15  C   UNL     1      -1.247  -9.048   2.461  0.00  0.00    +0.269 C 
BRANCH  11  16
ATOM     16  O   UNL     1      -0.059  -4.668   0.316  0.00  0.00    -0.494 OA
ATOM     17  C   UNL     1      -1.162  -4.014  -0.317  0.00  0.00    +0.277 C 
ENDBRANCH  11  16
BRANCH   9  18
ATOM     18  O   UNL     1      -0.616  -5.141   5.010  0.00  0.00    -0.506 OA
ATOM     19  H   UNL     1       0.244  -5.175   5.451  0.00  0.00    +0.292 HD
ENDBRANCH   9  18
ENDBRANCH   4  10
ENDBRANCH   1   4
BRANCH   2  20
ATOM     20  C   UNL     1       3.386  -2.536   4.344  0.00  0.00    +0.039 C 
BRANCH  20  21
ATOM     21  C   UNL     1       3.958  -1.247   3.749  0.00  0.00    +0.100 C 
BRANCH  21  22
ATOM     22  C   UNL     1       5.440  -1.185   4.014  0.00  0.00    +0.219 C 
ATOM     23  O   UNL     1       5.986  -2.084   4.618  0.00  0.00    -0.275 OA
ATOM     24  N   UNL     1       6.159  -0.132   3.579  0.00  0.00    -0.265 N 
ATOM     25  C   UNL     1       7.526  -0.075   3.823  0.00  0.00    +0.165 A 
ATOM     26  N   UNL     1       8.282  -0.949   4.450  0.00  0.00    -0.229 NA
ATOM     27  C   UNL     1       9.593  -0.761   4.610  0.00  0.00    +0.054 A 
ATOM     28  C   UNL     1      10.067   0.375   4.065  0.00  0.00    +0.014 A 
ATOM     29  S   UNL     1       8.621   1.129   3.381  0.00  0.00    -0.057 S 
ATOM     30  C   UNL     1      11.500   0.840   4.026  0.00  0.00    +0.044 C 
ATOM     31  C   UNL     1      11.900   1.182   5.474  0.00  0.00    +0.005 C 
ATOM     32  C   UNL     1      12.203  -0.084   6.242  0.00  0.00    +0.001 C 
ATOM     33  C   UNL     1      11.029  -0.956   6.603  0.00  0.00    +0.006 C 
ATOM     34  C   UNL     1      10.491  -1.723   5.390  0.00  0.00    +0.056 C 
ATOM     35  H   UNL     1       5.722   0.587   3.095  0.00  0.00    +0.157 HD
ENDBRANCH  21  22
ENDBRANCH  20  21
ENDBRANCH   2  20
TORSDOF 7
