REMARK  Name = ZINC04977922
REMARK  4 active torsions:
REMARK  status: ('A' for Active; 'I' for Inactive)
REMARK    1  A    between atoms: C_9  and  C_11
REMARK    2  A    between atoms: C_11  and  C_21
REMARK    3  A    between atoms: C_12  and  C_13
REMARK    4  A    between atoms: C_16  and  O_20
REMARK                            x       y       z     vdW  Elec       q    Type
REMARK                         _______ _______ _______ _____ _____    ______ ____
ROOT
ATOM      1  C   UNL     1       2.373   6.108  -0.091  0.00  0.00    +0.094 C 
ATOM      2  C   UNL     1       2.396   4.746   0.004  0.00  0.00    +0.030 C 
ENDROOT
BRANCH   1  11
ATOM      3  C   UNL     1       7.171   9.677  -0.596  0.00  0.00    +0.002 A 
ATOM      4  C   UNL     1       7.848   8.466  -0.545  0.00  0.00    +0.002 A 
ATOM      5  C   UNL     1       7.164   7.290  -0.426  0.00  0.00    +0.030 A 
ATOM      6  C   UNL     1       5.767   7.300  -0.354  0.00  0.00    +0.089 A 
ATOM      7  C   UNL     1       5.082   8.527  -0.405  0.00  0.00    +0.066 A 
ATOM      8  C   UNL     1       5.794   9.711  -0.526  0.00  0.00    +0.028 A 
ATOM      9  N   UNL     1       3.737   8.222  -0.313  0.00  0.00    -0.337 N 
ATOM     10  H   UNL     1       2.979   8.874  -0.319  0.00  0.00    +0.167 HD
ATOM     11  C   UNL     1       3.636   6.859  -0.211  0.00  0.00    +0.150 A 
ATOM     12  N   UNL     1       4.835   6.324  -0.230  0.00  0.00    -0.227 NA
ENDBRANCH   1  11
BRANCH   2  13
ATOM     13  C   UNL     1       1.141   3.989  -0.027  0.00  0.00    -0.022 A 
ATOM     14  C   UNL     1       1.038   2.771   0.659  0.00  0.00    +0.011 A 
ATOM     15  C   UNL     1      -0.143   2.064   0.627  0.00  0.00    +0.047 A 
ATOM     16  C   UNL     1      -1.234   2.558  -0.079  0.00  0.00    +0.131 A 
ATOM     17  C   UNL     1      -1.135   3.764  -0.767  0.00  0.00    +0.060 A 
ATOM     18  C   UNL     1       0.041   4.479  -0.742  0.00  0.00    +0.027 A 
ATOM     19 BR   UNL     1      -2.622   4.423  -1.732  0.00  0.00    -0.047 Br
BRANCH  16  20
ATOM     20  O   UNL     1      -2.397   1.859  -0.102  0.00  0.00    -0.506 OA
ATOM     21  H   UNL     1      -2.460   1.224  -0.829  0.00  0.00    +0.292 HD
ENDBRANCH  16  20
ENDBRANCH   2  13
BRANCH   1  22
ATOM     22  C   UNL     1       1.124   6.806  -0.075  0.00  0.00    +0.103 C 
ATOM     23  N   UNL     1       0.132   7.361  -0.063  0.00  0.00    -0.191 NA
ENDBRANCH   1  22
TORSDOF 4
