REMARK  Name = ZINC00036374
REMARK  5 active torsions:
REMARK  status: ('A' for Active; 'I' for Inactive)
REMARK    1  A    between atoms: C_1  and  C_2
REMARK    2  A    between atoms: C_2  and  C_3
REMARK    3  A    between atoms: C_8  and  N_9
REMARK    4  A    between atoms: C_12  and  C_15
REMARK    5  A    between atoms: C_16  and  C_23
REMARK                            x       y       z     vdW  Elec       q    Type
REMARK                         _______ _______ _______ _____ _____    ______ ____
ROOT
ATOM      1  N   UNL     1       4.302  -0.089   1.748  0.00  0.00    -0.294 N 
ATOM      2  C   UNL     1       3.365   0.761   2.315  0.00  0.00    +0.163 A 
ATOM      3  N   UNL     1       2.091   0.925   2.006  0.00  0.00    -0.223 NA
ATOM      4  C   UNL     1       1.331   1.799   2.662  0.00  0.00    +0.099 A 
ATOM      5  C   UNL     1       1.879   2.530   3.680  0.00  0.00    +0.078 A 
ATOM      6  S   UNL     1       3.559   1.918   3.663  0.00  0.00    -0.060 S 
ATOM      7  H   UNL     1       4.026  -0.745   1.089  0.00  0.00    +0.154 HD
ENDROOT
BRANCH   4   8
ATOM      8  C   UNL     1      -0.092   1.974   2.297  0.00  0.00    +0.095 A 
ATOM      9  C   UNL     1      -0.649   1.717   1.087  0.00  0.00    +0.067 A 
ATOM     10  N   UNL     1      -1.955   2.006   1.156  0.00  0.00    -0.226 NA
ATOM     11  C   UNL     1      -2.238   2.423   2.357  0.00  0.00    +0.178 A 
ATOM     12  N   UNL     1      -1.111   2.435   3.137  0.00  0.00    -0.292 N 
ATOM     13  C   UNL     1      -1.258   2.861   4.439  0.00  0.00    +0.101 A 
ATOM     14  C   UNL     1      -2.447   3.241   4.902  0.00  0.00    +0.067 A 
ATOM     15  S   UNL     1      -3.491   3.014   3.471  0.00  0.00    -0.058 S 
ATOM     16  C   UNL     1       0.079   1.202  -0.129  0.00  0.00    +0.068 C 
ENDBRANCH   4   8
BRANCH   1  22
ATOM     17  C   UNL     1       6.488  -1.091   1.961  0.00  0.00    -0.026 A 
ATOM     18  C   UNL     1       7.816  -0.997   2.329  0.00  0.00    +0.005 A 
ATOM     19  C   UNL     1       8.304   0.178   2.870  0.00  0.00    +0.000 A 
ATOM     20  C   UNL     1       7.465   1.265   3.040  0.00  0.00    +0.002 A 
ATOM     21  C   UNL     1       6.138   1.180   2.669  0.00  0.00    +0.023 A 
ATOM     22  C   UNL     1       5.645   0.001   2.125  0.00  0.00    +0.036 A 
BRANCH  17  24
ATOM     23  C   UNL     1       6.001  -2.296  -0.151  0.00  0.00    +0.009 C 
ATOM     24  C   UNL     1       5.956  -2.374   1.377  0.00  0.00    +0.033 C 
ENDBRANCH  17  24
ENDBRANCH   1  22
TORSDOF 3
