REMARK  Name = ZINC39674500
REMARK  9 active torsions:
REMARK  status: ('A' for Active; 'I' for Inactive)
REMARK    1  A    between atoms: C_1  and  C_2
REMARK    2  A    between atoms: C_5  and  C_9
REMARK    3  A    between atoms: C_6  and  C_8
REMARK    4  A    between atoms: C_13  and  C_22
REMARK    5  A    between atoms: N_24  and  C_25
REMARK    6  A    between atoms: C_25  and  C_27
REMARK    7  A    between atoms: C_25  and  C_28
REMARK    8  A    between atoms: C_29  and  C_35
REMARK    9  A    between atoms: C_32  and  C_34
REMARK                            x       y       z     vdW  Elec       q    Type
REMARK                         _______ _______ _______ _____ _____    ______ ____
ROOT
ATOM      1  C   UNL     1      -0.739  -6.493   0.042  0.00  0.00    +0.247 C 
ATOM      2  O   UNL     1      -0.648  -7.344   0.906  0.00  0.00    -0.270 OA
ATOM      3  N   UNL     1      -0.593  -6.831  -1.254  0.00  0.00    -0.296 N 
ATOM      4  C   UNL     1      -0.570  -5.930  -2.430  0.00  0.00    +0.121 C 
ATOM      5  C   UNL     1       0.520  -6.519  -3.353  0.00  0.00    +0.100 C 
ATOM      6  C   UNL     1       0.614  -8.001  -2.953  0.00  0.00    -0.004 C 
ATOM      7  C   UNL     1      -0.411  -8.187  -1.825  0.00  0.00    +0.115 C 
ATOM      8  C   UNL     1       2.015  -8.322  -2.441  0.00  0.00    -0.010 C 
ATOM      9  C   UNL     1       2.101  -9.813  -2.104  0.00  0.00    -0.082 C 
ATOM     10  N   UNL     1       1.802 -10.606  -3.302  0.00  0.00    +0.379 N 
ATOM     11  C   UNL     1       0.420 -10.361  -3.733  0.00  0.00    -0.082 C 
ATOM     12  C   UNL     1       0.264  -8.893  -4.140  0.00  0.00    -0.010 C 
ATOM     13  H   UNL     1       2.435 -10.346  -4.043  0.00  0.00    -0.086 HD
ATOM     14  H   UNL     1       1.918 -11.586  -3.093  0.00  0.00    -0.086 HD
ENDROOT
BRANCH   1  19
ATOM     15  C   UNL     1      -1.789  -1.024   1.490  0.00  0.00    +0.044 C 
ATOM     16  C   UNL     1      -1.514  -2.456   1.111  0.00  0.00    -0.050 A 
ATOM     17  C   UNL     1      -0.448  -2.757   0.281  0.00  0.00    +0.004 A 
ATOM     18  C   UNL     1      -0.191  -4.066  -0.070  0.00  0.00    +0.013 A 
ATOM     19  C   UNL     1      -1.008  -5.088   0.414  0.00  0.00    +0.040 A 
ATOM     20  C   UNL     1      -2.082  -4.779   1.251  0.00  0.00    -0.038 A 
ATOM     21  C   UNL     1      -2.325  -3.466   1.598  0.00  0.00    +0.007 A 
ATOM     22  C   UNL     1      -2.970  -5.876   1.778  0.00  0.00    +0.044 C 
ENDBRANCH   1  19
BRANCH   5  23
ATOM     23  C   UNL     1       0.112  -6.388  -4.798  0.00  0.00    +0.219 C 
ATOM     24  O   UNL     1      -1.058  -6.464  -5.107  0.00  0.00    -0.275 OA
ATOM     25  N   UNL     1       1.048  -6.187  -5.747  0.00  0.00    -0.309 N 
ATOM     26  H   UNL     1       1.984  -6.126  -5.500  0.00  0.00    +0.149 HD
BRANCH  25  27
ATOM     27  C   UNL     1       0.651  -6.060  -7.151  0.00  0.00    +0.100 C 
ATOM     28  C   UNL     1       0.349  -4.593  -7.465  0.00  0.00    +0.033 C 
BRANCH  27  29
ATOM     29  C   UNL     1       1.772  -6.542  -8.036  0.00  0.00    -0.001 C 
ATOM     30  C   UNL     1       1.741  -7.523  -8.940  0.00  0.00    +0.063 C 
ATOM     31  N   UNL     1       2.946  -7.664  -9.537  0.00  0.00    -0.159 NA
ATOM     32  N   UNL     1       3.809  -6.878  -9.138  0.00  0.00    -0.180 NA
ATOM     33  C   UNL     1       3.196  -6.021  -8.109  0.00  0.00    +0.154 C 
ATOM     34  C   UNL     1       3.907  -6.198  -6.766  0.00  0.00    +0.039 C 
ATOM     35  C   UNL     1       0.528  -8.361  -9.253  0.00  0.00    +0.067 C 
ENDBRANCH  27  29
ENDBRANCH  25  27
ENDBRANCH   5  23
TORSDOF 4
