REMARK  Name = ZINC23007585
REMARK  6 active torsions:
REMARK  status: ('A' for Active; 'I' for Inactive)
REMARK    1  A    between atoms: C_1  and  C_2
REMARK    2  A    between atoms: C_5  and  C_9
REMARK    3  A    between atoms: C_6  and  C_8
REMARK    4  A    between atoms: C_11  and  C_14
REMARK    5  A    between atoms: C_14  and  S_15
REMARK    6  A    between atoms: S_15  and  C_16
REMARK                            x       y       z     vdW  Elec       q    Type
REMARK                         _______ _______ _______ _____ _____    ______ ____
ROOT
ATOM      1  C   UNL     1      -4.942   5.455   0.001  0.00  0.00    +0.136 C 
ENDROOT
BRANCH   1   4
ATOM      2  C   UNL     1      -6.837   8.436   0.773  0.00  0.00    +0.228 A 
ATOM      3  N   UNL     1      -6.137   7.388   1.137  0.00  0.00    -0.213 NA
ATOM      4  C   UNL     1      -5.762   6.719   0.036  0.00  0.00    +0.090 A 
ATOM      5  C   UNL     1      -6.244   7.381  -1.032  0.00  0.00    +0.221 A 
ATOM      6  O   UNL     1      -6.919   8.451  -0.569  0.00  0.00    -0.443 OA
BRANCH   2  11
ATOM      7  C   UNL     1      -9.163  12.320   4.325  0.00  0.00    +0.044 C 
ATOM      8  C   UNL     1      -8.555  11.303   3.395  0.00  0.00    -0.050 A 
ATOM      9  C   UNL     1      -7.946  10.173   3.913  0.00  0.00    +0.004 A 
ATOM     10  C   UNL     1      -7.386   9.238   3.067  0.00  0.00    +0.014 A 
ATOM     11  C   UNL     1      -7.435   9.434   1.686  0.00  0.00    +0.040 A 
ATOM     12  C   UNL     1      -8.045  10.578   1.170  0.00  0.00    -0.038 A 
ATOM     13  C   UNL     1      -8.606  11.503   2.027  0.00  0.00    +0.007 A 
ATOM     14  C   UNL     1      -8.097  10.800  -0.320  0.00  0.00    +0.044 C 
ENDBRANCH   2  11
ENDBRANCH   1   4
BRANCH   1  15
ATOM     15  S   UNL     1      -6.044   4.020   0.064  0.00  0.00    -0.080 S 
BRANCH  15  16
ATOM     16  C   UNL     1      -4.855   2.720   0.011  0.00  0.00    +0.191 A 
ATOM     17  N   UNL     1      -5.268   1.458   0.039  0.00  0.00    -0.207 NA
ATOM     18  C   UNL     1      -4.424   0.442   0.002  0.00  0.00    +0.129 A 
ATOM     19  C   UNL     1      -3.027   0.699  -0.076  0.00  0.00    +0.047 A 
ATOM     20  C   UNL     1      -1.913  -0.234  -0.121  0.00  0.00    +0.021 A 
ATOM     21  C   UNL     1      -0.662   0.243  -0.187  0.00  0.00    +0.048 A 
ATOM     22  S   UNL     1      -0.890   2.011  -0.185  0.00  0.00    -0.077 S 
ATOM     23  C   UNL     1      -2.660   2.062  -0.096  0.00  0.00    +0.114 A 
ATOM     24  N   UNL     1      -3.565   3.020  -0.056  0.00  0.00    -0.215 NA
ATOM     25  N   UNL     1      -4.894  -0.859   0.033  0.00  0.00    -0.343 N 
ATOM     26  H   UNL     1      -4.187  -1.700   0.002  0.00  0.00    +0.144 HD
ATOM     27  H   UNL     1      -5.976  -1.051   0.089  0.00  0.00    +0.144 HD
ENDBRANCH  15  16
ENDBRANCH   1  15
TORSDOF 4
