REMARK  Name = ZINC02216697
REMARK  8 active torsions:
REMARK  status: ('A' for Active; 'I' for Inactive)
REMARK    1  A    between atoms: C_1  and  C_2
REMARK    2  A    between atoms: C_2  and  O_3
REMARK    3  A    between atoms: O_3  and  C_4
REMARK    4  A    between atoms: C_4  and  C_6
REMARK    5  A    between atoms: C_7  and  N_33
REMARK    6  A    between atoms: C_12  and  C_13
REMARK    7  A    between atoms: C_21  and  C_30
REMARK    8  A    between atoms: C_22  and  C_24
REMARK                            x       y       z     vdW  Elec       q    Type
REMARK                         _______ _______ _______ _____ _____    ______ ____
ROOT
ATOM      1  C   UNL     1      -0.049   1.182   2.289  0.00  0.00    +0.087 C 
ATOM      2  C   UNL     1       1.040   1.950   2.047  0.00  0.00    +0.115 C 
ATOM      3  N   UNL     1       2.271   1.439   1.625  0.00  0.00    -0.257 N 
ATOM      4  C   UNL     1       3.348   2.213   1.387  0.00  0.00    +0.271 A 
ATOM      5  O   UNL     1       3.293   3.420   1.533  0.00  0.00    -0.266 OA
ATOM      6  C   UNL     1       4.590   1.566   0.947  0.00  0.00    +0.079 A 
ATOM      7  C   UNL     1       5.792   2.120   0.648  0.00  0.00    +0.028 C 
ATOM      8  S   UNL     1       4.093  -0.148   0.911  0.00  0.00    -0.065 S 
ATOM      9  C   UNL     1       2.406   0.078   1.438  0.00  0.00    +0.099 A 
ATOM     10  C   UNL     1       1.411  -0.826   1.637  0.00  0.00    +0.057 C 
ATOM     11  C   UNL     1       0.059  -0.317   2.096  0.00  0.00    +0.097 C 
ENDROOT
BRANCH   7  12
ATOM     12  C   UNL     1       6.975   1.264   0.479  0.00  0.00    -0.024 A 
ATOM     13  C   UNL     1       6.918  -0.090   0.825  0.00  0.00    +0.008 A 
ATOM     14  C   UNL     1       8.030  -0.888   0.658  0.00  0.00    +0.001 A 
ATOM     15  C   UNL     1       9.204  -0.349   0.160  0.00  0.00    +0.000 A 
ATOM     16  C   UNL     1       9.270   0.991  -0.179  0.00  0.00    +0.001 A 
ATOM     17  C   UNL     1       8.166   1.801  -0.024  0.00  0.00    +0.008 A 
ENDBRANCH   7  12
BRANCH  11  18
ATOM     18  C   UNL     1      -0.278  -0.987   3.403  0.00  0.00    -0.035 A 
ATOM     19  C   UNL     1       0.480  -0.726   4.529  0.00  0.00    +0.004 A 
ATOM     20  C   UNL     1       0.168  -1.337   5.729  0.00  0.00    +0.000 A 
ATOM     21  C   UNL     1      -0.896  -2.216   5.801  0.00  0.00    +0.000 A 
ATOM     22  C   UNL     1      -1.652  -2.480   4.674  0.00  0.00    +0.000 A 
ATOM     23  C   UNL     1      -1.343  -1.866   3.475  0.00  0.00    +0.004 A 
ENDBRANCH  11  18
BRANCH  10  24
ATOM     24  C   UNL     1       1.631  -2.196   1.425  0.00  0.00    +0.241 C 
ATOM     25  O   UNL     1       2.725  -2.588   1.056  0.00  0.00    -0.271 OA
ATOM     26  N   UNL     1       0.632  -3.078   1.629  0.00  0.00    -0.326 N 
ATOM     27  H   UNL     1      -0.238  -2.766   1.922  0.00  0.00    +0.145 HD
ATOM     28  H   UNL     1       0.784  -4.025   1.482  0.00  0.00    +0.145 HD
ENDBRANCH  10  24
BRANCH   2  29
ATOM     29  N   UNL     1       0.929   3.304   2.226  0.00  0.00    -0.344 N 
ATOM     30  H   UNL     1       0.392   3.654   2.953  0.00  0.00    +0.144 HD
ATOM     31  H   UNL     1       1.387   3.912   1.625  0.00  0.00    +0.144 HD
ENDBRANCH   2  29
BRANCH   1  32
ATOM     32  C   UNL     1      -1.256   1.764   2.706  0.00  0.00    +0.339 C 
ATOM     33  O   UNL     1      -1.343   2.974   2.813  0.00  0.00    -0.245 OA
BRANCH  32  34
ATOM     34  O   UNL     1      -2.320   0.982   2.989  0.00  0.00    -0.462 OA
BRANCH  34  36
ATOM     35  C   UNL     1      -4.604   0.601   3.681  0.00  0.00    +0.048 C 
ATOM     36  C   UNL     1      -3.517   1.642   3.407  0.00  0.00    +0.229 C 
ENDBRANCH  34  36
ENDBRANCH  32  34
ENDBRANCH   1  32
TORSDOF 7
