REMARK  Name = ZINC38786810
REMARK  7 active torsions:
REMARK  status: ('A' for Active; 'I' for Inactive)
REMARK    1  A    between atoms: C_1  and  S_2
REMARK    2  A    between atoms: S_2  and  C_3
REMARK    3  A    between atoms: C_3  and  C_4
REMARK    4  A    between atoms: C_4  and  C_5
REMARK    5  A    between atoms: C_5  and  C_7
REMARK    6  A    between atoms: C_5  and  N_24
REMARK    7  A    between atoms: C_25  and  C_27
REMARK                            x       y       z     vdW  Elec       q    Type
REMARK                         _______ _______ _______ _____ _____    ______ ____
ROOT
ATOM      1  C   UNL     1       1.623  -3.815   3.115  0.00  0.00    +0.236 C 
ATOM      2  O   UNL     1       2.616  -4.503   3.232  0.00  0.00    -0.274 OA
ATOM      3  N   UNL     1       0.401  -4.382   3.167  0.00  0.00    -0.300 N 
ATOM      4  C   UNL     1      -0.805  -3.583   2.909  0.00  0.00    +0.106 C 
ATOM      5  C   UNL     1      -1.768  -3.752   4.089  0.00  0.00    +0.009 C 
ATOM      6  C   UNL     1      -2.034  -5.240   4.318  0.00  0.00    -0.037 C 
ATOM      7  C   UNL     1      -0.725  -5.955   4.655  0.00  0.00    +0.009 C 
ATOM      8  C   UNL     1       0.251  -5.810   3.476  0.00  0.00    +0.106 C 
ATOM      9  C   UNL     1      -3.027  -5.414   5.468  0.00  0.00    +0.140 C 
ATOM     10  C   UNL     1      -4.332  -4.789   4.983  0.00  0.00    +0.042 C 
ATOM     11  N   UNL     1      -4.646  -3.908   5.850  0.00  0.00    -0.243 NA
ATOM     12  C   UNL     1      -3.691  -3.782   6.805  0.00  0.00    +0.216 C 
ATOM     13  N   UNL     1      -2.685  -4.616   6.646  0.00  0.00    -0.264 NA
ATOM     14  C   UNL     1      -4.932  -5.158   3.650  0.00  0.00    +0.034 C 
ATOM     15  C   UNL     1      -3.781  -5.073   2.630  0.00  0.00    -0.076 C 
ATOM     16  N   UNL     1      -2.620  -5.829   3.105  0.00  0.00    +0.385 N 
ATOM     17  H   UNL     1      -1.921  -5.846   2.378  0.00  0.00    -0.085 HD
ATOM     18  H   UNL     1      -2.906  -6.775   3.305  0.00  0.00    -0.085 HD
ENDROOT
BRANCH   1  19
ATOM     19  C   UNL     1       1.757  -2.328   2.912  0.00  0.00    +0.160 C 
BRANCH  19  20
ATOM     20  N   UNL     1       3.051  -1.878   3.431  0.00  0.00    -0.300 N 
ATOM     21  C   UNL     1       3.210  -0.600   3.828  0.00  0.00    +0.245 C 
ATOM     22  O   UNL     1       2.280   0.179   3.755  0.00  0.00    -0.270 OA
ATOM     23  H   UNL     1       3.793  -2.501   3.489  0.00  0.00    +0.150 HD
BRANCH  21  24
ATOM     24  C   UNL     1       4.516  -0.147   4.352  0.00  0.00    +0.037 A 
ATOM     25  C   UNL     1       5.587  -1.038   4.431  0.00  0.00    +0.014 A 
ATOM     26  C   UNL     1       6.803  -0.609   4.920  0.00  0.00    +0.021 A 
ATOM     27  C   UNL     1       6.962   0.704   5.332  0.00  0.00    +0.041 A 
ATOM     28  C   UNL     1       5.903   1.593   5.256  0.00  0.00    +0.021 A 
ATOM     29  C   UNL     1       4.684   1.177   4.763  0.00  0.00    +0.014 A 
ATOM     30 CL   UNL     1       8.496   1.236   5.948  0.00  0.00    -0.084 Cl
ENDBRANCH  21  24
ENDBRANCH  19  20
BRANCH  19  31
ATOM     31  C   UNL     1       1.667  -2.007   1.419  0.00  0.00    +0.042 C 
BRANCH  31  32
ATOM     32  C   UNL     1       1.660  -0.490   1.223  0.00  0.00    +0.071 C 
BRANCH  32  34
ATOM     33  C   UNL     1       1.556   1.703  -0.608  0.00  0.00    +0.084 C 
ATOM     34  S   UNL     1       1.553  -0.110  -0.548  0.00  0.00    -0.164 S 
ENDBRANCH  32  34
ENDBRANCH  31  32
ENDBRANCH  19  31
ENDBRANCH   1  19
TORSDOF 6
