REMARK  Name = ZINC36029807
REMARK  12 active torsions:
REMARK  status: ('A' for Active; 'I' for Inactive)
REMARK    1  A    between atoms: C_1  and  C_2
REMARK    2  A    between atoms: C_2  and  C_3
REMARK    3  A    between atoms: C_3  and  C_5
REMARK    4  A    between atoms: C_3  and  C_6
REMARK    5  A    between atoms: N_10  and  C_24
REMARK    6  A    between atoms: N_15  and  C_18
REMARK    7  A    between atoms: C_18  and  N_20
REMARK    8  A    between atoms: N_20  and  C_21
REMARK    9  A    between atoms: C_21  and  C_22
REMARK   10  A    between atoms: C_21  and  C_23
REMARK   11  A    between atoms: C_24  and  C_26
REMARK   12  A    between atoms: C_24  and  C_27
REMARK                            x       y       z     vdW  Elec       q    Type
REMARK                         _______ _______ _______ _____ _____    ______ ____
ROOT
ATOM      1  C   UNL     1       1.021  -1.446  -1.551  0.00  0.00    +0.022 C 
ATOM      2  C   UNL     1       1.832  -1.869  -0.345  0.00  0.00    +0.201 C 
ATOM      3  O   UNL     1       1.563  -1.621   0.812  0.00  0.00    -0.277 OA
ATOM      4  N   UNL     1       2.903  -2.568  -0.773  0.00  0.00    -0.307 N 
ATOM      5  C   UNL     1       2.881  -2.649  -2.236  0.00  0.00    +0.007 C 
ATOM      6  N   UNL     1       1.502  -2.312  -2.655  0.00  0.00    +0.401 N 
ATOM      7  C   UNL     1       3.227  -4.066  -2.692  0.00  0.00    +0.025 C 
ATOM      8  C   UNL     1       4.641  -4.420  -2.221  0.00  0.00    +0.107 C 
ATOM      9  N   UNL     1       5.569  -3.382  -2.690  0.00  0.00    -0.313 N 
ATOM     10  C   UNL     1       5.283  -1.978  -2.365  0.00  0.00    +0.107 C 
ATOM     11  C   UNL     1       3.863  -1.644  -2.835  0.00  0.00    +0.025 C 
ATOM     12  H   UNL     1       0.936  -3.144  -2.726  0.00  0.00    -0.082 HD
ATOM     13  H   UNL     1       1.506  -1.806  -3.528  0.00  0.00    -0.082 HD
ENDROOT
BRANCH   1  14
ATOM     14  C   UNL     1       1.280   0.026  -1.877  0.00  0.00    -0.020 C 
ATOM     15  C   UNL     1       0.633   0.373  -3.219  0.00  0.00    +0.006 C 
BRANCH  14  17
ATOM     16  C   UNL     1       1.044   2.368  -1.039  0.00  0.00    +0.004 C 
ATOM     17  C   UNL     1       0.679   0.906  -0.779  0.00  0.00    -0.001 C 
ENDBRANCH  14  17
ENDBRANCH   1  14
BRANCH   9  18
ATOM     18  C   UNL     1       6.664  -3.712  -3.404  0.00  0.00    +0.133 C 
ATOM     19  S   UNL     1       6.909  -5.334  -3.895  0.00  0.00    -0.019 S 
BRANCH  18  20
ATOM     20  N   UNL     1       7.565  -2.765  -3.732  0.00  0.00    -0.324 N 
ATOM     21  H   UNL     1       7.392  -1.835  -3.517  0.00  0.00    +0.148 HD
BRANCH  20  22
ATOM     22  C   UNL     1       8.806  -3.140  -4.414  0.00  0.00    +0.066 C 
ATOM     23  C   UNL     1       8.557  -3.217  -5.921  0.00  0.00    +0.027 C 
ATOM     24  C   UNL     1       9.882  -2.090  -4.128  0.00  0.00    +0.027 C 
ENDBRANCH  20  22
ENDBRANCH  18  20
ENDBRANCH   9  18
BRANCH   4  25
ATOM     25  C   UNL     1       3.929  -3.157   0.092  0.00  0.00    +0.101 C 
ATOM     26  C   UNL     1       4.141  -2.261   1.314  0.00  0.00    +0.033 C 
BRANCH  25  27
ATOM     27  C   UNL     1       3.483  -4.524   0.542  0.00  0.00    -0.027 A 
ATOM     28  C   UNL     1       2.141  -4.777   0.758  0.00  0.00    +0.005 A 
ATOM     29  C   UNL     1       1.732  -6.031   1.171  0.00  0.00    +0.000 A 
ATOM     30  C   UNL     1       2.664  -7.032   1.369  0.00  0.00    +0.000 A 
ATOM     31  C   UNL     1       4.006  -6.779   1.153  0.00  0.00    +0.000 A 
ATOM     32  C   UNL     1       4.415  -5.526   0.735  0.00  0.00    +0.005 A 
ENDBRANCH  25  27
ENDBRANCH   4  25
TORSDOF 7
