REMARK  Name = ZINC38677983
REMARK  9 active torsions:
REMARK  status: ('A' for Active; 'I' for Inactive)
REMARK    1  A    between atoms: C_1  and  O_2
REMARK    2  A    between atoms: O_2  and  C_3
REMARK    3  A    between atoms: C_6  and  C_9
REMARK    4  A    between atoms: C_10  and  C_11
REMARK    5  A    between atoms: C_11  and  O_13
REMARK    6  A    between atoms: O_13  and  C_14
REMARK    7  A    between atoms: C_21  and  N_34
REMARK    8  A    between atoms: C_22  and  C_32
REMARK    9  A    between atoms: C_23  and  C_25
REMARK                            x       y       z     vdW  Elec       q    Type
REMARK                         _______ _______ _______ _____ _____    ______ ____
ROOT
ATOM      1  C   UNL     1       3.982  -6.530   6.470  0.00  0.00    +0.135 A 
ATOM      2  C   UNL     1       4.538  -5.821   7.526  0.00  0.00    +0.047 A 
ATOM      3  C   UNL     1       5.189  -6.492   8.541  0.00  0.00    +0.012 A 
ATOM      4  C   UNL     1       5.292  -7.872   8.512  0.00  0.00    +0.008 A 
ATOM      5  C   UNL     1       4.739  -8.585   7.460  0.00  0.00    +0.138 A 
ATOM      6  C   UNL     1       4.078  -7.912   6.440  0.00  0.00    +0.093 A 
ATOM      7  O   UNL     1       4.830  -9.937   7.413  0.00  0.00    -0.441 OA
ATOM      8  C   UNL     1       5.100 -10.630   8.533  0.00  0.00    +0.199 C 
ATOM      9  C   UNL     1       5.658 -10.046   9.620  0.00  0.00    +0.098 C 
ATOM     10  C   UNL     1       6.007  -8.585   9.629  0.00  0.00    +0.098 C 
ENDROOT
BRANCH  10  11
ATOM     11  C   UNL     1       7.495  -8.426   9.451  0.00  0.00    -0.032 A 
ATOM     12  C   UNL     1       8.107  -8.892   8.302  0.00  0.00    +0.005 A 
ATOM     13  C   UNL     1       9.472  -8.746   8.137  0.00  0.00    +0.003 A 
ATOM     14  C   UNL     1      10.226  -8.136   9.121  0.00  0.00    +0.038 A 
ATOM     15  C   UNL     1       9.614  -7.669  10.272  0.00  0.00    +0.124 A 
ATOM     16  C   UNL     1       8.246  -7.809  10.433  0.00  0.00    +0.043 A 
ATOM     17  F   UNL     1      10.350  -7.072  11.235  0.00  0.00    -0.205 F 
ENDBRANCH  10  11
BRANCH   8  18
ATOM     18  N   UNL     1       4.801 -11.969   8.575  0.00  0.00    -0.328 N 
ATOM     19  H   UNL     1       4.400 -12.401   7.805  0.00  0.00    +0.145 HD
ATOM     20  H   UNL     1       4.989 -12.483   9.376  0.00  0.00    +0.145 HD
ENDBRANCH   8  18
BRANCH   9  21
ATOM     21  C   UNL     1       5.921 -10.838  10.783  0.00  0.00    +0.101 C 
ATOM     22  N   UNL     1       6.130 -11.466  11.707  0.00  0.00    -0.191 NA
ENDBRANCH   9  21
BRANCH   1  23
ATOM     23  O   UNL     1       3.341  -5.871   5.469  0.00  0.00    -0.423 OA
BRANCH  23  24
ATOM     24  C   UNL     1       4.092  -5.247   4.538  0.00  0.00    +0.337 C 
ATOM     25  O   UNL     1       5.302  -5.209   4.659  0.00  0.00    -0.245 OA
BRANCH  24  27
ATOM     26  C   UNL     1       4.224  -4.011   2.488  0.00  0.00    +0.015 C 
ATOM     27  C   UNL     1       3.472  -4.636   3.420  0.00  0.00    +0.092 C 
BRANCH  26  31
ATOM     28  C   UNL     1       2.367  -2.184  -0.859  0.00  0.00    +0.120 A 
ATOM     29  C   UNL     1       3.750  -2.138  -0.723  0.00  0.00    +0.046 A 
ATOM     30  C   UNL     1       4.358  -2.729   0.361  0.00  0.00    +0.011 A 
ATOM     31  C   UNL     1       3.580  -3.377   1.328  0.00  0.00    -0.025 A 
ATOM     32  C   UNL     1       2.188  -3.421   1.187  0.00  0.00    +0.011 A 
ATOM     33  C   UNL     1       1.590  -2.821   0.102  0.00  0.00    +0.046 A 
BRANCH  28  35
ATOM     34  C   UNL     1       2.630  -0.961  -2.879  0.00  0.00    +0.277 C 
ATOM     35  O   UNL     1       1.773  -1.599  -1.930  0.00  0.00    -0.495 OA
ENDBRANCH  28  35
ENDBRANCH  26  31
ENDBRANCH  24  27
ENDBRANCH  23  24
ENDBRANCH   1  23
TORSDOF 8
