REMARK  Name = ZINC36547948
REMARK  16 active torsions:
REMARK  status: ('A' for Active; 'I' for Inactive)
REMARK    1  A    between atoms: C_1  and  C_2
REMARK    2  A    between atoms: C_2  and  C_3
REMARK    3  A    between atoms: C_3  and  C_4
REMARK    4  A    between atoms: C_4  and  C_5
REMARK    5  A    between atoms: C_5  and  C_6
REMARK    6  A    between atoms: N_8  and  C_9
REMARK    7  A    between atoms: N_8  and  C_16
REMARK    8  A    between atoms: C_16  and  C_18
REMARK    9  A    between atoms: C_16  and  C_27
REMARK   10  A    between atoms: C_19  and  O_26
REMARK   11  A    between atoms: C_21  and  O_25
REMARK   12  A    between atoms: C_23  and  O_24
REMARK   13  A    between atoms: N_29  and  C_30
REMARK   14  A    between atoms: C_30  and  C_31
REMARK   15  A    between atoms: C_30  and  C_32
REMARK   16  A    between atoms: C_30  and  C_33
REMARK                            x       y       z     vdW  Elec       q    Type
REMARK                         _______ _______ _______ _____ _____    ______ ____
ROOT
ATOM      1  C   UNL     1      -3.688  -6.243   0.026  0.00  0.00    +0.204 C 
ENDROOT
BRANCH   1   2
ATOM      2  C   UNL     1      -4.562  -5.783  -1.112  0.00  0.00    +0.065 A 
ATOM      3  C   UNL     1      -5.177  -4.541  -1.056  0.00  0.00    +0.129 A 
ATOM      4  C   UNL     1      -5.981  -4.118  -2.103  0.00  0.00    +0.091 A 
ATOM      5  C   UNL     1      -6.170  -4.936  -3.207  0.00  0.00    +0.124 A 
ATOM      6  C   UNL     1      -5.555  -6.177  -3.264  0.00  0.00    +0.091 A 
ATOM      7  C   UNL     1      -4.747  -6.599  -2.218  0.00  0.00    +0.129 A 
BRANCH   7   8
ATOM      8  O   UNL     1      -4.140  -7.813  -2.276  0.00  0.00    -0.506 OA
ATOM      9  H   UNL     1      -4.666  -8.534  -1.903  0.00  0.00    +0.292 HD
ENDBRANCH   7   8
BRANCH   5  10
ATOM     10  O   UNL     1      -6.959  -4.521  -4.232  0.00  0.00    -0.507 OA
ATOM     11  H   UNL     1      -6.486  -4.035  -4.921  0.00  0.00    +0.292 HD
ENDBRANCH   5  10
BRANCH   3  12
ATOM     12  O   UNL     1      -4.991  -3.740   0.026  0.00  0.00    -0.506 OA
ATOM     13  H   UNL     1      -4.275  -3.098  -0.079  0.00  0.00    +0.292 HD
ENDBRANCH   3  12
ENDBRANCH   1   2
BRANCH   1  14
ATOM     14  C   UNL     1      -4.549  -6.592   1.212  0.00  0.00    +0.239 C 
ATOM     15  O   UNL     1      -4.949  -5.716   1.949  0.00  0.00    -0.273 OA
ATOM     16  N   UNL     1      -4.875  -7.877   1.454  0.00  0.00    -0.309 N 
ATOM     17  H   UNL     1      -4.555  -8.578   0.864  0.00  0.00    +0.149 HD
BRANCH  16  18
ATOM     18  C   UNL     1      -5.713  -8.216   2.607  0.00  0.00    +0.026 C 
ATOM     19  C   UNL     1      -7.064  -7.510   2.481  0.00  0.00    +0.031 C 
ATOM     20  C   UNL     1      -5.931  -9.730   2.651  0.00  0.00    +0.031 C 
ATOM     21  C   UNL     1      -5.018  -7.763   3.892  0.00  0.00    +0.031 C 
ENDBRANCH  16  18
ENDBRANCH   1  14
BRANCH   1  24
ATOM     22  C   UNL     1      -2.112  -4.481  -0.565  0.00  0.00    +0.221 C 
ATOM     23  O   UNL     1      -2.296  -4.749  -1.734  0.00  0.00    -0.275 OA
ATOM     24  N   UNL     1      -2.760  -5.170   0.394  0.00  0.00    -0.254 N 
BRANCH  24  25
ATOM     25  C   UNL     1      -2.548  -4.861   1.743  0.00  0.00    +0.056 A 
ATOM     26  C   UNL     1      -3.230  -3.804   2.330  0.00  0.00    +0.025 A 
ATOM     27  C   UNL     1      -3.019  -3.501   3.661  0.00  0.00    +0.002 A 
ATOM     28  C   UNL     1      -2.129  -4.250   4.409  0.00  0.00    +0.002 A 
ATOM     29  C   UNL     1      -1.448  -5.304   3.829  0.00  0.00    +0.022 A 
ATOM     30  C   UNL     1      -1.659  -5.615   2.498  0.00  0.00    +0.062 A 
ATOM     31 CL   UNL     1      -0.809  -6.943   1.772  0.00  0.00    -0.082 Cl
ENDBRANCH  24  25
BRANCH  22  32
ATOM     32  C   UNL     1      -1.158  -3.378  -0.186  0.00  0.00    +0.096 C 
BRANCH  32  33
ATOM     33  C   UNL     1      -0.561  -2.762  -1.453  0.00  0.00    +0.009 C 
BRANCH  33  34
ATOM     34  C   UNL     1       0.407  -1.642  -1.069  0.00  0.00    +0.000 C 
BRANCH  34  36
ATOM     35  C   UNL     1       1.973   0.094  -1.951  0.00  0.00    +0.004 C 
ATOM     36  C   UNL     1       1.005  -1.026  -2.336  0.00  0.00    -0.003 C 
ENDBRANCH  34  36
ENDBRANCH  33  34
ENDBRANCH  32  33
ENDBRANCH  22  32
ENDBRANCH   1  24
TORSDOF 12
