REMARK  Name = ZINC39760561
REMARK  9 active torsions:
REMARK  status: ('A' for Active; 'I' for Inactive)
REMARK    1  A    between atoms: C_1  and  C_2
REMARK    2  A    between atoms: C_4  and  C_9
REMARK    3  A    between atoms: C_5  and  C_8
REMARK    4  A    between atoms: C_9  and  C_10
REMARK    5  A    between atoms: C_10  and  C_11
REMARK    6  A    between atoms: N_13  and  C_14
REMARK    7  A    between atoms: C_14  and  C_15
REMARK    8  A    between atoms: C_15  and  C_17
REMARK    9  A    between atoms: C_15  and  C_24
REMARK                            x       y       z     vdW  Elec       q    Type
REMARK                         _______ _______ _______ _____ _____    ______ ____
ROOT
ATOM      1  C   UNL     1      -3.384  -2.661  -6.957  0.00  0.00    +0.069 C 
ENDROOT
BRANCH   1   2
ATOM      2  C   UNL     1      -3.861  -2.343  -8.350  0.00  0.00    -0.013 A 
ATOM      3  C   UNL     1      -5.239  -2.049  -8.754  0.00  0.00    +0.003 A 
ATOM      4  C   UNL     1      -6.454  -1.969  -8.071  0.00  0.00    +0.010 A 
ATOM      5  C   UNL     1      -7.597  -1.664  -8.754  0.00  0.00    +0.001 A 
ATOM      6  C   UNL     1      -7.560  -1.434 -10.123  0.00  0.00    +0.002 A 
ATOM      7  C   UNL     1      -6.372  -1.508 -10.816  0.00  0.00    +0.026 A 
ATOM      8  C   UNL     1      -5.196  -1.816 -10.141  0.00  0.00    +0.047 A 
ATOM      9  N   UNL     1      -3.885  -1.961 -10.537  0.00  0.00    -0.360 N 
ATOM     10  C   UNL     1      -3.104  -2.268  -9.456  0.00  0.00    +0.088 A 
ATOM     11  H   UNL     1      -3.563  -1.856 -11.446  0.00  0.00    +0.165 HD
ENDBRANCH   1   2
BRANCH   1  12
ATOM     12  C   UNL     1      -2.755  -4.031  -6.942  0.00  0.00    -0.020 A 
ATOM     13  C   UNL     1      -1.655  -4.295  -7.736  0.00  0.00    +0.006 A 
ATOM     14  C   UNL     1      -1.078  -5.551  -7.722  0.00  0.00    +0.000 A 
ATOM     15  C   UNL     1      -1.601  -6.544  -6.915  0.00  0.00    +0.001 A 
ATOM     16  C   UNL     1      -2.702  -6.281  -6.122  0.00  0.00    +0.020 A 
ATOM     17  C   UNL     1      -3.276  -5.022  -6.130  0.00  0.00    +0.045 A 
ATOM     18 CL   UNL     1      -4.655  -4.690  -5.129  0.00  0.00    -0.083 Cl
ENDBRANCH   1  12
BRANCH   1  19
ATOM     19  C   UNL     1      -2.350  -1.621  -6.521  0.00  0.00    +0.117 C 
BRANCH  19  22
ATOM     20  C   UNL     1      -1.071  -1.060  -4.525  0.00  0.00    +0.213 C 
ATOM     21  O   UNL     1      -0.569  -0.143  -5.139  0.00  0.00    -0.276 OA
ATOM     22  N   UNL     1      -1.975  -1.860  -5.126  0.00  0.00    -0.314 N 
ATOM     23  H   UNL     1      -2.376  -2.593  -4.634  0.00  0.00    +0.149 HD
BRANCH  20  24
ATOM     24  C   UNL     1      -0.685  -1.306  -3.089  0.00  0.00    +0.100 C 
BRANCH  24  25
ATOM     25  C   UNL     1       0.349  -0.266  -2.654  0.00  0.00    +0.044 C 
BRANCH  25  28
ATOM     26  C   UNL     1      -0.019   1.526   0.010  0.00  0.00    +0.045 C 
ATOM     27  C   UNL     1       0.002  -0.004   0.002  0.00  0.00    +0.173 C 
ATOM     28  C   UNL     1       0.735  -0.512  -1.218  0.00  0.00    -0.018 C 
ATOM     29  C   UNL     1       1.772  -1.208  -0.801  0.00  0.00    +0.038 C 
ATOM     30  N   UNL     1       1.832  -1.235   0.581  0.00  0.00    -0.270 N 
ATOM     31  O   UNL     1       0.748  -0.498   1.124  0.00  0.00    -0.267 OA
ATOM     32  C   UNL     1       2.763  -1.888  -1.710  0.00  0.00    +0.065 C 
ATOM     33  H   UNL     1       2.513  -1.690   1.100  0.00  0.00    +0.194 HD
ENDBRANCH  25  28
ENDBRANCH  24  25
ENDBRANCH  20  24
ENDBRANCH  19  22
ENDBRANCH   1  19
TORSDOF 7
