REMARK  Name = ZINC35781158
REMARK  16 active torsions:
REMARK  status: ('A' for Active; 'I' for Inactive)
REMARK    1  A    between atoms: C_1  and  C_2
REMARK    2  A    between atoms: C_2  and  C_3
REMARK    3  A    between atoms: C_2  and  C_4
REMARK    4  A    between atoms: C_4  and  C_5
REMARK    5  A    between atoms: C_5  and  N_6
REMARK    6  A    between atoms: N_6  and  C_7
REMARK    7  A    between atoms: N_6  and  C_26
REMARK    8  A    between atoms: C_7  and  C_8
REMARK    9  A    between atoms: C_9  and  C_19
REMARK   10  A    between atoms: C_12  and  N_13
REMARK   11  A    between atoms: C_26  and  C_27
REMARK   12  A    between atoms: C_27  and  C_29
REMARK   13  A    between atoms: C_27  and  O_37
REMARK   14  A    between atoms: C_29  and  O_30
REMARK   15  A    between atoms: O_30  and  C_31
REMARK   16  A    between atoms: C_31  and  C_32
REMARK                            x       y       z     vdW  Elec       q    Type
REMARK                         _______ _______ _______ _____ _____    ______ ____
ROOT
ATOM      1  N   UNL     1      -3.499   0.508   0.728  0.00  0.00    +0.384 N 
ATOM      2  H   UNL     1      -3.326  -0.290   1.319  0.00  0.00    -0.081 HD
ENDROOT
BRANCH   1   3
ATOM      3  C   UNL     1      -2.547   1.577   1.058  0.00  0.00    -0.078 C 
BRANCH   3   4
ATOM      4  C   UNL     1      -2.634   1.892   2.553  0.00  0.00    -0.016 C 
BRANCH   4   6
ATOM      5  C   UNL     1      -2.091   4.309   2.222  0.00  0.00    +0.007 C 
ATOM      6  C   UNL     1      -1.646   3.010   2.897  0.00  0.00    -0.019 C 
ATOM      7  C   UNL     1      -1.610   3.209   4.413  0.00  0.00    +0.007 C 
ENDBRANCH   4   6
ENDBRANCH   3   4
ENDBRANCH   1   3
BRANCH   1   8
ATOM      8  C   UNL     1      -4.870   0.989   0.941  0.00  0.00    -0.035 C 
BRANCH   8   9
ATOM      9  C   UNL     1      -5.836  -0.155   0.772  0.00  0.00    +0.025 A 
ATOM     10  C   UNL     1      -6.822  -0.266  -0.230  0.00  0.00    +0.119 A 
ATOM     11  N   UNL     1      -7.460  -1.399  -0.045  0.00  0.00    -0.076 NA
ATOM     12  O   UNL     1      -6.895  -2.041   1.083  0.00  0.00    -0.339 OA
ATOM     13  C   UNL     1      -5.906  -1.262   1.554  0.00  0.00    +0.222 A 
BRANCH  10  14
ATOM     14  C   UNL     1      -7.092   0.723  -1.303  0.00  0.00    +0.039 A 
ATOM     15  C   UNL     1      -6.043   1.442  -1.872  0.00  0.00    +0.013 A 
ATOM     16  C   UNL     1      -6.299   2.360  -2.869  0.00  0.00    +0.001 A 
ATOM     17  C   UNL     1      -7.595   2.568  -3.307  0.00  0.00    +0.003 A 
ATOM     18  C   UNL     1      -8.642   1.859  -2.748  0.00  0.00    +0.039 A 
ATOM     19  C   UNL     1      -8.397   0.932  -1.751  0.00  0.00    +0.133 A 
ATOM     20  F   UNL     1      -9.419   0.234  -1.209  0.00  0.00    -0.205 F 
ENDBRANCH  10  14
BRANCH  13  21
ATOM     21  N   UNL     1      -5.103  -1.538   2.645  0.00  0.00    -0.295 N 
ATOM     22  C   UNL     1      -5.522  -1.167   4.006  0.00  0.00    +0.136 C 
ATOM     23  C   UNL     1      -5.379  -2.398   4.909  0.00  0.00    +0.179 C 
ATOM     24  O   UNL     1      -4.059  -2.931   4.773  0.00  0.00    -0.377 OA
ATOM     25  C   UNL     1      -3.747  -3.393   3.457  0.00  0.00    +0.179 C 
ATOM     26  C   UNL     1      -3.809  -2.218   2.481  0.00  0.00    +0.136 C 
ENDBRANCH  13  21
ENDBRANCH   8   9
ENDBRANCH   1   8
BRANCH   1  27
ATOM     27  C   UNL     1      -3.330   0.120  -0.679  0.00  0.00    -0.044 C 
BRANCH  27  28
ATOM     28  C   UNL     1      -2.011  -0.639  -0.844  0.00  0.00    +0.124 C 
BRANCH  28  29
ATOM     29  O   UNL     1      -2.075  -1.868  -0.118  0.00  0.00    -0.391 OA
ATOM     30  H   UNL     1      -2.784  -2.459  -0.408  0.00  0.00    +0.210 HD
ENDBRANCH  28  29
BRANCH  28  31
ATOM     31  C   UNL     1      -1.775  -0.933  -2.327  0.00  0.00    +0.189 C 
BRANCH  31  32
ATOM     32  O   UNL     1      -0.491  -1.538  -2.493  0.00  0.00    -0.370 OA
BRANCH  32  33
ATOM     33  C   UNL     1      -0.169  -1.856  -3.849  0.00  0.00    +0.234 C 
BRANCH  33  34
ATOM     34  C   UNL     1       1.199  -2.485  -3.906  0.00  0.00    +0.130 A 
ATOM     35  C   UNL     1       1.464  -3.800  -3.817  0.00  0.00    +0.047 A 
ATOM     36  C   UNL     1       2.867  -3.943  -3.918  0.00  0.00    +0.041 A 
ATOM     37  C   UNL     1       3.375  -2.706  -4.064  0.00  0.00    +0.195 A 
ATOM     38  O   UNL     1       2.360  -1.827  -4.061  0.00  0.00    -0.465 OA
ENDBRANCH  33  34
ENDBRANCH  32  33
ENDBRANCH  31  32
ENDBRANCH  28  31
ENDBRANCH  27  28
ENDBRANCH   1  27
TORSDOF 14
