REMARK  Name = ZINC08156539
REMARK  7 active torsions:
REMARK  status: ('A' for Active; 'I' for Inactive)
REMARK    1  A    between atoms: C_1  and  C_2
REMARK    2  A    between atoms: C_2  and  C_4
REMARK    3  A    between atoms: C_2  and  N_57
REMARK    4  A    between atoms: C_17  and  N_57
REMARK    5  A    between atoms: C_18  and  C_19
REMARK    6  A    between atoms: C_18  and  N_57
REMARK    7  A    between atoms: C_24  and  N_25
REMARK                            x       y       z     vdW  Elec       q    Type
REMARK                         _______ _______ _______ _____ _____    ______ ____
ROOT
ATOM      1  C   UNL     1      -1.012  -0.447   2.584  0.00  0.00    -0.004 C 
ATOM      2  C   UNL     1      -1.073   1.082   2.610  0.00  0.00    +0.017 C 
ENDROOT
BRANCH   2   3
ATOM      3  C   UNL     1      -2.071   1.527   3.648  0.00  0.00    +0.206 C 
ATOM      4  O   UNL     1      -3.222   1.737   3.330  0.00  0.00    -0.277 OA
ATOM      5  N   UNL     1      -1.684   1.692   4.928  0.00  0.00    -0.262 N 
ATOM      6  C   UNL     1      -0.272   1.558   5.317  0.00  0.00    +0.209 C 
ATOM      7  C   UNL     1      -0.190   0.794   6.614  0.00  0.00    +0.235 C 
ATOM      8  O   UNL     1       0.791   0.123   6.854  0.00  0.00    -0.274 OA
ATOM      9  N   UNL     1      -1.194   0.847   7.510  0.00  0.00    -0.283 N 
ATOM     10  C   UNL     1      -2.359   1.571   7.237  0.00  0.00    +0.055 A 
ATOM     11  C   UNL     1      -2.614   2.004   5.931  0.00  0.00    +0.058 A 
ATOM     12  C   UNL     1      -3.766   2.710   5.646  0.00  0.00    +0.025 A 
ATOM     13  C   UNL     1      -4.663   3.000   6.659  0.00  0.00    +0.002 A 
ATOM     14  C   UNL     1      -4.410   2.581   7.952  0.00  0.00    +0.002 A 
ATOM     15  C   UNL     1      -3.262   1.868   8.245  0.00  0.00    +0.025 A 
ATOM     16  H   UNL     1      -1.108   0.377   8.354  0.00  0.00    +0.155 HD
ENDBRANCH   2   3
BRANCH   2  18
ATOM     17  C   UNL     1      -1.652   3.038   1.306  0.00  0.00    -0.095 C 
ATOM     18  N   UNL     1      -1.509   1.567   1.284  0.00  0.00    +0.388 N 
ATOM     19  H   UNL     1      -2.418   1.147   1.058  0.00  0.00    -0.081 HD
BRANCH  18  20
ATOM     20  C   UNL     1      -0.527   1.169   0.253  0.00  0.00    -0.040 C 
BRANCH  20  21
ATOM     21  C   UNL     1      -1.044   1.589  -1.100  0.00  0.00    -0.043 A 
ATOM     22  C   UNL     1      -0.448   2.638  -1.772  0.00  0.00    +0.003 A 
ATOM     23  C   UNL     1      -0.921   3.023  -3.013  0.00  0.00    +0.000 A 
ATOM     24  C   UNL     1      -1.991   2.359  -3.586  0.00  0.00    +0.002 A 
ATOM     25  C   UNL     1      -2.591   1.310  -2.919  0.00  0.00    +0.023 A 
ATOM     26  C   UNL     1      -2.115   0.917  -1.674  0.00  0.00    +0.031 A 
BRANCH  26  27
ATOM     27  N   UNL     1      -2.717  -0.148  -0.999  0.00  0.00    -0.330 N 
ATOM     28  C   UNL     1      -3.905  -0.644  -1.739  0.00  0.00    +0.105 C 
ATOM     29  C   UNL     1      -4.104  -2.073  -1.174  0.00  0.00    +0.020 C 
ATOM     30  C   UNL     1      -2.653  -2.575  -0.986  0.00  0.00    +0.020 C 
ATOM     31  C   UNL     1      -1.794  -1.300  -0.898  0.00  0.00    +0.105 C 
ENDBRANCH  26  27
ENDBRANCH  20  21
ENDBRANCH  18  20
ENDBRANCH   2  18
TORSDOF 5
