REMARK  Name = ZINC06258147
REMARK  5 active torsions:
REMARK  status: ('A' for Active; 'I' for Inactive)
REMARK    1  A    between atoms: C_7  and  C_18
REMARK    2  A    between atoms: N_9  and  C_10
REMARK    3  A    between atoms: C_10  and  C_11
REMARK    4  A    between atoms: N_19  and  N_20
REMARK    5  A    between atoms: C_21  and  C_23
REMARK                            x       y       z     vdW  Elec       q    Type
REMARK                         _______ _______ _______ _____ _____    ______ ____
ROOT
ATOM      1  C   UNL     1      10.696  -0.015   4.345  0.00  0.00    +0.001 A 
ATOM      2  C   UNL     1      11.800  -0.580   4.968  0.00  0.00    +0.002 A 
ATOM      3  C   UNL     1      11.781  -1.897   5.372  0.00  0.00    +0.026 A 
ATOM      4  C   UNL     1      10.648  -2.674   5.154  0.00  0.00    +0.050 A 
ATOM      5  C   UNL     1       9.534  -2.103   4.517  0.00  0.00    +0.009 A 
ATOM      6  C   UNL     1       9.565  -0.768   4.120  0.00  0.00    +0.010 A 
ATOM      7  C   UNL     1       8.518  -3.168   4.444  0.00  0.00    +0.020 A 
ATOM      8  C   UNL     1       9.072  -4.272   5.013  0.00  0.00    +0.096 A 
ATOM      9  N   UNL     1      10.335  -3.986   5.436  0.00  0.00    -0.342 N 
ENDROOT
BRANCH   7  10
ATOM     10  C   UNL     1       7.170  -3.060   3.863  0.00  0.00    +0.140 C 
ATOM     11  N   UNL     1       6.772  -1.934   3.350  0.00  0.00    -0.187 NA
BRANCH  11  12
ATOM     12  N   UNL     1       5.489  -1.831   2.797  0.00  0.00    -0.203 N 
ATOM     13  C   UNL     1       5.076  -0.664   2.265  0.00  0.00    +0.263 C 
ATOM     14  O   UNL     1       5.817   0.301   2.265  0.00  0.00    -0.268 OA
ATOM     15  H   UNL     1       4.897  -2.600   2.797  0.00  0.00    +0.178 HD
BRANCH  13  16
ATOM     16  C   UNL     1       3.724  -0.555   1.683  0.00  0.00    +0.042 A 
ATOM     17  C   UNL     1       2.871  -1.661   1.682  0.00  0.00    +0.017 A 
ATOM     18  C   UNL     1       1.609  -1.558   1.138  0.00  0.00    +0.050 A 
ATOM     19  C   UNL     1       1.181  -0.356   0.590  0.00  0.00    +0.166 A 
ATOM     20  C   UNL     1       2.028   0.752   0.588  0.00  0.00    +0.167 A 
ATOM     21  C   UNL     1       3.294   0.655   1.131  0.00  0.00    +0.062 A 
ATOM     22  O   UNL     1       1.376   1.797  -0.001  0.00  0.00    -0.453 OA
ATOM     23  C   UNL     1      -0.017   1.435   0.010  0.00  0.00    +0.466 C 
ATOM     24  O   UNL     1       0.002  -0.004   0.002  0.00  0.00    -0.453 OA
ENDBRANCH  13  16
ENDBRANCH  11  12
ENDBRANCH   7  10
BRANCH   9  25
ATOM     25  C   UNL     1      11.232  -4.937   6.097  0.00  0.00    +0.157 C 
BRANCH  25  26
ATOM     26  C   UNL     1      11.117  -4.782   7.591  0.00  0.00    -0.028 A 
ATOM     27  C   UNL     1      11.944  -3.900   8.261  0.00  0.00    +0.008 A 
ATOM     28  C   UNL     1      11.835  -3.753   9.631  0.00  0.00    +0.038 A 
ATOM     29  C   UNL     1      10.904  -4.499  10.334  0.00  0.00    +0.123 A 
ATOM     30  C   UNL     1      10.080  -5.386   9.664  0.00  0.00    +0.038 A 
ATOM     31  C   UNL     1      10.187  -5.527   8.293  0.00  0.00    +0.008 A 
ATOM     32  F   UNL     1      10.800  -4.360  11.674  0.00  0.00    -0.205 F 
ENDBRANCH  25  26
ENDBRANCH   9  25
TORSDOF 5
