REMARK  Name = ZINC36206478
REMARK  13 active torsions:
REMARK  status: ('A' for Active; 'I' for Inactive)
REMARK    1  A    between atoms: C_1  and  C_2
REMARK    2  A    between atoms: C_5  and  C_9
REMARK    3  A    between atoms: C_6  and  C_8
REMARK    4  A    between atoms: C_18  and  C_20
REMARK    5  A    between atoms: C_20  and  N_21
REMARK    6  A    between atoms: N_21  and  C_22
REMARK    7  A    between atoms: N_21  and  C_25
REMARK    8  A    between atoms: C_22  and  C_23
REMARK    9  A    between atoms: C_25  and  C_26
REMARK   10  A    between atoms: C_26  and  C_28
REMARK   11  A    between atoms: C_26  and  O_31
REMARK   12  A    between atoms: C_28  and  C_29
REMARK   13  A    between atoms: C_28  and  C_30
REMARK                            x       y       z     vdW  Elec       q    Type
REMARK                         _______ _______ _______ _____ _____    ______ ____
ROOT
ATOM      1  C   UNL     1       1.313  -4.938   0.120  0.00  0.00    +0.004 A 
ATOM      2  C   UNL     1       2.415  -5.722   0.216  0.00  0.00    +0.056 A 
ATOM      3  S   UNL     1       1.744  -7.333   0.579  0.00  0.00    -0.076 S 
ATOM      4  C   UNL     1       0.018  -6.921   0.593  0.00  0.00    +0.116 A 
ATOM      5  C   UNL     1       0.002  -5.544   0.322  0.00  0.00    +0.080 A 
ATOM      6  C   UNL     1      -1.293  -4.935   0.278  0.00  0.00    +0.260 A 
ATOM      7  O   UNL     1      -1.410  -3.745   0.044  0.00  0.00    -0.267 OA
ATOM      8  N   UNL     1      -2.379  -5.698   0.497  0.00  0.00    -0.312 N 
ATOM      9  H   UNL     1      -3.260  -5.292   0.469  0.00  0.00    +0.170 HD
ATOM     10  C   UNL     1      -2.268  -7.026   0.757  0.00  0.00    +0.094 A 
ATOM     11  N   UNL     1      -1.101  -7.612   0.794  0.00  0.00    -0.229 NA
ENDROOT
BRANCH   1  16
ATOM     12  C   UNL     1       1.801   0.680  -1.043  0.00  0.00    +0.044 C 
ATOM     13  C   UNL     1       1.674  -0.790  -0.739  0.00  0.00    -0.050 A 
ATOM     14  C   UNL     1       2.055  -1.726  -1.685  0.00  0.00    +0.004 A 
ATOM     15  C   UNL     1       1.940  -3.073  -1.411  0.00  0.00    +0.009 A 
ATOM     16  C   UNL     1       1.439  -3.492  -0.179  0.00  0.00    -0.014 A 
ATOM     17  C   UNL     1       1.057  -2.545   0.769  0.00  0.00    -0.042 A 
ATOM     18  C   UNL     1       1.181  -1.200   0.487  0.00  0.00    +0.007 A 
ATOM     19  C   UNL     1       0.514  -2.990   2.103  0.00  0.00    +0.044 C 
ENDBRANCH   1  16
BRANCH  10  20
ATOM     20  C   UNL     1      -3.513  -7.841   0.997  0.00  0.00    -0.003 C 
BRANCH  20  21
ATOM     21  N   UNL     1      -3.147  -9.251   1.184  0.00  0.00    +0.388 N 
ATOM     22  H   UNL     1      -2.568  -9.554   0.415  0.00  0.00    -0.081 HD
BRANCH  21  23
ATOM     23  C   UNL     1      -4.365 -10.071   1.233  0.00  0.00    -0.051 C 
BRANCH  23  24
ATOM     24  C   UNL     1      -5.101  -9.956  -0.077  0.00  0.00    -0.053 C 
ATOM     25  C   UNL     1      -5.404 -11.034  -0.755  0.00  0.00    +0.002 C 
ENDBRANCH  23  24
ENDBRANCH  21  23
BRANCH  21  26
ATOM     26  C   UNL     1      -2.405  -9.401   2.443  0.00  0.00    -0.046 C 
BRANCH  26  27
ATOM     27  C   UNL     1      -1.860 -10.827   2.547  0.00  0.00    +0.101 C 
BRANCH  27  28
ATOM     28  C   UNL     1      -0.910 -10.924   3.743  0.00  0.00    +0.010 C 
ATOM     29  C   UNL     1      -1.693 -10.695   5.037  0.00  0.00    +0.010 C 
ATOM     30  C   UNL     1      -0.269 -12.313   3.773  0.00  0.00    +0.010 C 
ENDBRANCH  27  28
BRANCH  27  31
ATOM     31  O   UNL     1      -2.945 -11.740   2.726  0.00  0.00    -0.393 OA
ATOM     32  H   UNL     1      -3.470 -11.576   3.522  0.00  0.00    +0.210 HD
ENDBRANCH  27  31
ENDBRANCH  26  27
ENDBRANCH  21  26
ENDBRANCH  20  21
ENDBRANCH  10  20
TORSDOF 9
