REMARK  Name = ZINC38571579
REMARK  5 active torsions:
REMARK  status: ('A' for Active; 'I' for Inactive)
REMARK    1  A    between atoms: C_1  and  C_2
REMARK    2  A    between atoms: C_2  and  C_3
REMARK    3  A    between atoms: C_3  and  C_5
REMARK    4  A    between atoms: C_3  and  C_6
REMARK    5  A    between atoms: C_9  and  C_12
REMARK                            x       y       z     vdW  Elec       q    Type
REMARK                         _______ _______ _______ _____ _____    ______ ____
ROOT
ATOM      1  C   UNL     1       1.232  -6.263   0.975  0.00  0.00    +0.074 C 
ATOM      2  C   UNL     1       2.034  -6.656  -0.274  0.00  0.00    +0.152 C 
ATOM      3  C   UNL     1       3.498  -6.400  -0.016  0.00  0.00    +0.116 C 
ATOM      4  N   UNL     1       4.199  -5.603  -0.768  0.00  0.00    -0.205 NA
ATOM      5  C   UNL     1       3.667  -4.947  -1.806  0.00  0.00    +0.206 C 
ATOM      6  N   UNL     1       2.388  -5.066  -2.128  0.00  0.00    -0.147 NA
ATOM      7  C   UNL     1       1.568  -5.845  -1.449  0.00  0.00    +0.250 C 
ATOM      8  O   UNL     1       0.402  -5.908  -1.787  0.00  0.00    -0.273 OA
ATOM      9  N   UNL     1       4.468  -4.131  -2.557  0.00  0.00    -0.329 N 
ATOM     10  N   UNL     1       4.081  -7.033   1.055  0.00  0.00    -0.301 N 
ATOM     11  C   UNL     1       3.294  -7.113   2.193  0.00  0.00    +0.048 C 
ATOM     12  C   UNL     1       1.969  -6.767   2.195  0.00  0.00    +0.030 C 
ATOM     13  C   UNL     1       1.430  -6.956   3.492  0.00  0.00    +0.192 C 
ATOM     14  O   UNL     1       0.282  -6.746   3.831  0.00  0.00    -0.287 OA
ATOM     15  C   UNL     1       2.521  -7.456   4.357  0.00  0.00    +0.031 A 
ATOM     16  C   UNL     1       3.678  -7.550   3.540  0.00  0.00    +0.007 A 
ATOM     17  C   UNL     1       4.884  -7.993   4.060  0.00  0.00    +0.010 A 
ATOM     18  C   UNL     1       4.901  -8.338   5.415  0.00  0.00    +0.001 A 
ATOM     19  C   UNL     1       3.780  -8.245   6.203  0.00  0.00    +0.001 A 
ATOM     20  C   UNL     1       2.552  -7.799   5.695  0.00  0.00    +0.012 A 
ATOM     21  H   UNL     1       5.406  -4.033  -2.333  0.00  0.00    +0.145 HD
ATOM     22  H   UNL     1       4.096  -3.649  -3.313  0.00  0.00    +0.145 HD
ATOM     23  H   UNL     1       4.979  -7.399   1.017  0.00  0.00    +0.153 HD
ENDROOT
BRANCH   1  27
ATOM     24  C   UNL     1       0.870  -2.011   1.172  0.00  0.00    -0.045 A 
ATOM     25  C   UNL     1      -0.264  -2.799   1.109  0.00  0.00    +0.004 A 
ATOM     26  C   UNL     1      -0.147  -4.175   1.045  0.00  0.00    +0.004 A 
ATOM     27  C   UNL     1       1.105  -4.763   1.044  0.00  0.00    -0.039 A 
ATOM     28  C   UNL     1       2.239  -3.974   1.106  0.00  0.00    +0.004 A 
ATOM     29  C   UNL     1       2.121  -2.598   1.166  0.00  0.00    +0.004 A 
BRANCH  24  30
ATOM     30  C   UNL     1       0.742  -0.511   1.242  0.00  0.00    +0.016 C 
ATOM     31  C   UNL     1      -0.042  -0.124   2.497  0.00  0.00    +0.012 C 
BRANCH  30  33
ATOM     32  C   UNL     1      -0.019   1.526   0.010  0.00  0.00    +0.004 C 
ATOM     33  C   UNL     1       0.002  -0.004   0.002  0.00  0.00    +0.004 C 
ENDBRANCH  30  33
ENDBRANCH  24  30
ENDBRANCH   1  27
TORSDOF 3
