REMARK  Name = ZINC36603807
REMARK  14 active torsions:
REMARK  status: ('A' for Active; 'I' for Inactive)
REMARK    1  A    between atoms: C_1  and  C_2
REMARK    2  A    between atoms: C_2  and  C_3
REMARK    3  A    between atoms: C_3  and  C_4
REMARK    4  A    between atoms: C_4  and  C_5
REMARK    5  A    between atoms: N_7  and  C_8
REMARK    6  A    between atoms: N_7  and  C_15
REMARK    7  A    between atoms: C_8  and  C_9
REMARK    8  A    between atoms: C_12  and  C_14
REMARK    9  A    between atoms: C_15  and  C_17
REMARK   10  A    between atoms: C_15  and  C_26
REMARK   11  A    between atoms: C_18  and  O_25
REMARK   12  A    between atoms: C_20  and  O_24
REMARK   13  A    between atoms: C_22  and  O_23
REMARK   14  A    between atoms: N_28  and  C_29
REMARK                            x       y       z     vdW  Elec       q    Type
REMARK                         _______ _______ _______ _____ _____    ______ ____
ROOT
ATOM      1  C   UNL     1       1.291  -5.077  -2.003  0.00  0.00    +0.200 C 
ENDROOT
BRANCH   1   2
ATOM      2  C   UNL     1       0.179  -4.100  -1.721  0.00  0.00    +0.065 A 
ATOM      3  C   UNL     1       0.429  -2.736  -1.755  0.00  0.00    +0.129 A 
ATOM      4  C   UNL     1      -0.595  -1.837  -1.495  0.00  0.00    +0.091 A 
ATOM      5  C   UNL     1      -1.868  -2.301  -1.202  0.00  0.00    +0.124 A 
ATOM      6  C   UNL     1      -2.118  -3.665  -1.169  0.00  0.00    +0.091 A 
ATOM      7  C   UNL     1      -1.096  -4.564  -1.433  0.00  0.00    +0.129 A 
BRANCH   7   8
ATOM      8  O   UNL     1      -1.342  -5.900  -1.405  0.00  0.00    -0.506 OA
ATOM      9  H   UNL     1      -1.212  -6.306  -0.537  0.00  0.00    +0.292 HD
ENDBRANCH   7   8
BRANCH   5  10
ATOM     10  O   UNL     1      -2.871  -1.420  -0.947  0.00  0.00    -0.507 OA
ATOM     11  H   UNL     1      -3.365  -1.149  -1.733  0.00  0.00    +0.292 HD
ENDBRANCH   5  10
BRANCH   3  12
ATOM     12  O   UNL     1       1.676  -2.281  -2.042  0.00  0.00    -0.506 OA
ATOM     13  H   UNL     1       1.805  -2.044  -2.971  0.00  0.00    +0.292 HD
ENDBRANCH   3  12
ENDBRANCH   1   2
BRANCH   1  14
ATOM     14  C   UNL     1       2.269  -5.069  -0.856  0.00  0.00    +0.239 C 
ATOM     15  O   UNL     1       3.025  -4.132  -0.710  0.00  0.00    -0.273 OA
ATOM     16  N   UNL     1       2.304  -6.104   0.007  0.00  0.00    -0.311 N 
ATOM     17  H   UNL     1       1.699  -6.853  -0.110  0.00  0.00    +0.149 HD
BRANCH  16  18
ATOM     18  C   UNL     1       3.255  -6.096   1.121  0.00  0.00    +0.073 C 
ATOM     19  C   UNL     1       4.603  -6.639   0.645  0.00  0.00    +0.022 C 
ATOM     20  C   UNL     1       5.596  -6.631   1.809  0.00  0.00    +0.002 C 
ATOM     21  C   UNL     1       5.063  -7.512   2.940  0.00  0.00    +0.000 C 
ATOM     22  C   UNL     1       3.714  -6.970   3.417  0.00  0.00    +0.002 C 
ATOM     23  C   UNL     1       2.721  -6.977   2.253  0.00  0.00    +0.022 C 
ENDBRANCH  16  18
ENDBRANCH   1  14
BRANCH   1  26
ATOM     24  C   UNL     1       1.279  -4.512  -4.373  0.00  0.00    +0.217 C 
ATOM     25  O   UNL     1       1.857  -4.248  -5.406  0.00  0.00    -0.276 OA
ATOM     26  N   UNL     1       1.981  -4.689  -3.236  0.00  0.00    -0.278 N 
BRANCH  24  27
ATOM     27  C   UNL     1      -0.222  -4.641  -4.360  0.00  0.00    +0.096 C 
BRANCH  27  28
ATOM     28  C   UNL     1      -0.759  -4.489  -5.785  0.00  0.00    +0.009 C 
BRANCH  28  30
ATOM     29  C   UNL     1      -2.820  -4.469  -7.197  0.00  0.00    +0.004 C 
ATOM     30  C   UNL     1      -2.283  -4.621  -5.772  0.00  0.00    -0.003 C 
ENDBRANCH  28  30
ENDBRANCH  27  28
ENDBRANCH  24  27
BRANCH  26  31
ATOM     31  C   UNL     1       3.433  -4.494  -3.232  0.00  0.00    +0.183 C 
BRANCH  31  32
ATOM     32  C   UNL     1       3.743  -3.029  -3.397  0.00  0.00    +0.122 A 
ATOM     33  C   UNL     1       4.047  -2.172  -2.406  0.00  0.00    +0.046 A 
ATOM     34  C   UNL     1       4.263  -0.910  -3.006  0.00  0.00    +0.045 A 
ATOM     35  C   UNL     1       4.077  -1.071  -4.329  0.00  0.00    +0.102 A 
ATOM     36  O   UNL     1       3.769  -2.357  -4.561  0.00  0.00    -0.463 OA
ATOM     37  C   UNL     1       4.201   0.008  -5.373  0.00  0.00    +0.086 C 
ENDBRANCH  31  32
ENDBRANCH  26  31
ENDBRANCH   1  26
TORSDOF 12
