REMARK  Name = ZINC32114557
REMARK  11 active torsions:
REMARK  status: ('A' for Active; 'I' for Inactive)
REMARK    1  A    between atoms: C_3  and  C_9
REMARK    2  A    between atoms: C_4  and  O_8
REMARK    3  A    between atoms: C_6  and  O_7
REMARK    4  A    between atoms: N_10  and  N_11
REMARK    5  A    between atoms: C_12  and  C_14
REMARK    6  A    between atoms: C_14  and  N_15
REMARK    7  A    between atoms: C_16  and  C_18
REMARK    8  A    between atoms: C_18  and  C_19
REMARK    9  A    between atoms: C_19  and  C_20
REMARK   10  A    between atoms: C_20  and  O_21
REMARK   11  A    between atoms: O_21  and  C_22
REMARK                            x       y       z     vdW  Elec       q    Type
REMARK                         _______ _______ _______ _____ _____    ______ ____
ROOT
ATOM      1  C   UNL     1       6.635  -4.826  -0.091  0.00  0.00    +0.201 C 
ENDROOT
BRANCH   1   3
ATOM      2  N   UNL     1       7.719  -7.049  -0.114  0.00  0.00    -0.206 N 
ATOM      3  C   UNL     1       6.578  -6.332  -0.099  0.00  0.00    +0.249 C 
ATOM      4  O   UNL     1       5.505  -6.899  -0.092  0.00  0.00    -0.272 OA
ATOM      5  H   UNL     1       8.692  -6.536  -0.121  0.00  0.00    +0.177 HD
BRANCH   2   7
ATOM      6  C   UNL     1       8.765  -9.140  -0.136  0.00  0.00    +0.142 C 
ATOM      7  N   UNL     1       7.666  -8.449  -0.122  0.00  0.00    -0.188 NA
BRANCH   6  10
ATOM      8  C   UNL     1       9.834 -12.736  -0.167  0.00  0.00    +0.046 A 
ATOM      9  C   UNL     1       9.891 -11.359  -0.160  0.00  0.00    +0.016 A 
ATOM     10  C   UNL     1       8.710 -10.612  -0.144  0.00  0.00    +0.036 A 
ATOM     11  C   UNL     1       7.471 -11.270  -0.130  0.00  0.00    +0.129 A 
ATOM     12  C   UNL     1       7.427 -12.653  -0.142  0.00  0.00    +0.091 A 
ATOM     13  C   UNL     1       8.606 -13.385  -0.158  0.00  0.00    +0.120 A 
BRANCH  13  14
ATOM     14  O   UNL     1       8.559 -14.743  -0.165  0.00  0.00    -0.507 OA
ATOM     15  H   UNL     1       7.588 -15.260  -0.158  0.00  0.00    +0.292 HD
ENDBRANCH  13  14
BRANCH  11  16
ATOM     16  O   UNL     1       6.319 -10.553  -0.109  0.00  0.00    -0.506 OA
ATOM     17  H   UNL     1       5.348 -11.070  -0.098  0.00  0.00    +0.292 HD
ENDBRANCH  11  16
ENDBRANCH   6  10
ENDBRANCH   2   7
ENDBRANCH   1   3
BRANCH   1  18
ATOM     18  N   UNL     1       5.273  -4.286  -0.074  0.00  0.00    -0.307 N 
ATOM     19  C   UNL     1       5.077  -2.953  -0.065  0.00  0.00    +0.214 C 
ATOM     20  O   UNL     1       6.028  -2.200  -0.070  0.00  0.00    -0.276 OA
ATOM     21  H   UNL     1       4.411  -4.969  -0.070  0.00  0.00    +0.149 HD
BRANCH  19  22
ATOM     22  C   UNL     1       3.676  -2.397  -0.048  0.00  0.00    +0.099 C 
BRANCH  22  23
ATOM     23  C   UNL     1       3.734  -0.868  -0.040  0.00  0.00    +0.050 C 
BRANCH  23  24
ATOM     24  C   UNL     1       2.312  -0.304  -0.023  0.00  0.00    +0.229 C 
BRANCH  24  25
ATOM     25  O   UNL     1       2.366   1.123  -0.015  0.00  0.00    -0.490 OA
BRANCH  25  26
ATOM     26  C   UNL     1       1.179   1.786   0.000  0.00  0.00    +0.139 A 
ATOM     27  C   UNL     1      -0.013   1.076   0.008  0.00  0.00    +0.048 A 
ATOM     28  C   UNL     1      -1.218   1.751   0.017  0.00  0.00    +0.023 A 
ATOM     29  C   UNL     1      -1.238   3.134   0.031  0.00  0.00    +0.043 A 
ATOM     30  C   UNL     1      -0.051   3.845   0.023  0.00  0.00    +0.043 A 
ATOM     31  C   UNL     1       1.157   3.174   0.008  0.00  0.00    +0.084 A 
ATOM     32 CL   UNL     1       2.647   4.066  -0.002  0.00  0.00    -0.080 Cl
ATOM     33 CL   UNL     1      -2.754   3.979   0.049  0.00  0.00    -0.083 Cl
ENDBRANCH  25  26
ENDBRANCH  24  25
ENDBRANCH  23  24
ENDBRANCH  22  23
ENDBRANCH  19  22
ENDBRANCH   1  18
TORSDOF 11
