REMARK  Name = ZINC23244603
REMARK  10 active torsions:
REMARK  status: ('A' for Active; 'I' for Inactive)
REMARK    1  A    between atoms: C_1  and  C_2
REMARK    2  A    between atoms: C_2  and  O_3
REMARK    3  A    between atoms: O_3  and  C_4
REMARK    4  A    between atoms: C_7  and  C_10
REMARK    5  A    between atoms: N_15  and  C_17
REMARK    6  A    between atoms: C_17  and  C_18
REMARK    7  A    between atoms: C_18  and  N_19
REMARK    8  A    between atoms: N_22  and  S_25
REMARK    9  A    between atoms: S_25  and  C_28
REMARK   10  A    between atoms: C_31  and  N_34
REMARK                            x       y       z     vdW  Elec       q    Type
REMARK                         _______ _______ _______ _____ _____    ______ ____
ROOT
ATOM      1  N   UNL     1       1.193  -2.731  -4.386  0.00  0.00    +0.383 N 
ATOM      2  C   UNL     1       2.408  -2.343  -3.656  0.00  0.00    -0.061 C 
ATOM      3  C   UNL     1       2.481  -3.125  -2.341  0.00  0.00    +0.091 C 
ATOM      4  N   UNL     1       1.223  -2.923  -1.606  0.00  0.00    -0.180 NA
ATOM      5  C   UNL     1      -0.043  -3.166  -2.314  0.00  0.00    +0.091 C 
ATOM      6  C   UNL     1      -0.017  -2.376  -3.632  0.00  0.00    -0.061 C 
ATOM      7  H   UNL     1       1.207  -3.825  -4.501  0.00  0.00    -0.082 HD
ENDROOT
BRANCH   4   8
ATOM      8  S   UNL     1       1.232  -2.441  -0.022  0.00  0.00    +0.061 S 
ATOM      9  O   UNL     1       2.489  -2.832   0.515  0.00  0.00    -0.153 OA
ATOM     10  O   UNL     1      -0.002  -2.866   0.539  0.00  0.00    -0.153 OA
BRANCH   8  11
ATOM     11  C   UNL     1       1.208  -0.679  -0.013  0.00  0.00    +0.106 A 
ATOM     12  C   UNL     1       0.002  -0.004   0.002  0.00  0.00    +0.031 A 
ATOM     13  C   UNL     1      -0.017   1.378   0.010  0.00  0.00    +0.034 A 
ATOM     14  C   UNL     1       1.171   2.086   0.002  0.00  0.00    +0.126 A 
ATOM     15  C   UNL     1       2.377   1.411  -0.015  0.00  0.00    +0.034 A 
ATOM     16  C   UNL     1       2.396   0.029  -0.021  0.00  0.00    +0.031 A 
BRANCH  14  17
ATOM     17  N   UNL     1       1.151   3.566   0.010  0.00  0.00    +0.056 N 
ATOM     18  O   UNL     1       0.088   4.160   0.023  0.00  0.00    -0.126 OA
ATOM     19  O   UNL     1       2.197   4.189   0.003  0.00  0.00    -0.126 OA
ENDBRANCH  14  17
ENDBRANCH   8  11
ENDBRANCH   4   8
BRANCH   1  20
ATOM     20  C   UNL     1       1.172  -2.134  -5.728  0.00  0.00    -0.055 C 
BRANCH  20  21
ATOM     21  C   UNL     1      -0.205  -2.350  -6.360  0.00  0.00    +0.129 C 
BRANCH  21  27
ATOM     22  C   UNL     1      -0.630   0.066  -9.000  0.00  0.00    +0.092 A 
ATOM     23  C   UNL     1      -0.270  -0.639 -10.172  0.00  0.00    +0.035 A 
ATOM     24  C   UNL     1       0.117  -1.941 -10.050  0.00  0.00    +0.074 A 
ATOM     25  C   UNL     1       0.139  -2.505  -8.755  0.00  0.00    +0.267 A 
ATOM     26  O   UNL     1       0.483  -3.665  -8.595  0.00  0.00    -0.266 OA
ATOM     27  N   UNL     1      -0.226  -1.754  -7.698  0.00  0.00    -0.231 N 
ATOM     28  N   UNL     1      -0.588  -0.530  -7.832  0.00  0.00    -0.168 NA
BRANCH  22  32
ATOM     29  C   UNL     1      -1.853   4.131  -9.263  0.00  0.00    +0.121 A 
ATOM     30  C   UNL     1      -1.808   3.500  -8.028  0.00  0.00    +0.046 A 
ATOM     31  C   UNL     1      -1.412   2.182  -7.939  0.00  0.00    +0.013 A 
ATOM     32  C   UNL     1      -1.056   1.484  -9.092  0.00  0.00    +0.002 A 
ATOM     33  C   UNL     1      -1.096   2.122 -10.331  0.00  0.00    +0.013 A 
ATOM     34  C   UNL     1      -1.499   3.438 -10.413  0.00  0.00    +0.046 A 
BRANCH  29  35
ATOM     35  O   UNL     1      -2.244   5.429  -9.348  0.00  0.00    -0.492 OA
BRANCH  35  37
ATOM     36  C   UNL     1      -2.730   7.472 -10.545  0.00  0.00    +0.048 C 
ATOM     37  C   UNL     1      -2.267   6.017 -10.650  0.00  0.00    +0.225 C 
ENDBRANCH  35  37
ENDBRANCH  29  35
ENDBRANCH  22  32
ENDBRANCH  21  27
ENDBRANCH  20  21
ENDBRANCH   1  20
TORSDOF 9
