REMARK  Name = ZINC12200808
REMARK  3 active torsions:
REMARK  status: ('A' for Active; 'I' for Inactive)
REMARK    1  A    between atoms: C_1  and  C_2
REMARK    2  A    between atoms: N_7  and  N_8
REMARK    3  A    between atoms: C_14  and  C_15
REMARK                            x       y       z     vdW  Elec       q    Type
REMARK                         _______ _______ _______ _____ _____    ______ ____
ROOT
ATOM      1  C   UNL     1      -0.018   1.503   0.010  0.00  0.00    +0.064 C 
ATOM      2  C   UNL     1       0.002  -0.004   0.002  0.00  0.00    +0.022 A 
ATOM      3  C   UNL     1       0.006  -0.663  -1.159  0.00  0.00    +0.069 A 
ATOM      4  S   UNL     1       0.031  -2.366  -0.620  0.00  0.00    -0.056 S 
ATOM      5  C   UNL     1       0.035  -2.063   1.140  0.00  0.00    +0.192 A 
ATOM      6  N   UNL     1       0.022  -0.689   1.178  0.00  0.00    -0.336 N 
ATOM      7  N   UNL     1       0.052  -2.929   2.140  0.00  0.00    -0.124 NA
ATOM      8  H   UNL     1       0.024  -0.217   2.025  0.00  0.00    +0.168 HD
ENDROOT
BRANCH   7   9
ATOM      9  N   UNL     1       0.070  -4.305   1.876  0.00  0.00    -0.156 NA
ATOM     10  C   UNL     1       0.086  -5.153   2.854  0.00  0.00    +0.044 C 
ATOM     11  C   UNL     1       0.080  -4.679   4.291  0.00  0.00    +0.053 C 
ATOM     12  C   UNL     1       1.227  -5.369   5.037  0.00  0.00    +0.006 C 
ATOM     13  C   UNL     1       1.102  -6.884   4.872  0.00  0.00    +0.001 C 
ATOM     14  C   UNL     1       1.258  -7.260   3.398  0.00  0.00    +0.009 C 
ATOM     15  C   UNL     1       0.106  -6.642   2.591  0.00  0.00    +0.032 C 
ATOM     16  C   UNL     1       0.327  -6.897   1.098  0.00  0.00    +0.014 C 
ENDBRANCH   7   9
TORSDOF 1
