REMARK  Name = ZINC35642287
REMARK  13 active torsions:
REMARK  status: ('A' for Active; 'I' for Inactive)
REMARK    1  A    between atoms: C_1  and  C_2
REMARK    2  A    between atoms: C_2  and  O_3
REMARK    3  A    between atoms: O_3  and  C_4
REMARK    4  A    between atoms: C_4  and  C_6
REMARK    5  A    between atoms: C_7  and  C_25
REMARK    6  A    between atoms: N_8  and  C_24
REMARK    7  A    between atoms: C_12  and  C_14
REMARK    8  A    between atoms: C_17  and  O_22
REMARK    9  A    between atoms: C_18  and  O_20
REMARK   10  A    between atoms: O_20  and  C_21
REMARK   11  A    between atoms: O_22  and  C_23
REMARK   12  A    between atoms: C_25  and  N_26
REMARK   13  A    between atoms: C_33  and  C_35
REMARK                            x       y       z     vdW  Elec       q    Type
REMARK                         _______ _______ _______ _____ _____    ______ ____
ROOT
ATOM      1  C   UNL     1       2.277  -2.236   2.454  0.00  0.00    +0.076 C 
ATOM      2  C   UNL     1       2.111  -3.564   2.634  0.00  0.00    +0.010 C 
ATOM      3  N   UNL     1       2.376  -4.150   3.839  0.00  0.00    -0.264 N 
ATOM      4  C   UNL     1       2.811  -3.478   4.912  0.00  0.00    +0.307 C 
ATOM      5  O   UNL     1       3.020  -4.087   5.943  0.00  0.00    -0.252 OA
ATOM      6  N   UNL     1       3.025  -2.147   4.887  0.00  0.00    -0.288 N 
ATOM      7  C   UNL     1       2.774  -1.421   3.631  0.00  0.00    +0.144 C 
ATOM      8  C   UNL     1       2.173  -5.596   3.964  0.00  0.00    +0.139 C 
ATOM      9  H   UNL     1       3.339  -1.680   5.676  0.00  0.00    +0.151 HD
ENDROOT
BRANCH   7  10
ATOM     10  C   UNL     1       1.755  -0.348   3.915  0.00  0.00    -0.019 A 
ATOM     11  C   UNL     1       0.654  -0.633   4.702  0.00  0.00    +0.009 A 
ATOM     12  C   UNL     1      -0.283   0.347   4.966  0.00  0.00    +0.050 A 
ATOM     13  C   UNL     1      -0.121   1.620   4.443  0.00  0.00    +0.162 A 
ATOM     14  C   UNL     1       0.987   1.907   3.651  0.00  0.00    +0.162 A 
ATOM     15  C   UNL     1       1.925   0.921   3.394  0.00  0.00    +0.055 A 
BRANCH  14  16
ATOM     16  O   UNL     1       1.150   3.155   3.135  0.00  0.00    -0.491 OA
ATOM     17  C   UNL     1       2.252   3.350   2.245  0.00  0.00    +0.277 C 
ENDBRANCH  14  16
BRANCH  13  18
ATOM     18  O   UNL     1      -1.043   2.586   4.701  0.00  0.00    -0.491 OA
ATOM     19  C   UNL     1      -2.155   2.219   5.521  0.00  0.00    +0.277 C 
ENDBRANCH  13  18
ENDBRANCH   7  10
BRANCH   1  20
ATOM     20  C   UNL     1       2.004  -1.628   1.206  0.00  0.00    +0.339 C 
ATOM     21  O   UNL     1       2.920  -1.289   0.480  0.00  0.00    -0.245 OA
BRANCH  20  22
ATOM     22  O   UNL     1       0.727  -1.423   0.821  0.00  0.00    -0.462 OA
BRANCH  22  24
ATOM     23  C   UNL     1      -0.969  -0.626  -0.706  0.00  0.00    +0.048 C 
ATOM     24  C   UNL     1       0.521  -0.906  -0.495  0.00  0.00    +0.229 C 
ENDBRANCH  22  24
ENDBRANCH  20  22
ENDBRANCH   1  20
BRANCH   2  25
ATOM     25  C   UNL     1       1.624  -4.413   1.488  0.00  0.00    -0.026 C 
BRANCH  25  26
ATOM     26  N   UNL     1       2.763  -4.792   0.641  0.00  0.00    +0.384 N 
ATOM     27  C   UNL     1       2.246  -5.426  -0.570  0.00  0.00    -0.077 C 
ATOM     28  C   UNL     1       3.207  -5.179  -1.711  0.00  0.00    +0.000 C 
ATOM     29  C   UNL     1       4.190  -6.358  -1.818  0.00  0.00    +0.106 C 
ATOM     30  N   UNL     1       4.607  -6.825  -0.480  0.00  0.00    -0.297 N 
ATOM     31  C   UNL     1       4.918  -5.909   0.598  0.00  0.00    +0.089 C 
ATOM     32  C   UNL     1       3.638  -5.595   1.406  0.00  0.00    -0.059 C 
ATOM     33  C   UNL     1       4.700  -8.150  -0.254  0.00  0.00    +0.282 C 
ATOM     34  O   UNL     1       4.547  -8.936  -1.171  0.00  0.00    -0.267 OA
ATOM     35  H   UNL     1       3.253  -3.952   0.374  0.00  0.00    -0.081 HD
BRANCH  33  36
ATOM     36  C   UNL     1       4.986  -8.646   1.096  0.00  0.00    +0.189 A 
ATOM     37  C   UNL     1       5.054  -9.956   1.473  0.00  0.00    +0.054 A 
ATOM     38  C   UNL     1       5.350  -9.968   2.845  0.00  0.00    +0.042 A 
ATOM     39  C   UNL     1       5.449  -8.680   3.241  0.00  0.00    +0.196 A 
ATOM     40  O   UNL     1       5.234  -7.886   2.183  0.00  0.00    -0.458 OA
ENDBRANCH  33  36
ENDBRANCH  25  26
ENDBRANCH   2  25
TORSDOF 9
