REMARK  Name = ZINC09469414
REMARK  7 active torsions:
REMARK  status: ('A' for Active; 'I' for Inactive)
REMARK    1  A    between atoms: C_1  and  C_2
REMARK    2  A    between atoms: C_2  and  C_3
REMARK    3  A    between atoms: C_8  and  N_9
REMARK    4  A    between atoms: C_12  and  C_17
REMARK    5  A    between atoms: C_17  and  S_18
REMARK    6  A    between atoms: S_18  and  C_19
REMARK    7  A    between atoms: C_22  and  C_24
REMARK                            x       y       z     vdW  Elec       q    Type
REMARK                         _______ _______ _______ _____ _____    ______ ____
ROOT
ATOM      1  N   UNL     1       8.776  10.078   2.321  0.00  0.00    -0.283 N 
ATOM      2  C   UNL     1       8.376   9.517   1.124  0.00  0.00    +0.224 A 
ATOM      3  N   UNL     1       7.631   8.413   1.122  0.00  0.00    -0.198 NA
ATOM      4  C   UNL     1       7.247   7.876  -0.022  0.00  0.00    +0.146 A 
ATOM      5  N   UNL     1       7.605   8.428  -1.169  0.00  0.00    -0.199 NA
ATOM      6  C   UNL     1       8.346   9.534  -1.174  0.00  0.00    +0.217 A 
ATOM      7  N   UNL     1       8.733  10.077  -0.026  0.00  0.00    -0.181 NA
ATOM      8  N   UNL     1       8.714  10.112  -2.372  0.00  0.00    -0.327 N 
ATOM      9  H   UNL     1       8.445   9.720   3.160  0.00  0.00    +0.155 HD
ATOM     10  H   UNL     1       9.257  10.916  -2.375  0.00  0.00    +0.145 HD
ATOM     11  H   UNL     1       8.431   9.715  -3.210  0.00  0.00    +0.145 HD
ENDROOT
BRANCH   1  17
ATOM     12  C   UNL     1       9.678  12.041   3.400  0.00  0.00    -0.026 A 
ATOM     13  C   UNL     1      10.550  13.112   3.400  0.00  0.00    +0.005 A 
ATOM     14  C   UNL     1      11.404  13.310   2.330  0.00  0.00    +0.000 A 
ATOM     15  C   UNL     1      11.387  12.437   1.257  0.00  0.00    +0.002 A 
ATOM     16  C   UNL     1      10.521  11.361   1.254  0.00  0.00    +0.023 A 
ATOM     17  C   UNL     1       9.658  11.163   2.324  0.00  0.00    +0.037 A 
BRANCH  12  19
ATOM     18  C   UNL     1       9.381  10.840   5.549  0.00  0.00    +0.009 C 
ATOM     19  C   UNL     1       8.747  11.827   4.566  0.00  0.00    +0.033 C 
ENDBRANCH  12  19
ENDBRANCH   1  17
BRANCH   4  20
ATOM     20  C   UNL     1       6.404   6.627  -0.021  0.00  0.00    +0.155 C 
BRANCH  20  21
ATOM     21  S   UNL     1       4.652   7.082   0.006  0.00  0.00    -0.058 S 
BRANCH  21  22
ATOM     22  C   UNL     1       3.920   5.479   0.003  0.00  0.00    +0.278 A 
ATOM     23  N   UNL     1       4.560   4.332  -0.014  0.00  0.00    -0.101 NA
ATOM     24  N   UNL     1       3.709   3.367  -0.005  0.00  0.00    -0.106 NA
ATOM     25  C   UNL     1       2.494   3.858   0.009  0.00  0.00    +0.252 A 
ATOM     26  O   UNL     1       2.602   5.205   0.019  0.00  0.00    -0.411 OA
BRANCH  25  27
ATOM     27  C   UNL     1       1.237   3.081   0.020  0.00  0.00    +0.074 A 
ATOM     28  C   UNL     1       1.275   1.685   0.009  0.00  0.00    +0.016 A 
ATOM     29  C   UNL     1       0.099   0.966   0.019  0.00  0.00    +0.001 A 
ATOM     30  C   UNL     1      -1.119   1.623   0.035  0.00  0.00    +0.003 A 
ATOM     31  C   UNL     1      -1.167   3.005   0.052  0.00  0.00    +0.039 A 
ATOM     32  C   UNL     1       0.004   3.740   0.042  0.00  0.00    +0.136 A 
ATOM     33  F   UNL     1      -0.042   5.090   0.053  0.00  0.00    -0.205 F 
ENDBRANCH  25  27
ENDBRANCH  21  22
ENDBRANCH  20  21
ENDBRANCH   4  20
TORSDOF 6
