REMARK  Name = ZINC12384451
REMARK  10 active torsions:
REMARK  status: ('A' for Active; 'I' for Inactive)
REMARK    1  A    between atoms: C_1  and  C_2
REMARK    2  A    between atoms: C_2  and  C_38
REMARK    3  A    between atoms: C_6  and  C_24
REMARK    4  A    between atoms: C_12  and  C_16
REMARK    5  A    between atoms: C_16  and  C_18
REMARK    6  A    between atoms: C_26  and  O_33
REMARK    7  A    between atoms: C_27  and  O_32
REMARK    8  A    between atoms: C_28  and  O_30
REMARK    9  A    between atoms: O_30  and  C_31
REMARK   10  A    between atoms: O_33  and  C_34
REMARK                            x       y       z     vdW  Elec       q    Type
REMARK                         _______ _______ _______ _____ _____    ______ ____
ROOT
ATOM      1  C   UNL     1      -2.011   1.272  -1.322  0.00  0.00    +0.011 C 
ATOM      2  C   UNL     1      -1.709   2.769  -1.404  0.00  0.00    -0.023 C 
ATOM      3  C   UNL     1      -2.173   3.462  -0.124  0.00  0.00    +0.058 C 
ATOM      4  C   UNL     1      -1.447   2.877   1.076  0.00  0.00    +0.017 C 
ATOM      5  C   UNL     1      -0.191   2.413   0.956  0.00  0.00    +0.036 C 
ATOM      6  C   UNL     1       0.641   1.816   2.064  0.00  0.00    +0.136 C 
ATOM      7  N   UNL     1       0.093   1.997   3.391  0.00  0.00    -0.331 N 
ATOM      8  C   UNL     1      -1.104   1.407   3.760  0.00  0.00    +0.049 A 
ATOM      9  C   UNL     1      -1.147   0.387   4.703  0.00  0.00    +0.025 A 
ATOM     10  C   UNL     1      -2.341  -0.252   4.961  0.00  0.00    +0.013 A 
ATOM     11  C   UNL     1      -3.504   0.124   4.279  0.00  0.00    +0.024 A 
ATOM     12  C   UNL     1      -3.461   1.168   3.345  0.00  0.00    +0.036 A 
ATOM     13  C   UNL     1      -2.264   1.812   3.109  0.00  0.00    +0.053 A 
ATOM     14  N   UNL     1      -2.160   2.885   2.232  0.00  0.00    -0.316 N 
ATOM     15  C   UNL     1       0.467   2.457  -0.296  0.00  0.00    +0.163 C 
ATOM     16  O   UNL     1       1.609   2.050  -0.373  0.00  0.00    -0.292 OA
ATOM     17  C   UNL     1      -0.197   2.989  -1.531  0.00  0.00    +0.086 C 
ATOM     18  C   UNL     1      -2.426   3.377  -2.611  0.00  0.00    +0.011 C 
ATOM     19  H   UNL     1       0.574   2.539   4.036  0.00  0.00    +0.147 HD
ATOM     20  H   UNL     1      -2.631   3.701   2.462  0.00  0.00    +0.152 HD
ENDROOT
BRANCH   6  21
ATOM     21  C   UNL     1       0.789   0.339   1.806  0.00  0.00    -0.016 A 
ATOM     22  C   UNL     1       2.049  -0.229   1.752  0.00  0.00    +0.055 A 
ATOM     23  C   UNL     1       2.189  -1.589   1.521  0.00  0.00    +0.165 A 
ATOM     24  C   UNL     1       1.061  -2.380   1.331  0.00  0.00    +0.201 A 
ATOM     25  C   UNL     1      -0.203  -1.804   1.381  0.00  0.00    +0.165 A 
ATOM     26  C   UNL     1      -0.334  -0.444   1.619  0.00  0.00    +0.055 A 
BRANCH  25  27
ATOM     27  O   UNL     1      -1.309  -2.573   1.196  0.00  0.00    -0.491 OA
ATOM     28  C   UNL     1      -2.575  -1.914   1.260  0.00  0.00    +0.277 C 
ENDBRANCH  25  27
BRANCH  24  29
ATOM     29  O   UNL     1       1.195  -3.714   1.098  0.00  0.00    -0.501 OA
ATOM     30  H   UNL     1       1.270  -3.943   0.162  0.00  0.00    +0.292 HD
ENDBRANCH  24  29
BRANCH  23  31
ATOM     31  O   UNL     1       3.428  -2.148   1.474  0.00  0.00    -0.491 OA
ATOM     32  C   UNL     1       4.537  -1.291   1.755  0.00  0.00    +0.277 C 
ENDBRANCH  23  31
ENDBRANCH   6  21
BRANCH  11  33
ATOM     33  C   UNL     1      -4.773  -0.577   4.543  0.00  0.00    +0.193 C 
ATOM     34  O   UNL     1      -5.824   0.035   4.508  0.00  0.00    -0.287 OA
BRANCH  33  35
ATOM     35  C   UNL     1      -4.769  -2.022   4.850  0.00  0.00    +0.022 A 
ATOM     36  C   UNL     1      -3.590  -2.762   4.728  0.00  0.00    +0.012 A 
ATOM     37  C   UNL     1      -3.592  -4.110   5.020  0.00  0.00    +0.001 A 
ATOM     38  C   UNL     1      -4.761  -4.732   5.423  0.00  0.00    +0.000 A 
ATOM     39  C   UNL     1      -5.933  -4.006   5.541  0.00  0.00    +0.001 A 
ATOM     40  C   UNL     1      -5.944  -2.656   5.257  0.00  0.00    +0.012 A 
ENDBRANCH  33  35
ENDBRANCH  11  33
TORSDOF 6
