REMARK  Name = ZINC16927399
REMARK  10 active torsions:
REMARK  status: ('A' for Active; 'I' for Inactive)
REMARK    1  A    between atoms: C_1  and  C_2
REMARK    2  A    between atoms: C_2  and  C_4
REMARK    3  A    between atoms: C_2  and  N_47
REMARK    4  A    between atoms: C_7  and  S_16
REMARK    5  A    between atoms: N_8  and  C_9
REMARK    6  A    between atoms: S_16  and  C_17
REMARK    7  A    between atoms: C_17  and  C_18
REMARK    8  A    between atoms: N_23  and  C_24
REMARK    9  A    between atoms: C_25  and  N_47
REMARK   10  A    between atoms: C_26  and  N_47
REMARK                            x       y       z     vdW  Elec       q    Type
REMARK                         _______ _______ _______ _____ _____    ______ ____
ROOT
ATOM      1  C   UNL     1      -1.735   3.449   0.092  0.00  0.00    +0.125 A 
ATOM      2  N   UNL     1      -1.709   3.008  -1.134  0.00  0.00    -0.135 NA
ATOM      3  N   UNL     1      -2.626   3.580  -1.830  0.00  0.00    -0.122 NA
ATOM      4  C   UNL     1      -3.289   4.431  -1.081  0.00  0.00    +0.197 A 
ATOM      5  N   UNL     1      -2.741   4.375   0.171  0.00  0.00    -0.275 N 
ENDROOT
BRANCH   5   6
ATOM      6  C   UNL     1      -3.128   5.112   1.300  0.00  0.00    +0.050 A 
ATOM      7  C   UNL     1      -3.666   4.462   2.402  0.00  0.00    +0.028 A 
ATOM      8  C   UNL     1      -4.041   5.189   3.515  0.00  0.00    +0.022 A 
ATOM      9  C   UNL     1      -3.893   6.565   3.527  0.00  0.00    +0.041 A 
ATOM     10  C   UNL     1      -3.362   7.215   2.427  0.00  0.00    +0.022 A 
ATOM     11  C   UNL     1      -2.980   6.492   1.314  0.00  0.00    +0.028 A 
ATOM     12 CL   UNL     1      -4.372   7.477   4.924  0.00  0.00    -0.084 Cl
ENDBRANCH   5   6
BRANCH   1  14
ATOM     13  C   UNL     1       0.559   3.650   1.013  0.00  0.00    -0.005 C 
ATOM     14  C   UNL     1      -0.822   3.023   1.213  0.00  0.00    -0.003 C 
BRANCH  14  17
ATOM     15  C   UNL     1      -0.013   1.086   0.008  0.00  0.00    -0.096 C 
ATOM     16  C   UNL     1      -0.016   1.091   2.429  0.00  0.00    -0.096 C 
ATOM     17  N   UNL     1      -0.727   1.548   1.217  0.00  0.00    +0.382 N 
ATOM     18  H   UNL     1      -1.674   1.153   1.216  0.00  0.00    -0.082 HD
ENDBRANCH  14  17
ENDBRANCH   1  14
BRANCH   4  19
ATOM     19  S   UNL     1      -4.631   5.452  -1.593  0.00  0.00    -0.076 S 
BRANCH  19  20
ATOM     20  C   UNL     1      -4.755   4.961  -3.331  0.00  0.00    +0.173 C 
BRANCH  20  21
ATOM     21  C   UNL     1      -5.871   5.729  -3.991  0.00  0.00    +0.231 C 
ATOM     22  O   UNL     1      -6.519   6.528  -3.350  0.00  0.00    -0.274 OA
ATOM     23  N   UNL     1      -6.149   5.526  -5.294  0.00  0.00    -0.240 N 
ATOM     24  C   UNL     1      -7.147   6.213  -5.885  0.00  0.00    +0.306 C 
ATOM     25  O   UNL     1      -7.796   7.014  -5.243  0.00  0.00    -0.252 OA
ATOM     26  N   UNL     1      -7.425   6.010  -7.188  0.00  0.00    -0.302 N 
ATOM     27  C   UNL     1      -8.510   6.756  -7.830  0.00  0.00    +0.129 C 
ATOM     28  H   UNL     1      -5.630   4.886  -5.807  0.00  0.00    +0.159 HD
ATOM     29  H   UNL     1      -6.907   5.370  -7.701  0.00  0.00    +0.150 HD
ENDBRANCH  20  21
ENDBRANCH  19  20
ENDBRANCH   4  19
TORSDOF 6
