REMARK  Name = ZINC37628106
REMARK  7 active torsions:
REMARK  status: ('A' for Active; 'I' for Inactive)
REMARK    1  A    between atoms: C_5  and  O_17
REMARK    2  A    between atoms: C_6  and  N_7
REMARK    3  A    between atoms: C_8  and  C_10
REMARK    4  A    between atoms: C_10  and  C_12
REMARK    5  A    between atoms: C_10  and  N_16
REMARK    6  A    between atoms: C_12  and  C_13
REMARK    7  A    between atoms: O_17  and  C_18
REMARK                            x       y       z     vdW  Elec       q    Type
REMARK                         _______ _______ _______ _____ _____    ______ ____
ROOT
ATOM      1  N   UNL     1      -1.201  -0.723   0.010  0.00  0.00    -0.284 N 
ATOM      2  C   UNL     1      -2.374  -0.071   0.127  0.00  0.00    +0.203 C 
ATOM      3  O   UNL     1      -2.397   1.142   0.134  0.00  0.00    -0.277 OA
ATOM      4  H   UNL     1      -1.188  -1.690  -0.060  0.00  0.00    +0.155 HD
ENDROOT
BRANCH   1  10
ATOM      5  C   UNL     1       0.054   1.247  -0.608  0.00  0.00    +0.047 A 
ATOM      6  C   UNL     1       1.241   1.956  -0.625  0.00  0.00    +0.044 A 
ATOM      7  C   UNL     1       2.379   1.421  -0.048  0.00  0.00    +0.039 A 
ATOM      8  C   UNL     1       2.333   0.174   0.550  0.00  0.00    +0.063 A 
ATOM      9  C   UNL     1       1.147  -0.542   0.572  0.00  0.00    +0.162 A 
ATOM     10  C   UNL     1       0.001  -0.003  -0.009  0.00  0.00    +0.078 A 
ATOM     11 BR   UNL     1       3.891  -0.554   1.338  0.00  0.00    -0.046 Br
ATOM     12 CL   UNL     1       1.305   3.521  -1.375  0.00  0.00    -0.083 Cl
BRANCH   9  13
ATOM     13  O   UNL     1       1.101  -1.768   1.159  0.00  0.00    -0.431 OA
BRANCH  13  14
ATOM     14  C   UNL     1       0.772  -1.810   2.549  0.00  0.00    +0.541 C 
ATOM     15  F   UNL     1       1.720  -1.081   3.275  0.00  0.00    -0.166 F 
ATOM     16  F   UNL     1      -0.496  -1.252   2.745  0.00  0.00    -0.166 F 
ENDBRANCH  13  14
ENDBRANCH   9  13
ENDBRANCH   1  10
BRANCH   2  17
ATOM     17  C   UNL     1      -3.660  -0.849   0.249  0.00  0.00    +0.022 C 
BRANCH  17  18
ATOM     18  N   UNL     1      -4.699   0.012   0.830  0.00  0.00    +0.386 N 
ATOM     19  H   UNL     1      -4.406   0.323   1.744  0.00  0.00    -0.089 HD
ATOM     20  H   UNL     1      -4.846   0.812   0.233  0.00  0.00    -0.089 HD
ATOM     21  H   UNL     1      -5.560  -0.509   0.911  0.00  0.00    -0.089 HD
ENDBRANCH  17  18
BRANCH  17  22
ATOM     22  C   UNL     1      -4.104  -1.321  -1.137  0.00  0.00    +0.088 C 
BRANCH  22  23
ATOM     23  C   UNL     1      -5.320  -2.201  -1.002  0.00  0.00    +0.209 C 
ATOM     24  O   UNL     1      -5.785  -2.428   0.095  0.00  0.00    -0.276 OA
ATOM     25  N   UNL     1      -5.890  -2.735  -2.100  0.00  0.00    -0.329 N 
ATOM     26  H   UNL     1      -5.517  -2.554  -2.977  0.00  0.00    +0.145 HD
ATOM     27  H   UNL     1      -6.672  -3.302  -2.013  0.00  0.00    +0.145 HD
ENDBRANCH  22  23
ENDBRANCH  17  22
ENDBRANCH   2  17
TORSDOF 7
