REMARK  Name = ZINC38704888
REMARK  13 active torsions:
REMARK  status: ('A' for Active; 'I' for Inactive)
REMARK    1  A    between atoms: C_1  and  C_2
REMARK    2  A    between atoms: C_2  and  C_3
REMARK    3  A    between atoms: C_3  and  N_4
REMARK    4  A    between atoms: C_5  and  C_24
REMARK    5  A    between atoms: C_8  and  C_15
REMARK    6  A    between atoms: C_16  and  C_23
REMARK    7  A    between atoms: C_18  and  C_22
REMARK    8  A    between atoms: C_20  and  O_21
REMARK    9  A    between atoms: C_27  and  O_32
REMARK   10  A    between atoms: C_28  and  O_30
REMARK   11  A    between atoms: O_30  and  C_31
REMARK   12  A    between atoms: O_32  and  C_33
REMARK   13  A    between atoms: C_33  and  C_34
REMARK                            x       y       z     vdW  Elec       q    Type
REMARK                         _______ _______ _______ _____ _____    ______ ____
ROOT
ATOM      1  N   UNL     1      -1.435  -2.067  -0.073  0.00  0.00    -0.285 N 
ATOM      2  C   UNL     1      -1.348  -2.970  -1.228  0.00  0.00    +0.141 C 
ATOM      3  C   UNL     1      -1.367  -4.366  -0.667  0.00  0.00    +0.035 A 
ATOM      4  C   UNL     1      -1.333  -5.740  -0.924  0.00  0.00    +0.102 A 
ATOM      5  N   UNL     1      -1.401  -6.361   0.237  0.00  0.00    -0.173 NA
ATOM      6  N   UNL     1      -1.475  -5.514   1.202  0.00  0.00    -0.272 N 
ATOM      7  H   UNL     1      -1.534  -5.745   2.142  0.00  0.00    +0.189 HD
ATOM      8  C   UNL     1      -1.459  -4.242   0.706  0.00  0.00    +0.126 A 
ATOM      9  C   UNL     1      -1.494  -2.814   1.044  0.00  0.00    +0.265 C 
ATOM     10  O   UNL     1      -1.568  -2.370   2.174  0.00  0.00    -0.268 OA
ENDROOT
BRANCH   4  11
ATOM     11  C   UNL     1      -1.238  -6.383  -2.259  0.00  0.00    +0.047 A 
ATOM     12  C   UNL     1      -2.116  -7.406  -2.607  0.00  0.00    -0.037 A 
ATOM     13  C   UNL     1      -2.024  -7.999  -3.849  0.00  0.00    +0.007 A 
ATOM     14  C   UNL     1      -1.062  -7.582  -4.752  0.00  0.00    -0.047 A 
ATOM     15  C   UNL     1      -0.185  -6.567  -4.416  0.00  0.00    +0.049 A 
ATOM     16  C   UNL     1      -0.270  -5.959  -3.174  0.00  0.00    +0.127 A 
ATOM     17  C   UNL     1      -0.968  -8.237  -6.106  0.00  0.00    +0.044 C 
ATOM     18  C   UNL     1      -3.165  -7.865  -1.627  0.00  0.00    +0.044 C 
BRANCH  16  19
ATOM     19  O   UNL     1       0.587  -4.958  -2.845  0.00  0.00    -0.506 OA
ATOM     20  H   UNL     1       1.435  -5.265  -2.495  0.00  0.00    +0.292 HD
ENDBRANCH  16  19
ENDBRANCH   4  11
BRANCH   2  21
ATOM     21  C   UNL     1      -2.528  -2.760  -2.140  0.00  0.00    -0.019 A 
ATOM     22  C   UNL     1      -3.799  -2.640  -1.609  0.00  0.00    +0.009 A 
ATOM     23  C   UNL     1      -4.885  -2.447  -2.442  0.00  0.00    +0.050 A 
ATOM     24  C   UNL     1      -4.702  -2.374  -3.814  0.00  0.00    +0.162 A 
ATOM     25  C   UNL     1      -3.423  -2.494  -4.349  0.00  0.00    +0.162 A 
ATOM     26  C   UNL     1      -2.338  -2.682  -3.507  0.00  0.00    +0.055 A 
BRANCH  25  27
ATOM     27  O   UNL     1      -3.237  -2.423  -5.694  0.00  0.00    -0.491 OA
ATOM     28  C   UNL     1      -1.897  -2.554  -6.172  0.00  0.00    +0.277 C 
ENDBRANCH  25  27
BRANCH  24  29
ATOM     29  O   UNL     1      -5.769  -2.185  -4.635  0.00  0.00    -0.489 OA
BRANCH  29  30
ATOM     30  C   UNL     1      -7.052  -2.071  -4.016  0.00  0.00    +0.226 C 
ATOM     31  C   UNL     1      -8.120  -1.863  -5.091  0.00  0.00    +0.048 C 
ENDBRANCH  29  30
ENDBRANCH  24  29
ENDBRANCH   2  21
BRANCH   1  32
ATOM     32  C   UNL     1      -1.450  -0.603  -0.127  0.00  0.00    +0.109 C 
BRANCH  32  34
ATOM     33  C   UNL     1      -0.030   1.453  -0.115  0.00  0.00    +0.005 C 
ATOM     34  C   UNL     1      -0.015  -0.076  -0.058  0.00  0.00    +0.016 C 
ENDBRANCH  32  34
ENDBRANCH   1  32
TORSDOF 8
