REMARK  Name = ZINC07744566
REMARK  11 active torsions:
REMARK  status: ('A' for Active; 'I' for Inactive)
REMARK    1  A    between atoms: C_1  and  C_2
REMARK    2  A    between atoms: C_6  and  C_31
REMARK    3  A    between atoms: C_7  and  N_8
REMARK    4  A    between atoms: C_9  and  C_11
REMARK    5  A    between atoms: C_11  and  N_12
REMARK    6  A    between atoms: C_13  and  C_15
REMARK    7  A    between atoms: C_15  and  C_17
REMARK    8  A    between atoms: C_15  and  N_62
REMARK    9  A    between atoms: C_18  and  C_20
REMARK   10  A    between atoms: C_18  and  C_21
REMARK   11  A    between atoms: C_18  and  N_62
REMARK                            x       y       z     vdW  Elec       q    Type
REMARK                         _______ _______ _______ _____ _____    ______ ____
ROOT
ATOM      1  N   UNL     1      -1.073   1.884   3.710  0.00  0.00    -0.308 N 
ATOM      2  C   UNL     1       0.212   2.125   3.385  0.00  0.00    +0.199 C 
ATOM      3  O   UNL     1       0.697   3.217   3.596  0.00  0.00    -0.278 OA
ATOM      4  H   UNL     1      -1.461   1.011   3.541  0.00  0.00    +0.149 HD
ENDROOT
BRANCH   2   5
ATOM      5  C   UNL     1       1.048   1.039   2.758  0.00  0.00    +0.014 C 
ATOM      6  C   UNL     1       1.125  -0.157   3.710  0.00  0.00    -0.004 C 
BRANCH   5   7
ATOM      7  N   UNL     1       2.409   1.547   2.508  0.00  0.00    +0.391 N 
ATOM      8  H   UNL     1       3.063   0.756   2.462  0.00  0.00    -0.084 HD
ATOM      9  H   UNL     1       2.683   2.173   3.274  0.00  0.00    -0.084 HD
BRANCH   7  10
ATOM     10  C   UNL     1       2.453   2.288   1.233  0.00  0.00    -0.043 C 
ATOM     11  C   UNL     1       2.812   1.329   0.097  0.00  0.00    -0.009 C 
BRANCH  10  12
ATOM     12  C   UNL     1       3.498   3.371   1.326  0.00  0.00    -0.061 A 
ATOM     13  C   UNL     1       4.699   3.122   1.963  0.00  0.00    +0.002 A 
ATOM     14  C   UNL     1       5.649   4.119   2.046  0.00  0.00    +0.004 A 
ATOM     15  C   UNL     1       5.409   5.371   1.494  0.00  0.00    -0.044 A 
ATOM     16  C   UNL     1       4.215   5.617   0.855  0.00  0.00    -0.044 A 
ATOM     17  C   UNL     1       3.260   4.611   0.770  0.00  0.00    +0.006 A 
ATOM     18  C   UNL     1       3.890   6.946   0.226  0.00  0.00    +0.035 C 
ATOM     19  C   UNL     1       4.814   8.036   0.766  0.00  0.00    +0.005 C 
ATOM     20  C   UNL     1       6.263   7.551   0.634  0.00  0.00    +0.005 C 
ATOM     21  C   UNL     1       6.484   6.417   1.633  0.00  0.00    +0.035 C 
ENDBRANCH  10  12
ENDBRANCH   7  10
ENDBRANCH   5   7
ENDBRANCH   2   5
BRANCH   1  22
ATOM     22  C   UNL     1      -1.886   2.941   4.319  0.00  0.00    +0.200 C 
BRANCH  22  24
ATOM     23  N   UNL     1      -4.201   3.220   5.143  0.00  0.00    -0.284 N 
ATOM     24  C   UNL     1      -3.274   2.418   4.582  0.00  0.00    +0.234 C 
ATOM     25  O   UNL     1      -3.557   1.275   4.291  0.00  0.00    -0.274 OA
ATOM     26  H   UNL     1      -3.990   4.147   5.331  0.00  0.00    +0.155 HD
BRANCH  23  33
ATOM     27  C   UNL     1      -5.085   3.367   7.844  0.00  0.00    +0.045 C 
ATOM     28  C   UNL     1      -5.939   2.766   6.757  0.00  0.00    -0.029 A 
ATOM     29  C   UNL     1      -7.193   2.272   7.058  0.00  0.00    +0.005 A 
ATOM     30  C   UNL     1      -7.975   1.715   6.063  0.00  0.00    +0.001 A 
ATOM     31  C   UNL     1      -7.508   1.657   4.763  0.00  0.00    +0.005 A 
ATOM     32  C   UNL     1      -6.257   2.155   4.455  0.00  0.00    -0.029 A 
ATOM     33  C   UNL     1      -5.469   2.715   5.452  0.00  0.00    +0.039 A 
ATOM     34  C   UNL     1      -5.748   2.091   3.038  0.00  0.00    +0.045 C 
ENDBRANCH  23  33
ENDBRANCH  22  24
ENDBRANCH   1  22
TORSDOF 7
