REMARK  Name = ZINC17877154
REMARK  7 active torsions:
REMARK  status: ('A' for Active; 'I' for Inactive)
REMARK    1  A    between atoms: C_1  and  C_2
REMARK    2  A    between atoms: C_2  and  C_15
REMARK    3  A    between atoms: N_3  and  N_4
REMARK    4  A    between atoms: C_5  and  C_7
REMARK    5  A    between atoms: C_7  and  C_8
REMARK    6  A    between atoms: C_18  and  O_22
REMARK    7  A    between atoms: C_20  and  O_21
REMARK                            x       y       z     vdW  Elec       q    Type
REMARK                         _______ _______ _______ _____ _____    ______ ____
ROOT
ATOM      1  C   UNL     1       3.461   3.386  -0.013  0.00  0.00    +0.068 C 
ATOM      2  C   UNL     1       3.482   1.879  -0.021  0.00  0.00    +0.067 C 
ATOM      3  N   UNL     1       2.366   1.215  -0.014  0.00  0.00    -0.184 NA
ENDROOT
BRANCH   2   4
ATOM      4  C   UNL     1       4.767   1.160  -0.037  0.00  0.00    +0.040 A 
ATOM      5  C   UNL     1       5.969   1.873  -0.045  0.00  0.00    +0.032 A 
ATOM      6  C   UNL     1       7.170   1.196  -0.059  0.00  0.00    +0.060 A 
ATOM      7  C   UNL     1       7.189  -0.195  -0.067  0.00  0.00    +0.134 A 
ATOM      8  C   UNL     1       6.001  -0.910  -0.060  0.00  0.00    +0.092 A 
ATOM      9  C   UNL     1       4.789  -0.242  -0.039  0.00  0.00    +0.129 A 
ATOM     10 BR   UNL     1       8.796   2.161  -0.069  0.00  0.00    -0.047 Br
BRANCH   9  11
ATOM     11  O   UNL     1       3.625  -0.942  -0.026  0.00  0.00    -0.506 OA
ATOM     12  H   UNL     1       3.645  -2.041  -0.028  0.00  0.00    +0.292 HD
ENDBRANCH   9  11
BRANCH   7  13
ATOM     13  O   UNL     1       8.376  -0.855  -0.081  0.00  0.00    -0.506 OA
ATOM     14  H   UNL     1       8.394  -1.955  -0.087  0.00  0.00    +0.292 HD
ENDBRANCH   7  13
ENDBRANCH   2   4
BRANCH   3  15
ATOM     15  N   UNL     1       1.143   1.899   0.001  0.00  0.00    -0.206 N 
ATOM     16  C   UNL     1      -0.014   1.209   0.009  0.00  0.00    +0.237 C 
ATOM     17  O   UNL     1       0.002  -0.004   0.002  0.00  0.00    -0.274 OA
ATOM     18  H   UNL     1       1.129   2.999   0.007  0.00  0.00    +0.177 HD
BRANCH  16  19
ATOM     19  C   UNL     1      -1.330   1.945   0.019  0.00  0.00    +0.132 C 
BRANCH  19  20
ATOM     20  C   UNL     1      -2.462   0.950   0.019  0.00  0.00    -0.039 A 
ATOM     21  C   UNL     1      -2.990   0.505  -1.178  0.00  0.00    +0.005 A 
ATOM     22  C   UNL     1      -4.025  -0.411  -1.179  0.00  0.00    +0.015 A 
ATOM     23  C   UNL     1      -4.539  -0.875   0.019  0.00  0.00    +0.018 A 
ATOM     24  C   UNL     1      -4.014  -0.425   1.217  0.00  0.00    +0.015 A 
ATOM     25  C   UNL     1      -2.975   0.487   1.216  0.00  0.00    +0.005 A 
ATOM     26 BR   UNL     1      -5.960  -2.123   0.019  0.00  0.00    -0.050 Br
ENDBRANCH  19  20
ENDBRANCH  16  19
ENDBRANCH   3  15
TORSDOF 6
