REMARK  Name = ZINC14460078
REMARK  9 active torsions:
REMARK  status: ('A' for Active; 'I' for Inactive)
REMARK    1  A    between atoms: C_1  and  C_2
REMARK    2  A    between atoms: C_2  and  C_3
REMARK    3  A    between atoms: C_3  and  C_5
REMARK    4  A    between atoms: C_3  and  N_6
REMARK    5  A    between atoms: C_7  and  C_9
REMARK    6  A    between atoms: C_22  and  C_25
REMARK    7  A    between atoms: C_29  and  O_32
REMARK    8  A    between atoms: C_30  and  O_31
REMARK    9  A    between atoms: O_32  and  C_33
REMARK                            x       y       z     vdW  Elec       q    Type
REMARK                         _______ _______ _______ _____ _____    ______ ____
ROOT
ATOM      1  C   UNL     1       1.908  -1.504   3.073  0.00  0.00    +0.037 A 
ATOM      2  C   UNL     1       2.944  -0.880   3.776  0.00  0.00    +0.015 A 
ATOM      3  C   UNL     1       3.581  -1.559   4.788  0.00  0.00    +0.024 A 
ATOM      4  C   UNL     1       3.198  -2.858   5.112  0.00  0.00    +0.031 A 
ATOM      5  C   UNL     1       2.171  -3.488   4.419  0.00  0.00    -0.019 A 
ATOM      6  C   UNL     1       1.525  -2.804   3.405  0.00  0.00    +0.019 A 
ATOM      7  C   UNL     1       1.731  -4.883   4.733  0.00  0.00    +0.049 C 
ATOM      8  C   UNL     1       0.416  -4.891   5.475  0.00  0.00    -0.023 C 
ATOM      9  C   UNL     1       0.404  -5.852   6.366  0.00  0.00    -0.030 C 
ATOM     10  C   UNL     1       1.710  -6.622   6.336  0.00  0.00    +0.033 C 
ATOM     11  C   UNL     1       2.703  -5.621   5.675  0.00  0.00    +0.029 C 
ATOM     12  C   UNL     1       3.190  -4.670   6.771  0.00  0.00    +0.109 C 
ATOM     13  N   UNL     1       3.856  -3.524   6.144  0.00  0.00    -0.336 N 
ATOM     14  H   UNL     1       4.734  -3.236   6.440  0.00  0.00    +0.147 HD
ENDROOT
BRANCH  12  15
ATOM     15  C   UNL     1       2.016  -4.188   7.583  0.00  0.00    +0.018 A 
ATOM     16  C   UNL     1       1.329  -3.050   7.200  0.00  0.00    +0.009 A 
ATOM     17  C   UNL     1       0.252  -2.606   7.942  0.00  0.00    +0.004 A 
ATOM     18  C   UNL     1      -0.145  -3.298   9.072  0.00  0.00    +0.049 A 
ATOM     19  C   UNL     1       0.538  -4.438   9.462  0.00  0.00    +0.162 A 
ATOM     20  C   UNL     1       1.620  -4.888   8.711  0.00  0.00    +0.163 A 
BRANCH  20  21
ATOM     21  O   UNL     1       2.290  -6.011   9.086  0.00  0.00    -0.503 OA
ATOM     22  H   UNL     1       3.027  -5.845   9.690  0.00  0.00    +0.292 HD
ENDBRANCH  20  21
BRANCH  19  23
ATOM     23  O   UNL     1       0.149  -5.119  10.573  0.00  0.00    -0.491 OA
ATOM     24  C   UNL     1      -0.973  -4.602  11.291  0.00  0.00    +0.277 C 
ENDBRANCH  19  23
ENDBRANCH  12  15
BRANCH   1  26
ATOM     25  N   UNL     1       1.583   0.473   1.670  0.00  0.00    -0.309 N 
ATOM     26  C   UNL     1       1.217  -0.785   1.986  0.00  0.00    +0.244 C 
ATOM     27  O   UNL     1       0.316  -1.328   1.375  0.00  0.00    -0.270 OA
ATOM     28  H   UNL     1       2.302   0.905   2.157  0.00  0.00    +0.149 HD
BRANCH  25  29
ATOM     29  C   UNL     1       0.897   1.186   0.590  0.00  0.00    +0.070 C 
ATOM     30  C   UNL     1       1.536   0.819  -0.750  0.00  0.00    +0.028 C 
BRANCH  29  32
ATOM     31  C   UNL     1       0.272   3.079   2.096  0.00  0.00    +0.005 C 
ATOM     32  C   UNL     1       1.019   2.694   0.818  0.00  0.00    +0.018 C 
ENDBRANCH  29  32
ENDBRANCH  25  29
ENDBRANCH   1  26
TORSDOF 6
