REMARK  Name = ZINC10067663
REMARK  14 active torsions:
REMARK  status: ('A' for Active; 'I' for Inactive)
REMARK    1  A    between atoms: C_1  and  C_2
REMARK    2  A    between atoms: C_2  and  C_3
REMARK    3  A    between atoms: C_3  and  C_4
REMARK    4  A    between atoms: C_4  and  N_5
REMARK    5  A    between atoms: N_5  and  C_6
REMARK    6  A    between atoms: N_5  and  S_7
REMARK    7  A    between atoms: S_7  and  C_10
REMARK    8  A    between atoms: C_13  and  C_16
REMARK    9  A    between atoms: N_18  and  C_19
REMARK   10  A    between atoms: C_19  and  C_20
REMARK   11  A    between atoms: C_20  and  C_21
REMARK   12  A    between atoms: C_21  and  N_65
REMARK   13  A    between atoms: C_22  and  N_65
REMARK   14  A    between atoms: C_23  and  N_65
REMARK                            x       y       z     vdW  Elec       q    Type
REMARK                         _______ _______ _______ _____ _____    ______ ____
ROOT
ATOM      1  C   UNL     1      -3.068   3.036   4.923  0.00  0.00    +0.252 C 
ATOM      2  O   UNL     1      -3.956   2.320   5.342  0.00  0.00    -0.270 OA
ATOM      3  N   UNL     1      -2.846   4.237   5.493  0.00  0.00    -0.246 N 
ATOM      4  C   UNL     1      -3.538   4.599   6.637  0.00  0.00    +0.168 A 
ATOM      5  N   UNL     1      -4.438   3.917   7.305  0.00  0.00    -0.224 NA
ATOM      6  C   UNL     1      -5.038   4.399   8.416  0.00  0.00    +0.080 A 
ATOM      7  C   UNL     1      -6.015   3.772   9.222  0.00  0.00    +0.032 A 
ATOM      8  C   UNL     1      -6.525   4.404  10.325  0.00  0.00    +0.040 A 
ATOM      9  C   UNL     1      -6.105   5.677  10.691  0.00  0.00    +0.125 A 
ATOM     10  C   UNL     1      -5.149   6.321   9.924  0.00  0.00    +0.055 A 
ATOM     11  C   UNL     1      -4.633   5.693   8.817  0.00  0.00    +0.043 A 
ATOM     12  S   UNL     1      -3.426   6.112   7.582  0.00  0.00    -0.052 S 
ATOM     13  F   UNL     1      -6.622   6.280  11.784  0.00  0.00    -0.205 F 
ENDROOT
BRANCH   1  17
ATOM     14  C   UNL     1      -0.663   1.755   1.665  0.00  0.00    +0.106 A 
ATOM     15  C   UNL     1      -0.889   3.105   1.865  0.00  0.00    +0.029 A 
ATOM     16  C   UNL     1      -1.674   3.528   2.918  0.00  0.00    +0.015 A 
ATOM     17  C   UNL     1      -2.232   2.590   3.790  0.00  0.00    +0.037 A 
ATOM     18  C   UNL     1      -1.995   1.230   3.585  0.00  0.00    +0.015 A 
ATOM     19  C   UNL     1      -1.213   0.820   2.525  0.00  0.00    +0.029 A 
BRANCH  14  20
ATOM     20  S   UNL     1       0.335   1.224   0.314  0.00  0.00    +0.061 S 
ATOM     21  O   UNL     1       0.848  -0.054   0.666  0.00  0.00    -0.153 OA
ATOM     22  O   UNL     1       1.178   2.317  -0.022  0.00  0.00    -0.153 OA
BRANCH  20  23
ATOM     23  N   UNL     1      -0.674   0.990  -0.978  0.00  0.00    -0.180 NA
ATOM     24  C   UNL     1      -0.952   2.094  -1.900  0.00  0.00    +0.131 C 
BRANCH  23  25
ATOM     25  C   UNL     1      -1.289  -0.322  -1.199  0.00  0.00    +0.109 C 
BRANCH  25  26
ATOM     26  C   UNL     1      -2.684  -0.343  -0.572  0.00  0.00    +0.017 C 
BRANCH  26  28
ATOM     27  C   UNL     1      -4.722  -1.734  -0.175  0.00  0.00    +0.004 C 
ATOM     28  C   UNL     1      -3.327  -1.712  -0.802  0.00  0.00    -0.002 C 
ENDBRANCH  26  28
ENDBRANCH  25  26
ENDBRANCH  23  25
ENDBRANCH  20  23
ENDBRANCH  14  20
ENDBRANCH   1  17
BRANCH   3  29
ATOM     29  C   UNL     1      -1.874   5.160   4.902  0.00  0.00    +0.114 C 
BRANCH  29  30
ATOM     30  C   UNL     1      -2.606   6.192   4.043  0.00  0.00    +0.001 C 
BRANCH  30  31
ATOM     31  C   UNL     1      -1.590   7.156   3.426  0.00  0.00    -0.078 C 
BRANCH  31  34
ATOM     32  C   UNL     1      -1.387   9.225   2.186  0.00  0.00    -0.097 C 
ATOM     33  C   UNL     1      -2.924   7.511   1.437  0.00  0.00    -0.097 C 
ATOM     34  N   UNL     1      -2.315   8.159   2.618  0.00  0.00    +0.376 N 
ATOM     35  H   UNL     1      -3.058   8.575   3.190  0.00  0.00    -0.083 HD
ENDBRANCH  31  34
ENDBRANCH  30  31
ENDBRANCH  29  30
ENDBRANCH   3  29
TORSDOF 10
