REMARK  Name = ZINC37785423
REMARK  3 active torsions:
REMARK  status: ('A' for Active; 'I' for Inactive)
REMARK    1  A    between atoms: C_1  and  N_2
REMARK    2  A    between atoms: C_4  and  N_9
REMARK    3  A    between atoms: N_9  and  C_10
REMARK                            x       y       z     vdW  Elec       q    Type
REMARK                         _______ _______ _______ _____ _____    ______ ____
ROOT
ATOM      1  N   UNL     1      -2.392  -2.750  -0.001  0.00  0.00    -0.340 N 
ATOM      2  H   UNL     1      -3.232  -2.264   0.006  0.00  0.00    +0.146 HD
ENDROOT
BRANCH   1   6
ATOM      3  C   UNL     1      -0.018   1.461   0.010  0.00  0.00    +0.152 C 
ATOM      4  N   UNL     1       0.002  -0.004   0.002  0.00  0.00    -0.316 N 
ATOM      5  C   UNL     1      -1.171  -0.692   0.004  0.00  0.00    +0.111 A 
ATOM      6  C   UNL     1      -1.176  -2.051  -0.003  0.00  0.00    +0.044 A 
ATOM      7  C   UNL     1       0.041  -2.755  -0.013  0.00  0.00    +0.029 A 
ATOM      8  C   UNL     1       1.214  -2.058  -0.015  0.00  0.00    +0.072 A 
ATOM      9  C   UNL     1       1.181  -0.653  -0.013  0.00  0.00    +0.251 A 
ATOM     10  O   UNL     1       2.225  -0.020  -0.020  0.00  0.00    -0.268 OA
ENDBRANCH   1   6
BRANCH   1  11
ATOM     11  C   UNL     1      -2.395  -4.215  -0.009  0.00  0.00    +0.070 C 
ATOM     12  C   UNL     1      -2.278  -4.718  -1.449  0.00  0.00    +0.022 C 
ATOM     13  C   UNL     1      -1.884  -6.196  -1.443  0.00  0.00    +0.002 C 
ATOM     14  C   UNL     1      -0.775  -6.425  -0.415  0.00  0.00    +0.000 C 
ATOM     15  C   UNL     1      -1.310  -7.287   0.730  0.00  0.00    +0.000 C 
ATOM     16  C   UNL     1      -2.196  -6.433   1.639  0.00  0.00    +0.000 C 
ATOM     17  C   UNL     1      -3.550  -6.206   0.963  0.00  0.00    +0.002 C 
ATOM     18  C   UNL     1      -3.700  -4.726   0.605  0.00  0.00    +0.022 C 
ENDBRANCH   1  11
TORSDOF 2
