REMARK  Name = ZINC06445470
REMARK  5 active torsions:
REMARK  status: ('A' for Active; 'I' for Inactive)
REMARK    1  A    between atoms: C_6  and  C_7
REMARK    2  A    between atoms: C_12  and  C_14
REMARK    3  A    between atoms: C_12  and  C_29
REMARK    4  A    between atoms: C_12  and  N_65
REMARK    5  A    between atoms: N_33  and  C_34
REMARK                            x       y       z     vdW  Elec       q    Type
REMARK                         _______ _______ _______ _____ _____    ______ ____
ROOT
ATOM      1  C   UNL     1      -1.416   3.638  -2.351  0.00  0.00    +0.039 C 
ENDROOT
BRANCH   1   2
ATOM      2  C   UNL     1      -1.765   5.087  -2.130  0.00  0.00    +0.011 A 
ATOM      3  C   UNL     1      -2.987   5.551  -2.494  0.00  0.00    +0.017 A 
ATOM      4  C   UNL     1      -3.296   6.962  -2.265  0.00  0.00    +0.002 A 
ATOM      5  C   UNL     1      -4.541   7.496  -2.620  0.00  0.00    +0.059 A 
ATOM      6  C   UNL     1      -4.803   8.829  -2.392  0.00  0.00    +0.167 A 
ATOM      7  C   UNL     1      -3.830   9.649  -1.807  0.00  0.00    +0.168 A 
ATOM      8  C   UNL     1      -2.598   9.130  -1.454  0.00  0.00    +0.075 A 
ATOM      9  C   UNL     1      -2.318   7.788  -1.677  0.00  0.00    +0.053 A 
ATOM     10  N   UNL     1      -1.094   7.253  -1.330  0.00  0.00    -0.322 N 
ATOM     11  H   UNL     1      -0.421   7.823  -0.925  0.00  0.00    +0.169 HD
ATOM     12  C   UNL     1      -0.823   5.953  -1.539  0.00  0.00    +0.251 A 
ATOM     13  O   UNL     1       0.267   5.514  -1.214  0.00  0.00    -0.268 OA
ATOM     14  O   UNL     1      -4.339  10.910  -1.693  0.00  0.00    -0.453 OA
ATOM     15  C   UNL     1      -5.764  10.764  -1.829  0.00  0.00    +0.466 C 
ATOM     16  O   UNL     1      -5.915   9.583  -2.638  0.00  0.00    -0.453 OA
ENDBRANCH   1   2
BRANCH   1  22
ATOM     17  C   UNL     1      -0.715   1.570   1.246  0.00  0.00    -0.048 C 
ATOM     18  C   UNL     1      -1.587   2.553   1.230  0.00  0.00    -0.041 C 
ATOM     19  C   UNL     1      -1.975   3.282  -0.023  0.00  0.00    -0.049 C 
ATOM     20  C   UNL     1      -0.751   1.592  -1.234  0.00  0.00    -0.072 C 
ATOM     21  C   UNL     1      -0.013   1.086   0.008  0.00  0.00    +0.017 C 
ATOM     22  N   UNL     1      -0.966   3.045  -1.071  0.00  0.00    +0.392 N 
ATOM     23  H   UNL     1      -0.082   3.485  -0.792  0.00  0.00    -0.080 HD
BRANCH  17  29
ATOM     24  C   UNL     1       0.870   1.006   3.083  0.00  0.00    +0.011 A 
ATOM     25  C   UNL     1       1.147   0.397   4.289  0.00  0.00    +0.039 A 
ATOM     26  C   UNL     1       0.159  -0.316   4.951  0.00  0.00    +0.123 A 
ATOM     27  C   UNL     1      -1.112  -0.415   4.409  0.00  0.00    +0.039 A 
ATOM     28  C   UNL     1      -1.401   0.195   3.206  0.00  0.00    +0.011 A 
ATOM     29  C   UNL     1      -0.410   0.914   2.535  0.00  0.00    -0.022 A 
ATOM     30  F   UNL     1       0.437  -0.915   6.130  0.00  0.00    -0.205 F 
ENDBRANCH  17  29
ENDBRANCH   1  22
BRANCH   1  31
ATOM     31  C   UNL     1      -0.297   3.539  -3.357  0.00  0.00    +0.143 A 
ATOM     32  N   UNL     1       0.968   3.812  -3.149  0.00  0.00    -0.115 NA
ATOM     33  N   UNL     1       1.606   3.603  -4.249  0.00  0.00    -0.023 NA
ATOM     34  N   UNL     1       0.779   3.209  -5.154  0.00  0.00    -0.044 NA
ATOM     35  N   UNL     1      -0.404   3.157  -4.643  0.00  0.00    -0.227 N 
BRANCH  35  36
ATOM     36  C   UNL     1      -1.633   2.758  -5.333  0.00  0.00    +0.111 C 
ATOM     37  C   UNL     1      -1.482   1.331  -5.899  0.00  0.00    +0.027 C 
ATOM     38  C   UNL     1      -2.233   1.379  -7.253  0.00  0.00    +0.002 C 
ATOM     39  C   UNL     1      -1.881   2.789  -7.791  0.00  0.00    +0.002 C 
ATOM     40  C   UNL     1      -1.887   3.685  -6.535  0.00  0.00    +0.027 C 
ENDBRANCH  35  36
ENDBRANCH   1  31
TORSDOF 5
