REMARK  Name = ZINC20367394
REMARK  10 active torsions:
REMARK  status: ('A' for Active; 'I' for Inactive)
REMARK    1  A    between atoms: C_1  and  C_2
REMARK    2  A    between atoms: C_5  and  C_8
REMARK    3  A    between atoms: C_8  and  O_9
REMARK    4  A    between atoms: O_9  and  C_10
REMARK    5  A    between atoms: C_14  and  C_16
REMARK    6  A    between atoms: C_19  and  C_30
REMARK    7  A    between atoms: C_25  and  N_29
REMARK    8  A    between atoms: C_26  and  C_27
REMARK    9  A    between atoms: C_34  and  O_36
REMARK   10  A    between atoms: O_36  and  C_37
REMARK                            x       y       z     vdW  Elec       q    Type
REMARK                         _______ _______ _______ _____ _____    ______ ____
ROOT
ATOM      1  C   UNL     1       4.622  -8.514  -0.049  0.00  0.00    +0.102 C 
ATOM      2  C   UNL     1       4.713  -9.466  -1.214  0.00  0.00    +0.054 A 
ATOM      3  C   UNL     1       4.754  -9.188  -2.583  0.00  0.00    +0.100 A 
ATOM      4  N   UNL     1       4.832 -10.336  -3.228  0.00  0.00    -0.171 NA
ATOM      5  N   UNL     1       4.843 -11.375  -2.284  0.00  0.00    -0.246 N 
ATOM      6  H   UNL     1       4.895 -12.323  -2.480  0.00  0.00    +0.192 HD
ATOM      7  C   UNL     1       4.770 -10.821  -1.056  0.00  0.00    +0.223 A 
ATOM      8  O   UNL     1       4.753 -11.418   0.162  0.00  0.00    -0.423 OA
ATOM      9  C   UNL     1       4.953 -10.637   1.244  0.00  0.00    +0.200 C 
ATOM     10  C   UNL     1       4.910  -9.285   1.215  0.00  0.00    +0.098 C 
ENDROOT
BRANCH   1  15
ATOM     11  C   UNL     1       1.794  -6.011   0.066  0.00  0.00    +0.121 A 
ATOM     12  C   UNL     1       0.690  -6.848   0.144  0.00  0.00    +0.045 A 
ATOM     13  C   UNL     1       0.863  -8.218   0.159  0.00  0.00    +0.004 A 
ATOM     14  C   UNL     1       2.135  -8.756   0.096  0.00  0.00    +0.005 A 
ATOM     15  C   UNL     1       3.237  -7.925   0.019  0.00  0.00    -0.031 A 
ATOM     16  C   UNL     1       3.068  -6.553  -0.003  0.00  0.00    +0.050 A 
BRANCH  11  17
ATOM     17  O   UNL     1       1.626  -4.663   0.051  0.00  0.00    -0.487 OA
BRANCH  17  18
ATOM     18  C   UNL     1       0.284  -4.175   0.124  0.00  0.00    +0.264 C 
BRANCH  18  23
ATOM     19  C   UNL     1       0.323   1.602   0.011  0.00  0.00    +0.044 C 
ATOM     20  C   UNL     1       0.313   0.096   0.041  0.00  0.00    -0.050 A 
ATOM     21  C   UNL     1       0.236  -0.618  -1.141  0.00  0.00    +0.004 A 
ATOM     22  C   UNL     1       0.227  -2.000  -1.114  0.00  0.00    +0.007 A 
ATOM     23  C   UNL     1       0.295  -2.668   0.095  0.00  0.00    -0.010 A 
ATOM     24  C   UNL     1       0.374  -1.955   1.276  0.00  0.00    +0.007 A 
ATOM     25  C   UNL     1       0.387  -0.573   1.248  0.00  0.00    +0.004 A 
ENDBRANCH  18  23
ENDBRANCH  17  18
ENDBRANCH  11  17
ENDBRANCH   1  15
BRANCH   3  26
ATOM     26  C   UNL     1       4.715  -7.840  -3.202  0.00  0.00    +0.006 A 
ATOM     27  C   UNL     1       5.459  -6.797  -2.652  0.00  0.00    +0.010 A 
ATOM     28  C   UNL     1       5.423  -5.544  -3.229  0.00  0.00    +0.004 A 
ATOM     29  C   UNL     1       4.649  -5.319  -4.353  0.00  0.00    +0.045 A 
ATOM     30  C   UNL     1       3.905  -6.351  -4.906  0.00  0.00    +0.121 A 
ATOM     31  C   UNL     1       3.941  -7.614  -4.336  0.00  0.00    +0.055 A 
BRANCH  30  32
ATOM     32  O   UNL     1       3.145  -6.125  -6.010  0.00  0.00    -0.495 OA
ATOM     33  C   UNL     1       3.159  -4.802  -6.548  0.00  0.00    +0.277 C 
ENDBRANCH  30  32
ENDBRANCH   3  26
BRANCH   9  34
ATOM     34  N   UNL     1       5.217 -11.249   2.443  0.00  0.00    -0.328 N 
ATOM     35  H   UNL     1       5.255 -12.217   2.496  0.00  0.00    +0.145 HD
ATOM     36  H   UNL     1       5.365 -10.714   3.239  0.00  0.00    +0.145 HD
ENDBRANCH   9  34
BRANCH  10  37
ATOM     37  C   UNL     1       5.145  -8.560   2.427  0.00  0.00    +0.101 C 
ATOM     38  N   UNL     1       5.331  -7.985   3.389  0.00  0.00    -0.191 NA
ENDBRANCH  10  37
TORSDOF 8
