REMARK  Name = ZINC13557161
REMARK  10 active torsions:
REMARK  status: ('A' for Active; 'I' for Inactive)
REMARK    1  A    between atoms: C_1  and  C_2
REMARK    2  A    between atoms: C_11  and  O_13
REMARK    3  A    between atoms: O_13  and  C_14
REMARK    4  A    between atoms: C_14  and  C_16
REMARK    5  A    between atoms: C_14  and  C_17
REMARK    6  A    between atoms: N_19  and  C_20
REMARK    7  A    between atoms: C_20  and  C_21
REMARK    8  A    between atoms: C_21  and  C_22
REMARK    9  A    between atoms: C_25  and  S_28
REMARK   10  A    between atoms: S_28  and  N_31
REMARK                            x       y       z     vdW  Elec       q    Type
REMARK                         _______ _______ _______ _____ _____    ______ ____
ROOT
ATOM      1  C   UNL     1       1.023  -2.991   6.957  0.00  0.00    +0.254 C 
ATOM      2  O   UNL     1       1.471  -4.075   6.650  0.00  0.00    -0.272 OA
ATOM      3  N   UNL     1       1.263  -2.486   8.184  0.00  0.00    -0.312 N 
ATOM      4  H   UNL     1       0.905  -1.619   8.430  0.00  0.00    +0.149 HD
ENDROOT
BRANCH   1   5
ATOM      5  C   UNL     1       0.198  -2.208   5.968  0.00  0.00    +0.255 C 
ATOM      6  C   UNL     1      -1.197  -1.965   6.547  0.00  0.00    +0.062 C 
BRANCH   5   7
ATOM      7  O   UNL     1       0.086  -2.948   4.751  0.00  0.00    -0.480 OA
BRANCH   7  18
ATOM      8  C   UNL     1      -0.919  -0.697  -1.267  0.00  0.00    +0.045 C 
ATOM      9  C   UNL     1      -0.901  -0.034   0.086  0.00  0.00    -0.033 A 
ATOM     10  C   UNL     1      -1.130   1.299   0.213  0.00  0.00    +0.096 A 
ATOM     11  C   UNL     1      -1.109   1.896   1.490  0.00  0.00    +0.337 A 
ATOM     12  O   UNL     1      -1.316   3.092   1.590  0.00  0.00    -0.245 OA
ATOM     13  O   UNL     1      -0.865   1.180   2.599  0.00  0.00    -0.422 OA
ATOM     14  C   UNL     1      -0.629  -0.148   2.543  0.00  0.00    +0.143 A 
ATOM     15  C   UNL     1      -0.641  -0.810   1.300  0.00  0.00    +0.021 A 
ATOM     16  C   UNL     1      -0.402  -2.188   1.238  0.00  0.00    +0.015 A 
ATOM     17  C   UNL     1      -0.162  -2.887   2.385  0.00  0.00    +0.046 A 
ATOM     18  C   UNL     1      -0.154  -2.238   3.619  0.00  0.00    +0.125 A 
ATOM     19  C   UNL     1      -0.378  -0.873   3.698  0.00  0.00    +0.092 A 
ENDBRANCH   7  18
ENDBRANCH   5   7
ENDBRANCH   1   5
BRANCH   3  20
ATOM     20  C   UNL     1       2.065  -3.247   9.145  0.00  0.00    +0.109 C 
BRANCH  20  21
ATOM     21  C   UNL     1       2.185  -2.455  10.449  0.00  0.00    +0.054 C 
BRANCH  21  22
ATOM     22  C   UNL     1       3.010  -3.237  11.438  0.00  0.00    -0.046 A 
ATOM     23  C   UNL     1       2.396  -4.127  12.299  0.00  0.00    +0.005 A 
ATOM     24  C   UNL     1       3.152  -4.845  13.206  0.00  0.00    +0.029 A 
ATOM     25  C   UNL     1       4.523  -4.673  13.252  0.00  0.00    +0.105 A 
ATOM     26  C   UNL     1       5.137  -3.784  12.390  0.00  0.00    +0.029 A 
ATOM     27  C   UNL     1       4.381  -3.069  11.480  0.00  0.00    +0.005 A 
BRANCH  25  28
ATOM     28  S   UNL     1       5.488  -5.587  14.409  0.00  0.00    +0.056 S 
ATOM     29  O   UNL     1       6.680  -4.843  14.622  0.00  0.00    -0.153 OA
ATOM     30  O   UNL     1       4.615  -5.947  15.471  0.00  0.00    -0.153 OA
BRANCH  28  31
ATOM     31  N   UNL     1       5.936  -6.998  13.666  0.00  0.00    -0.204 NA
ATOM     32  H   UNL     1       5.657  -7.176  12.755  0.00  0.00    +0.144 HD
ATOM     33  H   UNL     1       6.479  -7.646  14.143  0.00  0.00    +0.144 HD
ENDBRANCH  28  31
ENDBRANCH  25  28
ENDBRANCH  21  22
ENDBRANCH  20  21
ENDBRANCH   3  20
TORSDOF 8
