REMARK  Name = ZINC33721017
REMARK  4 active torsions:
REMARK  status: ('A' for Active; 'I' for Inactive)
REMARK    1  A    between atoms: C_1  and  C_2
REMARK    2  A    between atoms: C_2  and  C_4
REMARK    3  A    between atoms: C_6  and  C_30
REMARK    4  A    between atoms: C_30  and  C_32
REMARK                            x       y       z     vdW  Elec       q    Type
REMARK                         _______ _______ _______ _____ _____    ______ ____
ROOT
ATOM      1  C   UNL     1      -2.052   2.061   1.491  0.00  0.00    +0.152 C 
ATOM      2  C   UNL     1      -2.547   3.111   0.456  0.00  0.00    +0.109 C 
ATOM      3  C   UNL     1      -2.916   4.346   1.303  0.00  0.00    +0.108 C 
ATOM      4  C   UNL     1      -4.351   4.715   1.143  0.00  0.00    -0.008 A 
ATOM      5  C   UNL     1      -5.515   4.022   1.401  0.00  0.00    +0.006 A 
ATOM      6  C   UNL     1      -6.713   4.675   1.135  0.00  0.00    +0.000 A 
ATOM      7  C   UNL     1      -6.734   5.960   0.632  0.00  0.00    +0.002 A 
ATOM      8  C   UNL     1      -5.569   6.664   0.368  0.00  0.00    +0.023 A 
ATOM      9  C   UNL     1      -4.359   6.020   0.632  0.00  0.00    +0.038 A 
ATOM     10  N   UNL     1      -3.064   6.480   0.466  0.00  0.00    -0.284 N 
ATOM     11  C   UNL     1      -2.149   5.559   0.837  0.00  0.00    +0.231 C 
ATOM     12  O   UNL     1      -0.943   5.682   0.802  0.00  0.00    -0.274 OA
ATOM     13  C   UNL     1      -2.561   3.965   2.732  0.00  0.00    +0.117 C 
ATOM     14  N   UNL     1      -2.697   2.482   2.740  0.00  0.00    -0.311 N 
ATOM     15  C   UNL     1      -2.229   1.984   3.932  0.00  0.00    +0.038 A 
ATOM     16  C   UNL     1      -1.421   0.868   4.032  0.00  0.00    +0.025 A 
ATOM     17  C   UNL     1      -0.983   0.443   5.273  0.00  0.00    +0.022 A 
ATOM     18  C   UNL     1      -1.348   1.128   6.420  0.00  0.00    +0.042 A 
ATOM     19  C   UNL     1      -2.158   2.245   6.340  0.00  0.00    +0.029 A 
ATOM     20  C   UNL     1      -2.606   2.682   5.101  0.00  0.00    -0.003 A 
ATOM     21  C   UNL     1      -3.480   3.872   4.965  0.00  0.00    +0.007 C 
ATOM     22  C   UNL     1      -3.466   4.523   3.788  0.00  0.00    -0.003 C 
ATOM     23 CL   UNL     1      -0.785   0.580   7.968  0.00  0.00    -0.084 Cl
ATOM     24  H   UNL     1      -2.886   7.492   0.072  0.00  0.00    +0.155 HD
ENDROOT
BRANCH   1  26
ATOM     25  C   UNL     1       0.322   1.534   0.542  0.00  0.00    +0.088 C 
ATOM     26  C   UNL     1      -0.552   2.113   1.624  0.00  0.00    +0.151 C 
ATOM     27  O   UNL     1      -0.050   2.620   2.599  0.00  0.00    -0.296 OA
ENDBRANCH   1  26
BRANCH   2  28
ATOM     28  C   UNL     1      -1.448   3.450  -0.517  0.00  0.00    +0.170 C 
ATOM     29  O   UNL     1      -0.342   3.735  -0.107  0.00  0.00    -0.292 OA
BRANCH  28  30
ATOM     30  C   UNL     1      -1.714   3.434  -1.961  0.00  0.00    +0.021 A 
ATOM     31  C   UNL     1      -2.989   3.105  -2.436  0.00  0.00    +0.015 A 
ATOM     32  C   UNL     1      -3.236   3.091  -3.791  0.00  0.00    +0.050 A 
ATOM     33  C   UNL     1      -2.224   3.403  -4.690  0.00  0.00    +0.166 A 
ATOM     34  C   UNL     1      -0.949   3.732  -4.223  0.00  0.00    +0.167 A 
ATOM     35  C   UNL     1      -0.695   3.754  -2.867  0.00  0.00    +0.061 A 
ATOM     36  O   UNL     1      -0.147   3.993  -5.297  0.00  0.00    -0.453 OA
ATOM     37  C   UNL     1      -1.044   4.220  -6.400  0.00  0.00    +0.466 C 
ATOM     38  O   UNL     1      -2.215   3.458  -6.052  0.00  0.00    -0.453 OA
ENDBRANCH  28  30
ENDBRANCH   2  28
TORSDOF 3
