REMARK  Name = ZINC09762400
REMARK  9 active torsions:
REMARK  status: ('A' for Active; 'I' for Inactive)
REMARK    1  A    between atoms: C_1  and  C_2
REMARK    2  A    between atoms: C_2  and  O_3
REMARK    3  A    between atoms: O_3  and  C_4
REMARK    4  A    between atoms: C_6  and  C_12
REMARK    5  A    between atoms: C_9  and  O_10
REMARK    6  A    between atoms: C_17  and  C_27
REMARK    7  A    between atoms: C_19  and  C_23
REMARK    8  A    between atoms: C_23  and  O_25
REMARK    9  A    between atoms: O_25  and  C_26
REMARK                            x       y       z     vdW  Elec       q    Type
REMARK                         _______ _______ _______ _____ _____    ______ ____
ROOT
ATOM      1  C   UNL     1      -0.229  -4.963  -0.530  0.00  0.00    +0.136 C 
ATOM      2  C   UNL     1       0.851  -5.332  -1.519  0.00  0.00    +0.037 C 
ATOM      3  C   UNL     1       1.424  -6.541  -1.645  0.00  0.00    +0.017 C 
ATOM      4  C   UNL     1       2.499  -6.780  -2.692  0.00  0.00    +0.055 C 
ATOM      5  C   UNL     1       3.302  -5.501  -2.919  0.00  0.00    +0.013 C 
ATOM      6  C   UNL     1       2.327  -4.415  -3.389  0.00  0.00    +0.171 C 
ATOM      7  C   UNL     1       1.250  -4.264  -2.356  0.00  0.00    +0.177 C 
ATOM      8  O   UNL     1       0.702  -3.186  -2.234  0.00  0.00    -0.291 OA
ATOM      9  C   UNL     1       3.969  -5.069  -1.611  0.00  0.00    +0.009 C 
ATOM     10  N   UNL     1       1.107  -7.629  -0.897  0.00  0.00    -0.316 N 
ATOM     11  C   UNL     1       0.963  -7.628   0.485  0.00  0.00    +0.052 A 
ATOM     12  C   UNL     1       1.811  -8.336   1.319  0.00  0.00    +0.025 A 
ATOM     13  C   UNL     1       1.581  -8.330   2.685  0.00  0.00    +0.002 A 
ATOM     14  C   UNL     1       0.512  -7.626   3.209  0.00  0.00    +0.002 A 
ATOM     15  C   UNL     1      -0.327  -6.904   2.378  0.00  0.00    +0.025 A 
ATOM     16  C   UNL     1      -0.086  -6.890   1.014  0.00  0.00    +0.049 A 
ATOM     17  N   UNL     1      -0.832  -6.088   0.151  0.00  0.00    -0.331 N 
ATOM     18  H   UNL     1       0.972  -8.469  -1.362  0.00  0.00    +0.152 HD
ATOM     19  H   UNL     1      -1.770  -6.288   0.005  0.00  0.00    +0.147 HD
ENDROOT
BRANCH   1  22
ATOM     20  C   UNL     1       0.449  -1.899   1.575  0.00  0.00    +0.163 A 
ATOM     21  C   UNL     1      -0.097  -2.746   0.624  0.00  0.00    +0.055 A 
ATOM     22  C   UNL     1       0.367  -4.043   0.504  0.00  0.00    -0.018 A 
ATOM     23  C   UNL     1       1.376  -4.498   1.333  0.00  0.00    +0.029 A 
ATOM     24  C   UNL     1       1.926  -3.657   2.284  0.00  0.00    +0.086 A 
ATOM     25  C   UNL     1       1.468  -2.354   2.405  0.00  0.00    +0.177 A 
ATOM     26 CL   UNL     1       3.193  -4.232   3.322  0.00  0.00    -0.080 Cl
BRANCH  25  27
ATOM     27  O   UNL     1       2.011  -1.524   3.336  0.00  0.00    -0.502 OA
ATOM     28  H   UNL     1       1.567  -1.553   4.195  0.00  0.00    +0.292 HD
ENDBRANCH  25  27
BRANCH  20  29
ATOM     29  O   UNL     1      -0.007  -0.623   1.692  0.00  0.00    -0.489 OA
BRANCH  29  31
ATOM     30  C   UNL     1      -1.429   1.234   1.082  0.00  0.00    +0.048 C 
ATOM     31  C   UNL     1      -1.051  -0.222   0.802  0.00  0.00    +0.226 C 
ENDBRANCH  29  31
ENDBRANCH  20  29
ENDBRANCH   1  22
BRANCH   6  32
ATOM     32  C   UNL     1       3.062  -3.109  -3.548  0.00  0.00    +0.318 C 
ATOM     33  O   UNL     1       4.249  -3.053  -3.329  0.00  0.00    -0.250 OA
BRANCH  32  34
ATOM     34  O   UNL     1       2.398  -2.008  -3.934  0.00  0.00    -0.467 OA
ATOM     35  C   UNL     1       3.170  -0.785  -4.067  0.00  0.00    +0.280 C 
ENDBRANCH  32  34
ENDBRANCH   6  32
TORSDOF 6
