REMARK  Name = ZINC63375079
REMARK  5 active torsions:
REMARK  status: ('A' for Active; 'I' for Inactive)
REMARK    1  A    between atoms: C_1  and  O_2
REMARK    2  A    between atoms: O_2  and  C_3
REMARK    3  A    between atoms: C_6  and  C_9
REMARK    4  A    between atoms: C_9  and  N_10
REMARK    5  A    between atoms: C_13  and  C_20
REMARK                            x       y       z     vdW  Elec       q    Type
REMARK                         _______ _______ _______ _____ _____    ______ ____
ROOT
ATOM      1  N   UNL     1       3.933  -2.742  -4.139  0.00  0.00    -0.256 N 
ATOM      2  C   UNL     1       4.832  -1.788  -4.451  0.00  0.00    +0.265 A 
ATOM      3  O   UNL     1       4.477  -0.778  -5.034  0.00  0.00    -0.267 OA
ATOM      4  C   UNL     1       6.181  -1.964  -4.099  0.00  0.00    +0.100 A 
ATOM      5  C   UNL     1       6.552  -3.103  -3.446  0.00  0.00    +0.263 A 
ATOM      6  N   UNL     1       5.605  -4.049  -3.148  0.00  0.00    -0.274 N 
ATOM      7  H   UNL     1       5.864  -4.860  -2.683  0.00  0.00    +0.173 HD
ATOM      8  C   UNL     1       4.318  -3.856  -3.490  0.00  0.00    +0.332 A 
ATOM      9  O   UNL     1       3.491  -4.704  -3.213  0.00  0.00    -0.246 OA
ATOM     10  O   UNL     1       7.842  -3.297  -3.097  0.00  0.00    -0.267 OA
ENDROOT
BRANCH   4  11
ATOM     11  C   UNL     1       7.204  -0.911  -4.438  0.00  0.00    +0.121 C 
ATOM     12  C   UNL     1       7.932  -0.469  -3.166  0.00  0.00    +0.128 C 
ATOM     13  C   UNL     1       8.728  -1.679  -2.689  0.00  0.00    -0.035 C 
ATOM     14  C   UNL     1       8.377  -1.886  -1.428  0.00  0.00    -0.001 A 
ATOM     15  C   UNL     1       8.860  -2.842  -0.419  0.00  0.00    +0.010 A 
ATOM     16  C   UNL     1       8.255  -2.787   0.797  0.00  0.00    +0.001 A 
ATOM     17  C   UNL     1       7.230  -1.888   1.107  0.00  0.00    +0.002 A 
ATOM     18  C   UNL     1       6.728  -0.970   0.242  0.00  0.00    +0.026 A 
ATOM     19  C   UNL     1       7.288  -0.926  -1.067  0.00  0.00    +0.043 A 
ATOM     20  N   UNL     1       7.012  -0.129  -2.081  0.00  0.00    -0.376 N 
ATOM     21  C   UNL     1       9.628  -2.453  -3.623  0.00  0.00    +0.048 C 
ATOM     22  C   UNL     1       8.803  -2.714  -4.896  0.00  0.00    +0.086 C 
ATOM     23  N   UNL     1       8.197  -1.466  -5.371  0.00  0.00    -0.307 NA
ATOM     24  H   UNL     1       7.802  -1.582  -6.293  0.00  0.00    +0.123 HD
ATOM     25  H   UNL     1       6.326   0.555  -2.113  0.00  0.00    +0.160 HD
ENDBRANCH   4  11
BRANCH   1  26
ATOM     26  C   UNL     1       2.525  -2.562  -4.503  0.00  0.00    +0.165 C 
BRANCH  26  30
ATOM     27  C   UNL     1       0.475  -0.568  -1.328  0.00  0.00    +0.120 A 
ATOM     28  C   UNL     1       1.072   0.169  -2.341  0.00  0.00    +0.046 A 
ATOM     29  C   UNL     1       1.735  -0.478  -3.366  0.00  0.00    +0.009 A 
ATOM     30  C   UNL     1       1.802  -1.859  -3.383  0.00  0.00    -0.027 A 
ATOM     31  C   UNL     1       1.208  -2.596  -2.376  0.00  0.00    +0.009 A 
ATOM     32  C   UNL     1       0.549  -1.953  -1.345  0.00  0.00    +0.046 A 
BRANCH  27  34
ATOM     33  C   UNL     1      -0.213   1.494  -0.366  0.00  0.00    +0.277 C 
ATOM     34  O   UNL     1      -0.177   0.066  -0.318  0.00  0.00    -0.495 OA
ENDBRANCH  27  34
ENDBRANCH  26  30
ENDBRANCH   1  26
TORSDOF 4
