REMARK  Name = ZINC13298300
REMARK  4 active torsions:
REMARK  status: ('A' for Active; 'I' for Inactive)
REMARK    1  A    between atoms: C_1  and  C_2
REMARK    2  A    between atoms: C_5  and  O_27
REMARK    3  A    between atoms: C_18  and  C_26
REMARK    4  A    between atoms: C_23  and  O_25
REMARK                            x       y       z     vdW  Elec       q    Type
REMARK                         _______ _______ _______ _____ _____    ______ ____
ROOT
ATOM      1  C   UNL     1       0.053   1.412   0.140  0.00  0.00    +0.012 C 
ATOM      2  C   UNL     1       0.087  -0.112   0.093  0.00  0.00    -0.026 C 
ATOM      3  C   UNL     1      -1.352  -0.649   0.134  0.00  0.00    +0.010 C 
ATOM      4  C   UNL     1      -2.039  -0.283   1.444  0.00  0.00    +0.032 C 
ATOM      5  C   UNL     1      -1.249  -0.838   2.629  0.00  0.00    +0.115 C 
ATOM      6  C   UNL     1       0.176  -0.285   2.602  0.00  0.00    +0.035 C 
ATOM      7  C   UNL     1       0.859  -0.669   1.288  0.00  0.00    -0.002 C 
ATOM      8  C   UNL     1       2.301  -0.166   1.303  0.00  0.00    +0.004 C 
ATOM      9  C   UNL     1       2.941  -0.359  -0.078  0.00  0.00    +0.004 C 
ATOM     10  C   UNL     1       2.066  -1.287  -0.903  0.00  0.00    -0.004 C 
ATOM     11  C   UNL     1       0.723  -0.606  -1.206  0.00  0.00    -0.001 C 
ATOM     12  C   UNL     1       0.867   0.482  -2.254  0.00  0.00    +0.005 C 
ATOM     13  C   UNL     1       1.441  -0.094  -3.564  0.00  0.00    +0.010 C 
ATOM     14  C   UNL     1       2.796  -0.693  -3.270  0.00  0.00    -0.003 C 
ATOM     15  C   UNL     1       2.661  -1.778  -2.184  0.00  0.00    +0.001 C 
ATOM     16  C   UNL     1       4.066  -2.387  -2.168  0.00  0.00    +0.007 C 
ATOM     17  C   UNL     1       4.415  -2.462  -3.683  0.00  0.00    +0.032 C 
ATOM     18  C   UNL     1       3.418  -1.523  -4.411  0.00  0.00    +0.121 C 
ATOM     19  C   UNL     1       3.803   0.398  -2.910  0.00  0.00    +0.014 C 
ENDROOT
BRANCH  18  20
ATOM     20  O   UNL     1       4.108  -0.661  -5.313  0.00  0.00    -0.391 OA
ATOM     21  H   UNL     1       4.524  -1.121  -6.055  0.00  0.00    +0.210 HD
ENDBRANCH  18  20
BRANCH   5  22
ATOM     22  O   UNL     1      -1.215  -2.263   2.560  0.00  0.00    -0.392 OA
ATOM     23  H   UNL     1      -2.088  -2.679   2.582  0.00  0.00    +0.210 HD
ENDBRANCH   5  22
TORSDOF 2
