REMARK  Name = ZINC17958620
REMARK  12 active torsions:
REMARK  status: ('A' for Active; 'I' for Inactive)
REMARK    1  A    between atoms: C_1  and  C_2
REMARK    2  A    between atoms: C_5  and  S_8
REMARK    3  A    between atoms: S_8  and  N_11
REMARK    4  A    between atoms: N_11  and  C_12
REMARK    5  A    between atoms: C_12  and  C_14
REMARK    6  A    between atoms: C_12  and  C_17
REMARK    7  A    between atoms: C_14  and  C_15
REMARK    8  A    between atoms: C_14  and  C_16
REMARK    9  A    between atoms: N_19  and  C_20
REMARK   10  A    between atoms: C_20  and  C_21
REMARK   11  A    between atoms: N_23  and  C_24
REMARK   12  A    between atoms: C_29  and  C_30
REMARK                            x       y       z     vdW  Elec       q    Type
REMARK                         _______ _______ _______ _____ _____    ______ ____
ROOT
ATOM      1  C   UNL     1       0.027   1.792   1.579  0.00  0.00    +0.232 C 
ATOM      2  O   UNL     1       0.209   1.183   2.612  0.00  0.00    -0.274 OA
ATOM      3  N   UNL     1      -0.151   3.127   1.605  0.00  0.00    -0.305 N 
ATOM      4  H   UNL     1      -0.367   3.604   0.789  0.00  0.00    +0.149 HD
ENDROOT
BRANCH   1   5
ATOM      5  C   UNL     1      -0.002   1.054   0.265  0.00  0.00    +0.165 C 
BRANCH   5   6
ATOM      6  C   UNL     1      -1.454   0.837  -0.167  0.00  0.00    +0.010 C 
ATOM      7  C   UNL     1      -1.482   0.084  -1.499  0.00  0.00    +0.009 C 
ATOM      8  C   UNL     1      -2.185   0.018   0.898  0.00  0.00    +0.009 C 
ENDBRANCH   5   6
BRANCH   5   9
ATOM      9  N   UNL     1       0.661  -0.243   0.418  0.00  0.00    -0.178 NA
ATOM     10  H   UNL     1       0.318  -0.891   1.054  0.00  0.00    +0.149 HD
BRANCH   9  11
ATOM     11  S   UNL     1       1.996  -0.604  -0.492  0.00  0.00    +0.059 S 
ATOM     12  O   UNL     1       2.418  -1.903  -0.098  0.00  0.00    -0.153 OA
ATOM     13  O   UNL     1       1.669  -0.285  -1.838  0.00  0.00    -0.153 OA
BRANCH  11  18
ATOM     14  C   UNL     1       6.370   3.207   1.166  0.00  0.00    +0.044 C 
ATOM     15  C   UNL     1       5.278   2.255   0.752  0.00  0.00    -0.050 A 
ATOM     16  C   UNL     1       5.137   1.041   1.399  0.00  0.00    +0.005 A 
ATOM     17  C   UNL     1       4.135   0.168   1.018  0.00  0.00    +0.029 A 
ATOM     18  C   UNL     1       3.274   0.509  -0.008  0.00  0.00    +0.105 A 
ATOM     19  C   UNL     1       3.418   1.720  -0.657  0.00  0.00    +0.029 A 
ATOM     20  C   UNL     1       4.417   2.595  -0.274  0.00  0.00    +0.005 A 
ENDBRANCH  11  18
ENDBRANCH   9  11
ENDBRANCH   5   9
ENDBRANCH   1   5
BRANCH   3  21
ATOM     21  C   UNL     1      -0.018   3.859   2.868  0.00  0.00    +0.200 C 
BRANCH  21  22
ATOM     22  C   UNL     1      -0.263   5.326   2.626  0.00  0.00    +0.234 C 
ATOM     23  O   UNL     1      -0.523   5.722   1.510  0.00  0.00    -0.274 OA
ATOM     24  N   UNL     1      -0.192   6.199   3.651  0.00  0.00    -0.284 N 
ATOM     25  H   UNL     1       0.075   5.892   4.532  0.00  0.00    +0.155 HD
BRANCH  24  26
ATOM     26  C   UNL     1      -0.505   7.547   3.445  0.00  0.00    +0.036 A 
ATOM     27  C   UNL     1      -0.320   8.121   2.194  0.00  0.00    +0.024 A 
ATOM     28  C   UNL     1      -0.629   9.451   1.993  0.00  0.00    +0.017 A 
ATOM     29  C   UNL     1      -1.124  10.213   3.037  0.00  0.00    +0.018 A 
ATOM     30  C   UNL     1      -1.309   9.645   4.285  0.00  0.00    +0.020 A 
ATOM     31  C   UNL     1      -1.006   8.312   4.489  0.00  0.00    -0.028 A 
ATOM     32  C   UNL     1      -1.214   7.692   5.847  0.00  0.00    +0.046 C 
ATOM     33 BR   UNL     1      -1.547  12.035   2.758  0.00  0.00    -0.050 Br
ENDBRANCH  24  26
ENDBRANCH  21  22
ENDBRANCH   3  21
TORSDOF 8
