REMARK  Name = ZINC36155153
REMARK  14 active torsions:
REMARK  status: ('A' for Active; 'I' for Inactive)
REMARK    1  A    between atoms: C_1  and  C_2
REMARK    2  A    between atoms: C_2  and  C_3
REMARK    3  A    between atoms: C_3  and  C_5
REMARK    4  A    between atoms: C_3  and  C_6
REMARK    5  A    between atoms: C_6  and  C_8
REMARK    6  A    between atoms: C_6  and  N_22
REMARK    7  A    between atoms: C_10  and  C_13
REMARK    8  A    between atoms: N_22  and  C_23
REMARK    9  A    between atoms: C_23  and  C_24
REMARK   10  A    between atoms: C_24  and  C_26
REMARK   11  A    between atoms: C_24  and  O_35
REMARK   12  A    between atoms: C_26  and  O_27
REMARK   13  A    between atoms: O_27  and  C_28
REMARK   14  A    between atoms: C_33  and  C_34
REMARK                            x       y       z     vdW  Elec       q    Type
REMARK                         _______ _______ _______ _____ _____    ______ ____
ROOT
ATOM      1  C   UNL     1      -1.494  -2.096  -0.078  0.00  0.00    +0.022 C 
ENDROOT
BRANCH   1   2
ATOM      2  C   UNL     1      -0.800  -2.244  -1.408  0.00  0.00    +0.214 A 
ATOM      3  N   UNL     1      -1.352  -2.658  -2.513  0.00  0.00    -0.193 NA
ATOM      4  C   UNL     1      -0.445  -2.668  -3.506  0.00  0.00    +0.202 A 
ATOM      5  N   UNL     1       0.703  -2.254  -3.028  0.00  0.00    -0.056 NA
ATOM      6  O   UNL     1       0.487  -1.966  -1.654  0.00  0.00    -0.339 OA
BRANCH   4   7
ATOM      7  C   UNL     1      -0.701  -3.079  -4.908  0.00  0.00    +0.026 A 
ATOM      8  C   UNL     1      -1.974  -3.496  -5.291  0.00  0.00    +0.015 A 
ATOM      9  C   UNL     1      -2.211  -3.878  -6.596  0.00  0.00    +0.050 A 
ATOM     10  C   UNL     1      -1.185  -3.849  -7.529  0.00  0.00    +0.166 A 
ATOM     11  C   UNL     1       0.090  -3.433  -7.150  0.00  0.00    +0.167 A 
ATOM     12  C   UNL     1       0.330  -3.043  -5.845  0.00  0.00    +0.061 A 
ATOM     13  O   UNL     1       0.910  -3.494  -8.240  0.00  0.00    -0.453 OA
ATOM     14  C   UNL     1       0.229  -4.339  -9.186  0.00  0.00    +0.466 C 
ATOM     15  O   UNL     1      -1.162  -4.171  -8.854  0.00  0.00    -0.453 OA
ENDBRANCH   4   7
ENDBRANCH   1   2
BRANCH   1  16
ATOM     16  N   UNL     1      -0.642  -2.650   0.983  0.00  0.00    +0.389 N 
ATOM     17  H   UNL     1       0.266  -2.212   0.948  0.00  0.00    -0.085 HD
ATOM     18  H   UNL     1      -1.066  -2.474   1.881  0.00  0.00    -0.085 HD
BRANCH  16  19
ATOM     19  C   UNL     1      -0.494  -4.098   0.786  0.00  0.00    -0.046 C 
BRANCH  19  20
ATOM     20  C   UNL     1       0.285  -4.696   1.960  0.00  0.00    +0.135 C 
BRANCH  20  21
ATOM     21  O   UNL     1       1.577  -4.090   2.031  0.00  0.00    -0.390 OA
ATOM     22  H   UNL     1       2.115  -4.217   1.237  0.00  0.00    +0.210 HD
ENDBRANCH  20  21
BRANCH  20  23
ATOM     23  C   UNL     1       0.439  -6.204   1.755  0.00  0.00    +0.258 C 
BRANCH  23  24
ATOM     24  O   UNL     1       1.063  -6.780   2.904  0.00  0.00    -0.489 OA
BRANCH  24  25
ATOM     25  C   UNL     1       1.275  -8.122   2.884  0.00  0.00    +0.124 A 
ATOM     26  C   UNL     1       0.894  -8.869   1.778  0.00  0.00    +0.046 A 
ATOM     27  C   UNL     1       1.111 -10.233   1.760  0.00  0.00    +0.004 A 
ATOM     28  C   UNL     1       1.706 -10.854   2.843  0.00  0.00    +0.000 A 
ATOM     29  C   UNL     1       2.086 -10.112   3.946  0.00  0.00    +0.007 A 
ATOM     30  C   UNL     1       1.876  -8.746   3.967  0.00  0.00    -0.009 A 
ATOM     31  C   UNL     1       2.296  -7.937   5.167  0.00  0.00    +0.047 C 
ENDBRANCH  24  25
ENDBRANCH  23  24
ENDBRANCH  20  23
ENDBRANCH  19  20
ENDBRANCH  16  19
ENDBRANCH   1  16
BRANCH   1  32
ATOM     32  C   UNL     1      -1.755  -0.615   0.199  0.00  0.00    -0.020 C 
ATOM     33  C   UNL     1      -2.548  -0.011  -0.962  0.00  0.00    +0.006 C 
BRANCH  32  35
ATOM     34  C   UNL     1      -2.712   1.011   1.837  0.00  0.00    +0.004 C 
ATOM     35  C   UNL     1      -2.558  -0.472   1.494  0.00  0.00    -0.001 C 
ENDBRANCH  32  35
ENDBRANCH   1  32
TORSDOF 11
