REMARK  Name = ZINC02638460
REMARK  5 active torsions:
REMARK  status: ('A' for Active; 'I' for Inactive)
REMARK    1  A    between atoms: C_7  and  C_11
REMARK    2  A    between atoms: C_11  and  C_13
REMARK    3  A    between atoms: C_13  and  S_14
REMARK    4  A    between atoms: S_14  and  C_15
REMARK    5  A    between atoms: C_17  and  C_20
REMARK                            x       y       z     vdW  Elec       q    Type
REMARK                         _______ _______ _______ _____ _____    ______ ____
ROOT
ATOM      1  S   UNL     1       1.767  -2.126  -0.025  0.00  0.00    -0.079 S 
ENDROOT
BRANCH   1   2
ATOM      2  C   UNL     1       1.264  -0.437  -0.012  0.00  0.00    +0.185 A 
ATOM      3  N   UNL     1       0.002  -0.004   0.002  0.00  0.00    -0.201 NA
ATOM      4  C   UNL     1      -0.016   1.314   0.009  0.00  0.00    +0.182 A 
ATOM      5  N   UNL     1       1.264   1.748  -0.002  0.00  0.00    -0.152 NA
ATOM      6  N   UNL     1       2.072   0.599  -0.015  0.00  0.00    -0.253 N 
ATOM      7  H   UNL     1       3.168   0.697  -0.026  0.00  0.00    +0.191 HD
BRANCH   4   8
ATOM      8  C   UNL     1      -1.224   2.168   0.027  0.00  0.00    +0.021 A 
ATOM      9  C   UNL     1      -1.099   3.557   0.046  0.00  0.00    +0.013 A 
ATOM     10  C   UNL     1      -2.229   4.348   0.058  0.00  0.00    +0.016 A 
ATOM     11  C   UNL     1      -3.485   3.766   0.060  0.00  0.00    +0.018 A 
ATOM     12  C   UNL     1      -3.615   2.388   0.046  0.00  0.00    +0.016 A 
ATOM     13  C   UNL     1      -2.492   1.587   0.030  0.00  0.00    +0.013 A 
ATOM     14 BR   UNL     1      -5.029   4.857   0.084  0.00  0.00    -0.050 Br
ENDBRANCH   4   8
ENDBRANCH   1   2
BRANCH   1  15
ATOM     15  C   UNL     1       3.579  -2.044  -0.043  0.00  0.00    +0.157 C 
BRANCH  15  16
ATOM     16  C   UNL     1       4.144  -3.441  -0.055  0.00  0.00    +0.175 C 
ATOM     17  O   UNL     1       3.398  -4.398  -0.052  0.00  0.00    -0.291 OA
BRANCH  16  24
ATOM     18  C   UNL     1       6.799  -7.263  -0.098  0.00  0.00    +0.001 A 
ATOM     19  C   UNL     1       8.150  -6.951  -0.110  0.00  0.00    +0.002 A 
ATOM     20  C   UNL     1       8.568  -5.638  -0.108  0.00  0.00    +0.026 A 
ATOM     21  C   UNL     1       7.629  -4.611  -0.094  0.00  0.00    +0.047 A 
ATOM     22  C   UNL     1       6.262  -4.929  -0.083  0.00  0.00    +0.010 A 
ATOM     23  C   UNL     1       5.854  -6.260  -0.085  0.00  0.00    +0.011 A 
ATOM     24  C   UNL     1       5.548  -3.637  -0.069  0.00  0.00    +0.043 A 
ATOM     25  C   UNL     1       6.520  -2.660  -0.080  0.00  0.00    +0.095 A 
ATOM     26  N   UNL     1       7.738  -3.235  -0.089  0.00  0.00    -0.360 N 
ATOM     27  H   UNL     1       8.732  -2.762  -0.091  0.00  0.00    +0.165 HD
ENDBRANCH  16  24
ENDBRANCH  15  16
ENDBRANCH   1  15
TORSDOF 5
