REMARK  Name = ZINC19608531
REMARK  7 active torsions:
REMARK  status: ('A' for Active; 'I' for Inactive)
REMARK    1  A    between atoms: C_1  and  O_2
REMARK    2  A    between atoms: O_2  and  C_3
REMARK    3  A    between atoms: C_8  and  C_9
REMARK    4  A    between atoms: C_9  and  C_10
REMARK    5  A    between atoms: C_10  and  N_11
REMARK    6  A    between atoms: N_11  and  C_12
REMARK    7  A    between atoms: N_23  and  C_26
REMARK                            x       y       z     vdW  Elec       q    Type
REMARK                         _______ _______ _______ _____ _____    ______ ____
ROOT
ATOM      1  C   UNL     1      -0.795   1.527  -1.120  0.00  0.00    -0.067 C 
ATOM      2  C   UNL     1      -1.918   0.544  -1.464  0.00  0.00    -0.011 C 
ATOM      3  C   UNL     1      -2.579   0.951  -2.781  0.00  0.00    +0.035 C 
ATOM      4  C   UNL     1      -2.996   2.416  -2.694  0.00  0.00    -0.023 A 
ATOM      5  C   UNL     1      -2.451   3.231  -1.760  0.00  0.00    -0.006 A 
ATOM      6  S   UNL     1      -3.214   4.813  -2.021  0.00  0.00    -0.073 S 
ATOM      7  C   UNL     1      -4.258   4.380  -3.377  0.00  0.00    +0.116 A 
ATOM      8  C   UNL     1      -3.978   3.011  -3.583  0.00  0.00    +0.076 A 
ATOM      9  C   UNL     1      -4.687   2.354  -4.645  0.00  0.00    +0.263 A 
ATOM     10  O   UNL     1      -4.518   1.175  -4.905  0.00  0.00    -0.267 OA
ATOM     11  N   UNL     1      -5.555   3.128  -5.338  0.00  0.00    -0.295 N 
ATOM     12  C   UNL     1      -5.758   4.439  -5.065  0.00  0.00    +0.203 A 
ATOM     13  N   UNL     1      -5.128   5.076  -4.102  0.00  0.00    -0.230 NA
ATOM     14  C   UNL     1      -1.424   2.873  -0.731  0.00  0.00    +0.027 C 
ENDROOT
BRANCH  11  15
ATOM     15  C   UNL     1      -6.311   2.518  -6.435  0.00  0.00    +0.100 C 
ATOM     16  C   UNL     1      -6.087   3.292  -7.752  0.00  0.00    +0.061 C 
ATOM     17  C   UNL     1      -7.419   3.232  -8.475  0.00  0.00    -0.042 A 
ATOM     18  C   UNL     1      -7.728   3.468  -9.804  0.00  0.00    +0.004 A 
ATOM     19  C   UNL     1      -9.031   3.348 -10.246  0.00  0.00    +0.000 A 
ATOM     20  C   UNL     1     -10.030   2.991  -9.360  0.00  0.00    +0.000 A 
ATOM     21  C   UNL     1      -9.724   2.756  -8.034  0.00  0.00    +0.004 A 
ATOM     22  C   UNL     1      -8.418   2.875  -7.588  0.00  0.00    -0.042 A 
ATOM     23  C   UNL     1      -7.830   2.674  -6.208  0.00  0.00    +0.061 C 
ENDBRANCH  11  15
BRANCH   1  24
ATOM     24  N   UNL     1      -0.012   1.005   0.008  0.00  0.00    +0.381 N 
ATOM     25  H   UNL     1       0.031  -0.092  -0.070  0.00  0.00    -0.086 HD
ATOM     26  H   UNL     1      -0.512   1.287   0.946  0.00  0.00    -0.086 HD
BRANCH  24  27
ATOM     27  C   UNL     1       1.353   1.550  -0.003  0.00  0.00    -0.077 C 
BRANCH  27  28
ATOM     28  C   UNL     1       2.136   0.985   1.184  0.00  0.00    +0.020 C 
BRANCH  28  34
ATOM     29  C   UNL     1       3.796   2.774   1.759  0.00  0.00    +0.123 A 
ATOM     30  C   UNL     1       5.086   3.286   1.748  0.00  0.00    +0.046 A 
ATOM     31  C   UNL     1       6.107   2.570   1.155  0.00  0.00    +0.004 A 
ATOM     32  C   UNL     1       5.845   1.343   0.572  0.00  0.00    +0.000 A 
ATOM     33  C   UNL     1       4.562   0.829   0.586  0.00  0.00    +0.007 A 
ATOM     34  C   UNL     1       3.536   1.544   1.173  0.00  0.00    -0.007 A 
BRANCH  29  36
ATOM     35  C   UNL     1       3.131   4.736   2.925  0.00  0.00    +0.277 C 
ATOM     36  O   UNL     1       2.790   3.477   2.342  0.00  0.00    -0.495 OA
ENDBRANCH  29  36
ENDBRANCH  28  34
ENDBRANCH  27  28
ENDBRANCH  24  27
ENDBRANCH   1  24
TORSDOF 6
