REMARK  Name = ZINC36490449
REMARK  9 active torsions:
REMARK  status: ('A' for Active; 'I' for Inactive)
REMARK    1  A    between atoms: C_4  and  C_7
REMARK    2  A    between atoms: N_9  and  C_10
REMARK    3  A    between atoms: C_10  and  C_11
REMARK    4  A    between atoms: N_13  and  C_14
REMARK    5  A    between atoms: N_13  and  C_20
REMARK    6  A    between atoms: C_20  and  C_22
REMARK    7  A    between atoms: C_20  and  C_29
REMARK    8  A    between atoms: C_27  and  O_28
REMARK    9  A    between atoms: N_31  and  C_32
REMARK                            x       y       z     vdW  Elec       q    Type
REMARK                         _______ _______ _______ _____ _____    ______ ____
ROOT
ATOM      1  C   UNL     1       4.357  -4.390  -0.380  0.00  0.00    +0.234 C 
ATOM      2  O   UNL     1       3.307  -4.997  -0.369  0.00  0.00    -0.274 OA
ATOM      3  N   UNL     1       5.523  -5.061  -0.297  0.00  0.00    -0.281 N 
ENDROOT
BRANCH   3   4
ATOM      4  C   UNL     1       6.787  -4.325  -0.205  0.00  0.00    +0.077 C 
ATOM      5  C   UNL     1       7.626  -4.594  -1.456  0.00  0.00    +0.022 C 
ATOM      6  C   UNL     1       8.945  -3.825  -1.360  0.00  0.00    +0.002 C 
ATOM      7  C   UNL     1       9.715  -4.286  -0.121  0.00  0.00    +0.000 C 
ATOM      8  C   UNL     1       8.876  -4.016   1.130  0.00  0.00    +0.002 C 
ATOM      9  C   UNL     1       7.556  -4.785   1.034  0.00  0.00    +0.022 C 
ENDBRANCH   3   4
BRANCH   1  10
ATOM     10  C   UNL     1       4.358  -2.887  -0.486  0.00  0.00    +0.200 C 
BRANCH  10  13
ATOM     11  C   UNL     1       2.744  -1.091  -0.806  0.00  0.00    +0.244 C 
ATOM     12  O   UNL     1       3.661  -0.296  -0.753  0.00  0.00    -0.270 OA
ATOM     13  N   UNL     1       2.987  -2.411  -0.684  0.00  0.00    -0.303 N 
ATOM     14  H   UNL     1       2.255  -3.045  -0.726  0.00  0.00    +0.150 HD
BRANCH  11  18
ATOM     15  C   UNL     1      -1.232   0.291  -1.380  0.00  0.00    +0.000 A 
ATOM     16  C   UNL     1      -0.190   1.199  -1.319  0.00  0.00    +0.001 A 
ATOM     17  C   UNL     1       1.104   0.756  -1.133  0.00  0.00    +0.013 A 
ATOM     18  C   UNL     1       1.360  -0.610  -1.005  0.00  0.00    +0.037 A 
ATOM     19  C   UNL     1       0.303  -1.520  -1.068  0.00  0.00    +0.013 A 
ATOM     20  C   UNL     1      -0.985  -1.065  -1.254  0.00  0.00    +0.001 A 
ENDBRANCH  11  18
ENDBRANCH  10  13
ENDBRANCH   1  10
BRANCH   3  21
ATOM     21  C   UNL     1       5.528  -6.526  -0.299  0.00  0.00    +0.196 C 
BRANCH  21  22
ATOM     22  C   UNL     1       4.901  -7.032   0.975  0.00  0.00    +0.023 A 
ATOM     23  C   UNL     1       4.101  -6.196   1.731  0.00  0.00    +0.009 A 
ATOM     24  C   UNL     1       3.527  -6.659   2.900  0.00  0.00    +0.001 A 
ATOM     25  C   UNL     1       3.750  -7.959   3.315  0.00  0.00    +0.004 A 
ATOM     26  C   UNL     1       4.549  -8.798   2.563  0.00  0.00    +0.046 A 
ATOM     27  C   UNL     1       5.122  -8.338   1.387  0.00  0.00    +0.122 A 
BRANCH  27  28
ATOM     28  O   UNL     1       5.904  -9.163   0.641  0.00  0.00    -0.506 OA
ATOM     29  H   UNL     1       6.841  -9.138   0.880  0.00  0.00    +0.292 HD
ENDBRANCH  27  28
ENDBRANCH  21  22
BRANCH  21  30
ATOM     30  C   UNL     1       4.740  -7.029  -1.481  0.00  0.00    +0.238 C 
ATOM     31  O   UNL     1       4.225  -6.242  -2.246  0.00  0.00    -0.273 OA
ATOM     32  N   UNL     1       4.607  -8.354  -1.687  0.00  0.00    -0.311 N 
ATOM     33  H   UNL     1       5.018  -8.984  -1.075  0.00  0.00    +0.149 HD
BRANCH  32  34
ATOM     34  C   UNL     1       3.841  -8.844  -2.836  0.00  0.00    +0.073 C 
ATOM     35  C   UNL     1       2.356  -8.900  -2.472  0.00  0.00    +0.022 C 
ATOM     36  C   UNL     1       1.555  -9.411  -3.671  0.00  0.00    +0.002 C 
ATOM     37  C   UNL     1       2.041 -10.812  -4.049  0.00  0.00    +0.000 C 
ATOM     38  C   UNL     1       3.526 -10.755  -4.413  0.00  0.00    +0.002 C 
ATOM     39  C   UNL     1       4.327 -10.244  -3.213  0.00  0.00    +0.022 C 
ENDBRANCH  32  34
ENDBRANCH  21  30
ENDBRANCH   3  21
TORSDOF 9
