REMARK  Name = ZINC00710000
REMARK  5 active torsions:
REMARK  status: ('A' for Active; 'I' for Inactive)
REMARK    1  A    between atoms: C_4  and  C_7
REMARK    2  A    between atoms: C_11  and  C_27
REMARK    3  A    between atoms: C_14  and  C_17
REMARK    4  A    between atoms: C_27  and  O_28
REMARK    5  A    between atoms: O_28  and  C_29
REMARK                            x       y       z     vdW  Elec       q    Type
REMARK                         _______ _______ _______ _____ _____    ______ ____
ROOT
ATOM      1  C   UNL     1       0.082  -3.570   1.117  0.00  0.00    +0.269 C 
ATOM      2  O   UNL     1       0.585  -3.879   0.054  0.00  0.00    -0.268 OA
ATOM      3  N   UNL     1      -1.029  -2.808   1.141  0.00  0.00    -0.171 N 
ATOM      4  C   UNL     1      -1.597  -2.248  -0.097  0.00  0.00    +0.175 C 
ATOM      5  C   UNL     1      -1.899  -0.764   0.149  0.00  0.00    +0.179 C 
ATOM      6  O   UNL     1      -2.655  -0.637   1.357  0.00  0.00    -0.337 OA
ATOM      7  C   UNL     1      -1.974  -1.120   2.521  0.00  0.00    +0.310 C 
ATOM      8  O   UNL     1      -1.697  -2.516   2.364  0.00  0.00    -0.240 OA
ENDROOT
BRANCH   7   9
ATOM      9  C   UNL     1      -2.845  -0.913   3.734  0.00  0.00    +0.035 A 
ATOM     10  C   UNL     1      -4.157  -0.631   3.736  0.00  0.00    +0.092 A 
ATOM     11  N   UNL     1      -4.607  -0.514   5.023  0.00  0.00    -0.360 N 
ATOM     12  H   UNL     1      -5.521  -0.313   5.278  0.00  0.00    +0.165 HD
ATOM     13  C   UNL     1      -3.568  -0.722   5.903  0.00  0.00    +0.047 A 
ATOM     14  C   UNL     1      -2.420  -0.988   5.134  0.00  0.00    +0.008 A 
ATOM     15  C   UNL     1      -1.200  -1.234   5.766  0.00  0.00    +0.010 A 
ATOM     16  C   UNL     1      -1.130  -1.228   7.131  0.00  0.00    +0.001 A 
ATOM     17  C   UNL     1      -2.261  -0.973   7.894  0.00  0.00    +0.002 A 
ATOM     18  C   UNL     1      -3.474  -0.721   7.290  0.00  0.00    +0.026 A 
ENDBRANCH   7   9
BRANCH   1  22
ATOM     19  C   UNL     1       1.829  -4.894   4.756  0.00  0.00    +0.000 A 
ATOM     20  C   UNL     1       0.779  -3.993   4.783  0.00  0.00    +0.001 A 
ATOM     21  C   UNL     1       0.207  -3.559   3.605  0.00  0.00    +0.013 A 
ATOM     22  C   UNL     1       0.690  -4.030   2.384  0.00  0.00    +0.039 A 
ATOM     23  C   UNL     1       1.746  -4.943   2.363  0.00  0.00    +0.013 A 
ATOM     24  C   UNL     1       2.312  -5.365   3.548  0.00  0.00    +0.001 A 
ENDBRANCH   1  22
BRANCH   5  25
ATOM     25  C   UNL     1      -0.586   0.011   0.281  0.00  0.00    +0.262 C 
BRANCH  25  26
ATOM     26  O   UNL     1      -0.867   1.407   0.399  0.00  0.00    -0.489 OA
BRANCH  26  27
ATOM     27  C   UNL     1       0.198   2.241   0.526  0.00  0.00    +0.121 A 
ATOM     28  C   UNL     1       1.486   1.727   0.542  0.00  0.00    +0.045 A 
ATOM     29  C   UNL     1       2.567   2.578   0.665  0.00  0.00    +0.004 A 
ATOM     30  C   UNL     1       2.365   3.941   0.784  0.00  0.00    +0.000 A 
ATOM     31  C   UNL     1       1.082   4.456   0.774  0.00  0.00    +0.004 A 
ATOM     32  C   UNL     1      -0.002   3.609   0.645  0.00  0.00    +0.045 A 
ENDBRANCH  26  27
ENDBRANCH  25  26
ENDBRANCH   5  25
TORSDOF 5
