REMARK  Name = ZINC00709338
REMARK  9 active torsions:
REMARK  status: ('A' for Active; 'I' for Inactive)
REMARK    1  A    between atoms: C_1  and  C_2
REMARK    2  A    between atoms: C_2  and  C_3
REMARK    3  A    between atoms: C_2  and  C_4
REMARK    4  A    between atoms: C_2  and  C_5
REMARK    5  A    between atoms: C_12  and  N_17
REMARK    6  A    between atoms: C_13  and  C_14
REMARK    7  A    between atoms: C_18  and  C_20
REMARK    8  A    between atoms: C_20  and  O_21
REMARK    9  A    between atoms: O_21  and  C_22
REMARK                            x       y       z     vdW  Elec       q    Type
REMARK                         _______ _______ _______ _____ _____    ______ ____
ROOT
ATOM      1  C   UNL     1       5.445   4.641  -0.403  0.00  0.00    -0.000 C 
ATOM      2  C   UNL     1       4.549   5.547   0.447  0.00  0.00    +0.009 C 
ATOM      3  C   UNL     1       3.092   5.402   0.003  0.00  0.00    +0.037 C 
ATOM      4  C   UNL     1       2.726   3.923  -0.002  0.00  0.00    -0.023 A 
ATOM      5  C   UNL     1       3.682   2.970  -0.017  0.00  0.00    -0.004 A 
ATOM      6  S   UNL     1       2.795   1.438  -0.009  0.00  0.00    -0.077 S 
ATOM      7  C   UNL     1       1.175   2.053   0.002  0.00  0.00    +0.084 A 
ATOM      8  C   UNL     1       1.359   3.429   0.007  0.00  0.00    +0.068 A 
ATOM      9  C   UNL     1       5.165   3.178  -0.030  0.00  0.00    +0.046 C 
ENDROOT
BRANCH   8  10
ATOM     10  C   UNL     1       0.218   4.349   0.022  0.00  0.00    +0.244 C 
ATOM     11  O   UNL     1      -0.246   4.725   1.083  0.00  0.00    -0.270 OA
ATOM     12  N   UNL     1      -0.317   4.777  -1.138  0.00  0.00    -0.325 N 
ATOM     13  H   UNL     1       0.053   4.477  -1.983  0.00  0.00    +0.145 HD
ATOM     14  H   UNL     1      -1.072   5.386  -1.128  0.00  0.00    +0.145 HD
ENDBRANCH   8  10
BRANCH   1  16
ATOM     15  C   UNL     1       7.218   4.740   1.354  0.00  0.00    +0.011 C 
ATOM     16  C   UNL     1       6.913   4.969  -0.128  0.00  0.00    -0.035 C 
ATOM     17  C   UNL     1       7.806   4.063  -0.978  0.00  0.00    +0.011 C 
ATOM     18  C   UNL     1       7.185   6.432  -0.484  0.00  0.00    +0.011 C 
ENDBRANCH   1  16
BRANCH   7  19
ATOM     19  N   UNL     1      -0.016   1.344   0.009  0.00  0.00    -0.277 N 
ATOM     20  C   UNL     1       0.002  -0.004   0.002  0.00  0.00    +0.255 C 
ATOM     21  O   UNL     1       1.060  -0.596  -0.011  0.00  0.00    -0.272 OA
ATOM     22  H   UNL     1      -0.863   1.817   0.016  0.00  0.00    +0.155 HD
BRANCH  20  23
ATOM     23  C   UNL     1      -1.293  -0.775   0.010  0.00  0.00    +0.324 C 
BRANCH  23  24
ATOM     24  O   UNL     1      -1.012  -2.176   0.000  0.00  0.00    -0.483 OA
BRANCH  24  25
ATOM     25  C   UNL     1      -2.079  -3.019   0.006  0.00  0.00    +0.121 A 
ATOM     26  C   UNL     1      -3.368  -2.507   0.026  0.00  0.00    +0.048 A 
ATOM     27  C   UNL     1      -4.451  -3.365   0.026  0.00  0.00    +0.042 A 
ATOM     28  C   UNL     1      -4.251  -4.735   0.017  0.00  0.00    +0.124 A 
ATOM     29  C   UNL     1      -2.965  -5.247   0.002  0.00  0.00    +0.042 A 
ATOM     30  C   UNL     1      -1.880  -4.392  -0.004  0.00  0.00    +0.048 A 
ATOM     31  F   UNL     1      -5.311  -5.572   0.021  0.00  0.00    -0.205 F 
ENDBRANCH  24  25
ENDBRANCH  23  24
ENDBRANCH  20  23
ENDBRANCH   7  19
TORSDOF 6
