REMARK  Name = ZINC48037951
REMARK  9 active torsions:
REMARK  status: ('A' for Active; 'I' for Inactive)
REMARK    1  A    between atoms: C_6  and  C_7
REMARK    2  A    between atoms: C_7  and  C_8
REMARK    3  A    between atoms: C_7  and  O_15
REMARK    4  A    between atoms: O_15  and  C_16
REMARK    5  A    between atoms: C_16  and  C_17
REMARK    6  A    between atoms: C_17  and  C_18
REMARK    7  A    between atoms: C_17  and  O_27
REMARK    8  A    between atoms: C_18  and  N_19
REMARK    9  A    between atoms: C_22  and  C_24
REMARK                            x       y       z     vdW  Elec       q    Type
REMARK                         _______ _______ _______ _____ _____    ______ ____
ROOT
ATOM      1  O   UNL     1      -1.166  -1.910   0.869  0.00  0.00    -0.365 OA
ENDROOT
BRANCH   1   2
ATOM      2  C   UNL     1      -1.293  -0.775   0.010  0.00  0.00    +0.178 C 
BRANCH   2   8
ATOM      3  C   UNL     1      -0.017   1.378   0.010  0.00  0.00    +0.009 A 
ATOM      4  C   UNL     1       1.170   2.086   0.002  0.00  0.00    +0.039 A 
ATOM      5  C   UNL     1       2.379   1.410  -0.013  0.00  0.00    +0.123 A 
ATOM      6  C   UNL     1       2.396   0.026  -0.021  0.00  0.00    +0.039 A 
ATOM      7  C   UNL     1       1.208  -0.680  -0.013  0.00  0.00    +0.009 A 
ATOM      8  C   UNL     1       0.002  -0.004   0.002  0.00  0.00    -0.014 A 
ATOM      9  F   UNL     1       3.540   2.101  -0.021  0.00  0.00    -0.205 F 
ENDBRANCH   2   8
BRANCH   2  10
ATOM     10  C   UNL     1      -1.612  -1.236  -1.389  0.00  0.00    -0.014 A 
ATOM     11  C   UNL     1      -1.073  -2.416  -1.866  0.00  0.00    +0.009 A 
ATOM     12  C   UNL     1      -1.365  -2.840  -3.149  0.00  0.00    +0.039 A 
ATOM     13  C   UNL     1      -2.198  -2.083  -3.955  0.00  0.00    +0.123 A 
ATOM     14  C   UNL     1      -2.737  -0.902  -3.475  0.00  0.00    +0.039 A 
ATOM     15  C   UNL     1      -2.448  -0.482  -2.191  0.00  0.00    +0.009 A 
ATOM     16  F   UNL     1      -2.484  -2.497  -5.209  0.00  0.00    -0.205 F 
ENDBRANCH   2  10
ENDBRANCH   1   2
BRANCH   1  17
ATOM     17  C   UNL     1      -1.534  -1.656   2.226  0.00  0.00    +0.190 C 
BRANCH  17  18
ATOM     18  C   UNL     1      -1.360  -2.934   3.050  0.00  0.00    +0.124 C 
BRANCH  18  19
ATOM     19  O   UNL     1      -2.279  -3.926   2.588  0.00  0.00    -0.391 OA
ATOM     20  H   UNL     1      -3.208  -3.666   2.659  0.00  0.00    +0.210 HD
ENDBRANCH  18  19
BRANCH  18  21
ATOM     21  C   UNL     1      -1.634  -2.631   4.524  0.00  0.00    -0.045 C 
BRANCH  21  22
ATOM     22  N   UNL     1      -1.351  -3.827   5.330  0.00  0.00    +0.382 N 
ATOM     23  C   UNL     1       0.108  -4.106   5.338  0.00  0.00    -0.078 C 
ATOM     24  C   UNL     1       0.296  -4.971   6.609  0.00  0.00    -0.008 C 
ATOM     25  C   UNL     1      -0.693  -4.333   7.611  0.00  0.00    +0.056 C 
ATOM     26  C   UNL     1      -1.724  -3.591   6.741  0.00  0.00    -0.066 C 
ATOM     27  H   UNL     1      -1.856  -4.620   4.965  0.00  0.00    -0.082 HD
BRANCH  25  28
ATOM     28  C   UNL     1      -1.371  -5.401   8.430  0.00  0.00    +0.212 C 
ATOM     29  O   UNL     1      -2.575  -5.533   8.376  0.00  0.00    -0.276 OA
ATOM     30  N   UNL     1      -0.639  -6.210   9.221  0.00  0.00    -0.329 N 
ATOM     31  H   UNL     1       0.325  -6.104   9.264  0.00  0.00    +0.145 HD
ATOM     32  H   UNL     1      -1.075  -6.898   9.748  0.00  0.00    +0.145 HD
ENDBRANCH  25  28
ENDBRANCH  21  22
ENDBRANCH  18  21
ENDBRANCH  17  18
ENDBRANCH   1  17
TORSDOF 9
