REMARK  Name = ZINC36266829
REMARK  5 active torsions:
REMARK  status: ('A' for Active; 'I' for Inactive)
REMARK    1  A    between atoms: C_5  and  S_6
REMARK    2  A    between atoms: S_6  and  N_9
REMARK    3  A    between atoms: N_9  and  C_10
REMARK    4  A    between atoms: C_10  and  C_11
REMARK    5  A    between atoms: C_11  and  N_18
REMARK                            x       y       z     vdW  Elec       q    Type
REMARK                         _______ _______ _______ _____ _____    ______ ____
ROOT
ATOM      1  C   UNL     1      -0.788  -2.126  -2.442  0.00  0.00    +0.093 C 
ENDROOT
BRANCH   1   2
ATOM      2  C   UNL     1      -1.506  -2.613  -3.703  0.00  0.00    -0.057 C 
ATOM      3  C   UNL     1      -2.163  -1.405  -4.399  0.00  0.00    -0.012 C 
ATOM      4  C   UNL     1      -1.161  -0.570  -5.218  0.00  0.00    -0.001 C 
ATOM      5  C   UNL     1       0.150  -0.381  -4.504  0.00  0.00    -0.000 C 
ATOM      6  C   UNL     1       1.125  -1.482  -4.969  0.00  0.00    -0.000 C 
ATOM      7  C   UNL     1       0.890  -2.751  -4.297  0.00  0.00    -0.001 C 
ATOM      8  C   UNL     1      -0.514  -3.318  -4.587  0.00  0.00    -0.012 C 
BRANCH   2   9
ATOM      9  N   UNL     1      -2.557  -3.563  -3.313  0.00  0.00    +0.383 N 
ATOM     10  H   UNL     1      -3.215  -3.106  -2.700  0.00  0.00    -0.089 HD
ATOM     11  H   UNL     1      -3.037  -3.890  -4.138  0.00  0.00    -0.089 HD
ATOM     12  H   UNL     1      -2.140  -4.347  -2.834  0.00  0.00    -0.089 HD
ENDBRANCH   2   9
ENDBRANCH   1   2
BRANCH   1  13
ATOM     13  N   UNL     1      -0.401  -3.279  -1.625  0.00  0.00    -0.191 NA
ATOM     14  H   UNL     1      -0.791  -4.150  -1.800  0.00  0.00    +0.148 HD
BRANCH  13  15
ATOM     15  S   UNL     1       0.704  -3.096  -0.405  0.00  0.00    +0.065 S 
ATOM     16  O   UNL     1       1.806  -2.389  -0.958  0.00  0.00    -0.153 OA
ATOM     17  O   UNL     1       0.846  -4.369   0.209  0.00  0.00    -0.153 OA
BRANCH  15  22
ATOM     18  C   UNL     1      -0.779  -2.358   1.876  0.00  0.00    +0.038 A 
ATOM     19  C   UNL     1      -1.248  -1.347   2.694  0.00  0.00    +0.030 A 
ATOM     20  C   UNL     1      -0.936  -0.061   2.395  0.00  0.00    +0.080 A 
ATOM     21  S   UNL     1       0.049  -0.255   0.918  0.00  0.00    -0.057 S 
ATOM     22  C   UNL     1      -0.022  -2.034   0.799  0.00  0.00    +0.144 A 
ATOM     23 CL   UNL     1      -1.378   1.395   3.231  0.00  0.00    -0.076 Cl
ENDBRANCH  15  22
ENDBRANCH  13  15
ENDBRANCH   1  13
TORSDOF 5
