REMARK  Name = ZINC49071121
REMARK  9 active torsions:
REMARK  status: ('A' for Active; 'I' for Inactive)
REMARK    1  A    between atoms: C_4  and  C_7
REMARK    2  A    between atoms: C_7  and  N_8
REMARK    3  A    between atoms: N_8  and  C_9
REMARK    4  A    between atoms: N_8  and  C_25
REMARK    5  A    between atoms: C_9  and  C_10
REMARK    6  A    between atoms: C_13  and  C_16
REMARK    7  A    between atoms: C_16  and  N_17
REMARK    8  A    between atoms: N_17  and  C_18
REMARK    9  A    between atoms: C_18  and  C_19
REMARK                            x       y       z     vdW  Elec       q    Type
REMARK                         _______ _______ _______ _____ _____    ______ ____
ROOT
ATOM      1  N   UNL     1       4.104  -1.478   1.362  0.00  0.00    +0.391 N 
ATOM      2  H   UNL     1       3.732  -2.258   1.883  0.00  0.00    -0.080 HD
ENDROOT
BRANCH   1   3
ATOM      3  C   UNL     1       3.856  -0.233   2.102  0.00  0.00    -0.017 C 
ATOM      4  C   UNL     1       4.721   0.881   1.517  0.00  0.00    -0.009 C 
ATOM      5  C   UNL     1       4.613   2.109   2.429  0.00  0.00    +0.003 C 
ATOM      6  C   UNL     1       5.333   1.799   3.740  0.00  0.00    +0.037 C 
ATOM      7  C   UNL     1       4.856   0.489   4.308  0.00  0.00    -0.028 A 
ATOM      8  C   UNL     1       4.183  -0.448   3.558  0.00  0.00    +0.031 A 
ATOM      9  N   UNL     1       3.793  -1.588   4.113  0.00  0.00    -0.261 NA
ATOM     10  C   UNL     1       4.024  -1.871   5.377  0.00  0.00    +0.111 A 
ATOM     11  C   UNL     1       4.692  -0.975   6.189  0.00  0.00    +0.020 A 
ATOM     12  C   UNL     1       5.116   0.226   5.649  0.00  0.00    +0.007 A 
ENDBRANCH   1   3
BRANCH   1  13
ATOM     13  C   UNL     1       3.446  -1.406   0.050  0.00  0.00    -0.042 C 
BRANCH  13  17
ATOM     14  C   UNL     1      -0.793  -1.413   0.578  0.00  0.00    +0.000 A 
ATOM     15  C   UNL     1      -0.107  -0.215   0.506  0.00  0.00    +0.000 A 
ATOM     16  C   UNL     1       1.265  -0.213   0.336  0.00  0.00    +0.002 A 
ATOM     17  C   UNL     1       1.951  -1.409   0.237  0.00  0.00    -0.064 A 
ATOM     18  C   UNL     1       1.266  -2.607   0.310  0.00  0.00    +0.002 A 
ATOM     19  C   UNL     1      -0.106  -2.609   0.479  0.00  0.00    +0.000 A 
ENDBRANCH  13  17
ENDBRANCH   1  13
BRANCH   1  20
ATOM     20  C   UNL     1       5.550  -1.657   1.176  0.00  0.00    -0.042 C 
BRANCH  20  21
ATOM     21  C   UNL     1       6.196  -1.944   2.507  0.00  0.00    -0.064 A 
ATOM     22  C   UNL     1       6.823  -0.927   3.203  0.00  0.00    +0.002 A 
ATOM     23  C   UNL     1       7.416  -1.190   4.424  0.00  0.00    +0.002 A 
ATOM     24  C   UNL     1       7.381  -2.469   4.949  0.00  0.00    -0.064 A 
ATOM     25  C   UNL     1       6.753  -3.484   4.253  0.00  0.00    +0.002 A 
ATOM     26  C   UNL     1       6.157  -3.221   3.034  0.00  0.00    +0.002 A 
BRANCH  24  27
ATOM     27  C   UNL     1       8.028  -2.755   6.279  0.00  0.00    -0.046 C 
BRANCH  27  28
ATOM     28  N   UNL     1       7.023  -2.649   7.346  0.00  0.00    +0.385 N 
ATOM     29  H   UNL     1       6.607  -1.730   7.325  0.00  0.00    -0.085 HD
ATOM     30  H   UNL     1       6.308  -3.346   7.204  0.00  0.00    -0.085 HD
BRANCH  28  31
ATOM     31  C   UNL     1       7.667  -2.865   8.648  0.00  0.00    -0.026 C 
BRANCH  31  32
ATOM     32  C   UNL     1       6.636  -2.757   9.742  0.00  0.00    +0.024 A 
ATOM     33  C   UNL     1       6.029  -3.901  10.225  0.00  0.00    +0.021 A 
ATOM     34  C   UNL     1       5.082  -3.790  11.232  0.00  0.00    +0.003 A 
ATOM     35  C   UNL     1       4.779  -2.527  11.716  0.00  0.00    +0.020 A 
ATOM     36  C   UNL     1       5.426  -1.428  11.184  0.00  0.00    +0.111 A 
ATOM     37  N   UNL     1       6.327  -1.572  10.230  0.00  0.00    -0.262 NA
ENDBRANCH  31  32
ENDBRANCH  28  31
ENDBRANCH  27  28
ENDBRANCH  24  27
ENDBRANCH  20  21
ENDBRANCH   1  20
TORSDOF 9
