REMARK  Name = ZINC54214280
REMARK  5 active torsions:
REMARK  status: ('A' for Active; 'I' for Inactive)
REMARK    1  A    between atoms: C_1  and  C_2
REMARK    2  A    between atoms: N_10  and  N_11
REMARK    3  A    between atoms: C_12  and  C_13
REMARK    4  A    between atoms: C_16  and  O_21
REMARK    5  A    between atoms: C_18  and  O_19
REMARK                            x       y       z     vdW  Elec       q    Type
REMARK                         _______ _______ _______ _____ _____    ______ ____
ROOT
ATOM      1  N   UNL     1      -3.613  -0.820   0.015  0.00  0.00    -0.189 NA
ATOM      2  C   UNL     1      -4.756  -0.205   0.024  0.00  0.00    +0.142 C 
ENDROOT
BRANCH   1  12
ATOM      3  C   UNL     1      -0.018   1.503   0.010  0.00  0.00    +0.071 C 
ATOM      4  C   UNL     1       0.002  -0.004   0.002  0.00  0.00    +0.100 A 
ATOM      5  C   UNL     1      -1.211  -0.734   0.004  0.00  0.00    +0.166 A 
ATOM      6  N   UNL     1      -1.155  -2.062  -0.004  0.00  0.00    -0.174 NA
ATOM      7  C   UNL     1       0.038  -2.662  -0.013  0.00  0.00    +0.364 A 
ATOM      8  O   UNL     1       0.104  -3.880  -0.019  0.00  0.00    -0.243 OA
ATOM      9  N   UNL     1       1.169  -1.933  -0.014  0.00  0.00    -0.226 N 
ATOM     10  H   UNL     1       2.026  -2.386  -0.021  0.00  0.00    +0.194 HD
ATOM     11  N   UNL     1       1.138  -0.647  -0.012  0.00  0.00    -0.172 NA
ATOM     12  N   UNL     1      -2.421  -0.084   0.013  0.00  0.00    -0.219 N 
ATOM     13  H   UNL     1      -2.450   0.886   0.019  0.00  0.00    +0.176 HD
ENDBRANCH   1  12
BRANCH   2  14
ATOM     14  C   UNL     1      -6.009  -0.980   0.026  0.00  0.00    +0.038 A 
ATOM     15  C   UNL     1      -7.242  -0.321   0.030  0.00  0.00    +0.032 A 
ATOM     16  C   UNL     1      -8.412  -1.050   0.031  0.00  0.00    +0.061 A 
ATOM     17  C   UNL     1      -8.371  -2.439   0.028  0.00  0.00    +0.148 A 
ATOM     18  C   UNL     1      -7.152  -3.103   0.025  0.00  0.00    +0.102 A 
ATOM     19  C   UNL     1      -5.970  -2.381   0.018  0.00  0.00    +0.143 A 
ATOM     20 BR   UNL     1      -7.105  -4.993   0.022  0.00  0.00    -0.043 Br
ATOM     21 BR   UNL     1     -10.078  -0.156   0.037  0.00  0.00    -0.046 Br
BRANCH  19  22
ATOM     22  O   UNL     1      -4.776  -3.030   0.008  0.00  0.00    -0.505 OA
ATOM     23  H   UNL     1      -4.426  -3.222   0.889  0.00  0.00    +0.292 HD
ENDBRANCH  19  22
BRANCH  17  24
ATOM     24  O   UNL     1      -9.528  -3.151   0.029  0.00  0.00    -0.504 OA
ATOM     25  H   UNL     1      -9.866  -3.355  -0.854  0.00  0.00    +0.292 HD
ENDBRANCH  17  24
ENDBRANCH   2  14
TORSDOF 4
