REMARK  Name = ZINC08600728
REMARK  5 active torsions:
REMARK  status: ('A' for Active; 'I' for Inactive)
REMARK    1  A    between atoms: C_1  and  C_2
REMARK    2  A    between atoms: C_2  and  C_4
REMARK    3  A    between atoms: C_7  and  N_10
REMARK    4  A    between atoms: N_10  and  S_11
REMARK    5  A    between atoms: S_11  and  C_14
REMARK                            x       y       z     vdW  Elec       q    Type
REMARK                         _______ _______ _______ _____ _____    ______ ____
ROOT
ATOM      1  C   UNL     1      -3.757  -5.388  -0.343  0.00  0.00    +0.109 A 
ATOM      2  C   UNL     1      -2.422  -5.312  -0.716  0.00  0.00    +0.031 A 
ATOM      3  C   UNL     1      -1.506  -6.228  -0.246  0.00  0.00    +0.028 A 
ATOM      4  C   UNL     1      -1.923  -7.241   0.613  0.00  0.00    +0.047 A 
ATOM      5  C   UNL     1      -3.274  -7.311   0.988  0.00  0.00    +0.005 A 
ATOM      6  C   UNL     1      -4.186  -6.371   0.505  0.00  0.00    +0.039 A 
ATOM      7  C   UNL     1      -3.396  -8.470   1.890  0.00  0.00    -0.019 A 
ATOM      8  C   UNL     1      -2.173  -8.996   2.007  0.00  0.00    +0.020 A 
ATOM      9  N   UNL     1      -1.281  -8.282   1.237  0.00  0.00    -0.358 N 
ATOM     10  H   UNL     1      -0.337  -8.486   1.149  0.00  0.00    +0.166 HD
ATOM     11  C   UNL     1      -1.761 -10.167   2.865  0.00  0.00    +0.053 C 
ATOM     12  C   UNL     1      -2.127 -11.485   2.188  0.00  0.00    +0.006 C 
ATOM     13  C   UNL     1      -3.450 -11.352   1.437  0.00  0.00    +0.000 C 
ATOM     14  C   UNL     1      -4.564 -11.386   2.468  0.00  0.00    +0.000 C 
ATOM     15  C   UNL     1      -4.555 -10.146   3.352  0.00  0.00    +0.005 C 
ATOM     16  C   UNL     1      -4.715  -8.900   2.486  0.00  0.00    +0.037 C 
ENDROOT
BRANCH   1  17
ATOM     17  S   UNL     1      -4.906  -4.203  -0.960  0.00  0.00    +0.072 S 
ATOM     18  O   UNL     1      -6.200  -4.762  -0.782  0.00  0.00    -0.150 OA
ATOM     19  O   UNL     1      -4.422  -3.792  -2.231  0.00  0.00    -0.150 OA
BRANCH  17  20
ATOM     20  N   UNL     1      -4.822  -2.878   0.029  0.00  0.00    -0.216 N 
ATOM     21  H   UNL     1      -4.549  -2.020  -0.331  0.00  0.00    +0.174 HD
BRANCH  20  25
ATOM     22  C   UNL     1      -5.784  -3.227   4.053  0.00  0.00    +0.017 A 
ATOM     23  C   UNL     1      -4.625  -2.542   3.664  0.00  0.00    +0.013 A 
ATOM     24  C   UNL     1      -4.313  -2.430   2.340  0.00  0.00    +0.025 A 
ATOM     25  C   UNL     1      -5.144  -2.995   1.375  0.00  0.00    +0.048 A 
ATOM     26  C   UNL     1      -6.297  -3.677   1.757  0.00  0.00    +0.025 A 
ATOM     27  C   UNL     1      -6.615  -3.798   3.080  0.00  0.00    +0.013 A 
BRANCH  22  29
ATOM     28  C   UNL     1      -5.229  -2.735   6.520  0.00  0.00    +0.091 C 
ATOM     29  C   UNL     1      -6.124  -3.350   5.475  0.00  0.00    +0.160 C 
ATOM     30  O   UNL     1      -7.125  -3.948   5.810  0.00  0.00    -0.292 OA
ENDBRANCH  22  29
ENDBRANCH  20  25
ENDBRANCH  17  20
ENDBRANCH   1  17
TORSDOF 4
