REMARK  Name = ZINC65218771
REMARK  4 active torsions:
REMARK  status: ('A' for Active; 'I' for Inactive)
REMARK    1  A    between atoms: C_4  and  C_7
REMARK    2  A    between atoms: C_9  and  C_12
REMARK    3  A    between atoms: C_13  and  N_17
REMARK    4  A    between atoms: C_18  and  C_20
REMARK                            x       y       z     vdW  Elec       q    Type
REMARK                         _______ _______ _______ _____ _____    ______ ____
ROOT
ATOM      1  C   UNL     1       5.693  -3.681  -0.021  0.00  0.00    +0.098 A 
ATOM      2  C   UNL     1       7.026  -4.077  -0.088  0.00  0.00    +0.053 A 
ATOM      3  C   UNL     1       7.238  -5.441  -0.160  0.00  0.00    +0.031 A 
ATOM      4  C   UNL     1       6.171  -6.272  -0.159  0.00  0.00    +0.048 A 
ATOM      5  S   UNL     1       4.844  -5.248  -0.055  0.00  0.00    -0.090 S 
ENDROOT
BRANCH   1   8
ATOM      6  C   UNL     1       3.704  -0.695   0.195  0.00  0.00    +0.202 A 
ATOM      7  N   UNL     1       3.853  -2.026   0.129  0.00  0.00    -0.187 NA
ATOM      8  C   UNL     1       5.134  -2.331   0.062  0.00  0.00    +0.267 A 
ATOM      9  O   UNL     1       5.839  -1.183   0.084  0.00  0.00    -0.332 OA
ATOM     10  N   UNL     1       4.889  -0.132   0.165  0.00  0.00    -0.056 NA
BRANCH   6  14
ATOM     11  C   UNL     1      -0.006   1.368   0.440  0.00  0.00    +0.000 A 
ATOM     12  C   UNL     1       1.179   2.081   0.418  0.00  0.00    +0.001 A 
ATOM     13  C   UNL     1       2.386   1.417   0.338  0.00  0.00    +0.012 A 
ATOM     14  C   UNL     1       2.409   0.025   0.281  0.00  0.00    +0.022 A 
ATOM     15  C   UNL     1       1.213  -0.689   0.304  0.00  0.00    +0.012 A 
ATOM     16  C   UNL     1       0.011  -0.014   0.383  0.00  0.00    +0.001 A 
ENDBRANCH   6  14
ENDBRANCH   1   8
BRANCH   2  17
ATOM     17  N   UNL     1       8.078  -3.158  -0.085  0.00  0.00    -0.278 N 
ATOM     18  C   UNL     1       9.351  -3.591   0.008  0.00  0.00    +0.284 C 
ATOM     19  O   UNL     1       9.590  -4.784  -0.006  0.00  0.00    -0.266 OA
ATOM     20  H   UNL     1       7.892  -2.208  -0.149  0.00  0.00    +0.155 HD
BRANCH  18  21
ATOM     21  C   UNL     1      10.447  -2.625   0.125  0.00  0.00    +0.191 A 
ATOM     22  C   UNL     1      11.776  -2.927   0.220  0.00  0.00    +0.056 A 
ATOM     23  C   UNL     1      12.461  -1.706   0.312  0.00  0.00    +0.058 A 
ATOM     24  C   UNL     1      11.532  -0.724   0.270  0.00  0.00    +0.171 A 
ATOM     25  O   UNL     1      10.320  -1.282   0.152  0.00  0.00    -0.444 OA
ATOM     26 BR   UNL     1      11.887   1.132   0.357  0.00  0.00    -0.008 Br
ENDBRANCH  18  21
ENDBRANCH   2  17
TORSDOF 4
