REMARK  Name = ZINC36551853
REMARK  16 active torsions:
REMARK  status: ('A' for Active; 'I' for Inactive)
REMARK    1  A    between atoms: C_1  and  C_2
REMARK    2  A    between atoms: C_2  and  C_3
REMARK    3  A    between atoms: C_2  and  C_4
REMARK    4  A    between atoms: C_2  and  C_5
REMARK    5  A    between atoms: C_5  and  C_6
REMARK    6  A    between atoms: C_6  and  C_7
REMARK    7  A    between atoms: C_6  and  C_8
REMARK    8  A    between atoms: C_6  and  N_9
REMARK    9  A    between atoms: C_10  and  C_12
REMARK   10  A    between atoms: C_12  and  C_14
REMARK   11  A    between atoms: C_12  and  N_23
REMARK   12  A    between atoms: C_15  and  O_22
REMARK   13  A    between atoms: C_17  and  O_21
REMARK   14  A    between atoms: C_19  and  O_20
REMARK   15  A    between atoms: N_23  and  C_24
REMARK   16  A    between atoms: C_31  and  C_33
REMARK                            x       y       z     vdW  Elec       q    Type
REMARK                         _______ _______ _______ _____ _____    ______ ____
ROOT
ATOM      1  C   UNL     1       5.614  -0.604  -4.260  0.00  0.00    +0.204 C 
ENDROOT
BRANCH   1   2
ATOM      2  C   UNL     1       6.046  -2.002  -3.901  0.00  0.00    +0.065 A 
ATOM      3  C   UNL     1       7.117  -2.199  -3.042  0.00  0.00    +0.129 A 
ATOM      4  C   UNL     1       7.514  -3.486  -2.712  0.00  0.00    +0.091 A 
ATOM      5  C   UNL     1       6.840  -4.576  -3.240  0.00  0.00    +0.124 A 
ATOM      6  C   UNL     1       5.768  -4.380  -4.098  0.00  0.00    +0.091 A 
ATOM      7  C   UNL     1       5.368  -3.093  -4.425  0.00  0.00    +0.129 A 
BRANCH   7   8
ATOM      8  O   UNL     1       4.315  -2.901  -5.261  0.00  0.00    -0.506 OA
ATOM      9  H   UNL     1       4.559  -2.853  -6.196  0.00  0.00    +0.292 HD
ENDBRANCH   7   8
BRANCH   5  10
ATOM     10  O   UNL     1       7.229  -5.838  -2.917  0.00  0.00    -0.507 OA
ATOM     11  H   UNL     1       6.791  -6.196  -2.133  0.00  0.00    +0.292 HD
ENDBRANCH   5  10
BRANCH   3  12
ATOM     12  O   UNL     1       7.778  -1.130  -2.525  0.00  0.00    -0.506 OA
ATOM     13  H   UNL     1       7.467  -0.861  -1.649  0.00  0.00    +0.292 HD
ENDBRANCH   3  12
ENDBRANCH   1   2
BRANCH   1  15
ATOM     14  N   UNL     1       4.266  -0.023  -2.269  0.00  0.00    -0.308 N 
ATOM     15  C   UNL     1       5.379   0.188  -2.999  0.00  0.00    +0.239 C 
ATOM     16  O   UNL     1       6.190   1.016  -2.642  0.00  0.00    -0.273 OA
ATOM     17  H   UNL     1       3.616  -0.685  -2.555  0.00  0.00    +0.149 HD
BRANCH  14  18
ATOM     18  C   UNL     1       4.036   0.747  -1.044  0.00  0.00    +0.030 C 
ATOM     19  C   UNL     1       4.305   2.228  -1.315  0.00  0.00    +0.031 C 
ATOM     20  C   UNL     1       4.979   0.250   0.054  0.00  0.00    +0.031 C 
BRANCH  18  21
ATOM     21  C   UNL     1       2.586   0.566  -0.592  0.00  0.00    +0.031 C 
BRANCH  21  23
ATOM     22  C   UNL     1       1.669  -0.542  -2.635  0.00  0.00    +0.010 C 
ATOM     23  C   UNL     1       1.653   0.735  -1.792  0.00  0.00    -0.036 C 
ATOM     24  C   UNL     1       2.126   1.914  -2.644  0.00  0.00    +0.010 C 
ATOM     25  C   UNL     1       0.229   1.002  -1.298  0.00  0.00    +0.010 C 
ENDBRANCH  21  23
ENDBRANCH  18  21
ENDBRANCH  14  18
ENDBRANCH   1  15
BRANCH   1  26
ATOM     26  N   UNL     1       6.663   0.042  -5.053  0.00  0.00    -0.254 N 
ATOM     27  C   UNL     1       7.599  -0.706  -5.669  0.00  0.00    +0.235 C 
ATOM     28  O   UNL     1       7.440  -1.903  -5.784  0.00  0.00    -0.274 OA
BRANCH  26  29
ATOM     29  C   UNL     1       6.692   1.436  -5.171  0.00  0.00    +0.039 A 
ATOM     30  C   UNL     1       5.602   2.192  -4.760  0.00  0.00    +0.023 A 
ATOM     31  C   UNL     1       5.634   3.568  -4.877  0.00  0.00    +0.003 A 
ATOM     32  C   UNL     1       6.748   4.193  -5.405  0.00  0.00    +0.020 A 
ATOM     33  C   UNL     1       7.836   3.443  -5.817  0.00  0.00    +0.043 A 
ATOM     34  C   UNL     1       7.813   2.066  -5.695  0.00  0.00    +0.043 A 
ATOM     35 CL   UNL     1       9.233   4.232  -6.480  0.00  0.00    -0.083 Cl
ENDBRANCH  26  29
BRANCH  27  36
ATOM     36  C   UNL     1       8.844  -0.056  -6.215  0.00  0.00    +0.204 C 
ATOM     37 CL   UNL     1       9.986  -1.329  -6.787  0.00  0.00    -0.116 Cl
ENDBRANCH  27  36
ENDBRANCH   1  26
TORSDOF 11
