REMARK  Name = ZINC04411622
REMARK  8 active torsions:
REMARK  status: ('A' for Active; 'I' for Inactive)
REMARK    1  A    between atoms: C_4  and  C_7
REMARK    2  A    between atoms: C_10  and  S_19
REMARK    3  A    between atoms: N_11  and  C_12
REMARK    4  A    between atoms: C_12  and  C_13
REMARK    5  A    between atoms: S_19  and  C_20
REMARK    6  A    between atoms: C_20  and  C_21
REMARK    7  A    between atoms: N_23  and  C_24
REMARK    8  A    between atoms: C_25  and  C_32
REMARK                            x       y       z     vdW  Elec       q    Type
REMARK                         _______ _______ _______ _____ _____    ______ ____
ROOT
ATOM      1  S   UNL     1       6.098  -3.694   0.354  0.00  0.00    -0.077 S 
ENDROOT
BRANCH   1   5
ATOM      2  C   UNL     1       3.661  -0.662  -0.007  0.00  0.00    +0.165 A 
ATOM      3  N   UNL     1       4.810  -0.155  -0.391  0.00  0.00    -0.128 NA
ATOM      4  N   UNL     1       5.728  -1.052  -0.325  0.00  0.00    -0.122 NA
ATOM      5  C   UNL     1       5.222  -2.186   0.105  0.00  0.00    +0.192 A 
ATOM      6  N   UNL     1       3.891  -1.976   0.327  0.00  0.00    -0.300 N 
BRANCH   2  10
ATOM      7  C   UNL     1      -0.059   1.379   0.183  0.00  0.00    +0.000 A 
ATOM      8  C   UNL     1       1.119   2.101   0.112  0.00  0.00    +0.001 A 
ATOM      9  C   UNL     1       2.331   1.444   0.050  0.00  0.00    +0.011 A 
ATOM     10  C   UNL     1       2.366   0.049   0.059  0.00  0.00    +0.019 A 
ATOM     11  C   UNL     1       1.174  -0.673   0.132  0.00  0.00    +0.011 A 
ATOM     12  C   UNL     1      -0.031  -0.004   0.192  0.00  0.00    +0.001 A 
ENDBRANCH   2  10
BRANCH   6  13
ATOM     13  C   UNL     1       2.911  -2.949   0.817  0.00  0.00    +0.157 C 
BRANCH  13  14
ATOM     14  C   UNL     1       2.401  -3.792  -0.353  0.00  0.00    +0.138 C 
ATOM     15  C   UNL     1       1.318  -4.788   0.133  0.00  0.00    +0.035 C 
ATOM     16  C   UNL     1       0.527  -5.029  -1.182  0.00  0.00    +0.031 C 
ATOM     17  C   UNL     1       0.615  -3.652  -1.874  0.00  0.00    +0.160 C 
ATOM     18  O   UNL     1       1.740  -2.958  -1.318  0.00  0.00    -0.375 OA
ENDBRANCH  13  14
ENDBRANCH   6  13
ENDBRANCH   1   5
BRANCH   1  19
ATOM     19  C   UNL     1       7.804  -3.293  -0.115  0.00  0.00    +0.173 C 
BRANCH  19  20
ATOM     20  C   UNL     1       8.671  -4.514   0.054  0.00  0.00    +0.228 C 
ATOM     21  O   UNL     1       8.187  -5.552   0.452  0.00  0.00    -0.275 OA
ATOM     22  N   UNL     1       9.986  -4.452  -0.237  0.00  0.00    -0.279 N 
ATOM     23  H   UNL     1      10.374  -3.622  -0.555  0.00  0.00    +0.155 HD
BRANCH  22  24
ATOM     24  C   UNL     1      10.784  -5.575  -0.082  0.00  0.00    +0.084 A 
ATOM     25  C   UNL     1      12.140  -5.695  -0.323  0.00  0.00    +0.068 A 
ATOM     26  C   UNL     1      12.752  -7.000  -0.078  0.00  0.00    -0.023 A 
ATOM     27  C   UNL     1      11.891  -7.936   0.361  0.00  0.00    -0.004 A 
ATOM     28  S   UNL     1      10.328  -7.099   0.450  0.00  0.00    -0.077 S 
ATOM     29  C   UNL     1      12.570  -9.258   0.593  0.00  0.00    +0.043 C 
ATOM     30  C   UNL     1      13.909  -9.148  -0.170  0.00  0.00    +0.010 C 
ATOM     31  C   UNL     1      14.142  -7.624  -0.179  0.00  0.00    +0.037 C 
BRANCH  25  32
ATOM     32  C   UNL     1      12.932  -4.559  -0.806  0.00  0.00    +0.244 C 
ATOM     33  O   UNL     1      13.463  -3.806  -0.011  0.00  0.00    -0.270 OA
ATOM     34  N   UNL     1      13.072  -4.350  -2.130  0.00  0.00    -0.325 N 
ATOM     35  H   UNL     1      12.648  -4.950  -2.764  0.00  0.00    +0.145 HD
ATOM     36  H   UNL     1      13.596  -3.598  -2.450  0.00  0.00    +0.145 HD
ENDBRANCH  25  32
ENDBRANCH  22  24
ENDBRANCH  19  20
ENDBRANCH   1  19
TORSDOF 8
