REMARK  Name = ZINC36032323
REMARK  15 active torsions:
REMARK  status: ('A' for Active; 'I' for Inactive)
REMARK    1  A    between atoms: C_1  and  N_2
REMARK    2  A    between atoms: N_2  and  C_3
REMARK    3  A    between atoms: N_2  and  C_4
REMARK    4  A    between atoms: C_4  and  C_5
REMARK    5  A    between atoms: C_5  and  N_6
REMARK    6  A    between atoms: N_6  and  C_7
REMARK    7  A    between atoms: N_6  and  C_31
REMARK    8  A    between atoms: C_7  and  C_8
REMARK    9  A    between atoms: C_11  and  S_20
REMARK   10  A    between atoms: N_12  and  C_13
REMARK   11  A    between atoms: C_13  and  C_14
REMARK   12  A    between atoms: S_20  and  C_23
REMARK   13  A    between atoms: C_23  and  C_24
REMARK   14  A    between atoms: C_31  and  N_33
REMARK   15  A    between atoms: N_33  and  C_34
REMARK                            x       y       z     vdW  Elec       q    Type
REMARK                         _______ _______ _______ _____ _____    ______ ____
ROOT
ATOM      1  C   UNL     1      -3.043  -4.164  -1.983  0.00  0.00    +0.057 A 
ATOM      2  C   UNL     1      -3.720  -5.325  -2.065  0.00  0.00    +0.137 A 
ATOM      3  N   UNL     1      -3.003  -6.171  -2.819  0.00  0.00    -0.220 NA
ATOM      4  C   UNL     1      -1.907  -5.579  -3.208  0.00  0.00    +0.252 A 
ATOM      5  N   UNL     1      -1.895  -4.322  -2.713  0.00  0.00    -0.309 N 
ENDROOT
BRANCH   4   6
ATOM      6  S   UNL     1      -0.654  -6.297  -4.217  0.00  0.00    +0.034 S 
ATOM      7  O   UNL     1       0.533  -5.594  -3.876  0.00  0.00    -0.166 OA
ATOM      8  O   UNL     1      -0.760  -7.695  -3.986  0.00  0.00    -0.166 OA
BRANCH   6   9
ATOM      9  C   UNL     1      -1.145  -5.906  -5.919  0.00  0.00    +0.210 C 
BRANCH   9  10
ATOM     10  C   UNL     1      -0.133  -6.478  -6.878  0.00  0.00    -0.026 A 
ATOM     11  C   UNL     1       0.961  -5.724  -7.259  0.00  0.00    +0.008 A 
ATOM     12  C   UNL     1       1.889  -6.248  -8.138  0.00  0.00    +0.038 A 
ATOM     13  C   UNL     1       1.724  -7.529  -8.636  0.00  0.00    +0.123 A 
ATOM     14  C   UNL     1       0.629  -8.284  -8.253  0.00  0.00    +0.038 A 
ATOM     15  C   UNL     1      -0.296  -7.760  -7.370  0.00  0.00    +0.008 A 
ATOM     16  F   UNL     1       2.632  -8.042  -9.496  0.00  0.00    -0.205 F 
ENDBRANCH   9  10
ENDBRANCH   6   9
ENDBRANCH   4   6
BRANCH   1  17
ATOM     17  C   UNL     1      -3.469  -2.926  -1.237  0.00  0.00    +0.161 C 
BRANCH  17  18
ATOM     18  N   UNL     1      -4.928  -2.908  -1.114  0.00  0.00    -0.309 N 
BRANCH  18  19
ATOM     19  C   UNL     1      -5.683  -2.423  -2.119  0.00  0.00    +0.133 C 
ATOM     20  S   UNL     1      -4.936  -1.828  -3.540  0.00  0.00    -0.019 S 
BRANCH  19  21
ATOM     21  N   UNL     1      -7.026  -2.406  -2.006  0.00  0.00    -0.324 N 
ATOM     22  H   UNL     1      -7.449  -2.743  -1.201  0.00  0.00    +0.148 HD
BRANCH  21  23
ATOM     23  C   UNL     1      -7.847  -1.879  -3.099  0.00  0.00    +0.072 C 
ATOM     24  C   UNL     1      -9.013  -0.960  -2.728  0.00  0.00    +0.024 C 
ATOM     25  C   UNL     1      -9.286  -2.386  -3.211  0.00  0.00    +0.024 C 
ENDBRANCH  21  23
ENDBRANCH  19  21
ENDBRANCH  18  19
BRANCH  18  26
ATOM     26  C   UNL     1      -5.567  -3.417   0.102  0.00  0.00    +0.088 C 
BRANCH  26  27
ATOM     27  C   UNL     1      -5.851  -2.254   1.055  0.00  0.00    -0.060 C 
BRANCH  27  29
ATOM     28  C   UNL     1      -6.655  -1.667   3.237  0.00  0.00    -0.097 C 
ATOM     29  N   UNL     1      -6.492  -2.764   2.274  0.00  0.00    +0.377 N 
ATOM     30  C   UNL     1      -7.809  -3.321   1.938  0.00  0.00    -0.097 C 
ATOM     31  H   UNL     1      -5.915  -3.486   2.680  0.00  0.00    -0.083 HD
ENDBRANCH  27  29
ENDBRANCH  26  27
ENDBRANCH  18  26
ENDBRANCH  17  18
ENDBRANCH   1  17
BRANCH   5  32
ATOM     32  C   UNL     1      -0.849  -3.318  -2.916  0.00  0.00    +0.156 C 
BRANCH  32  33
ATOM     33  C   UNL     1       0.109  -3.330  -1.723  0.00  0.00    +0.138 C 
ATOM     34  C   UNL     1       1.159  -2.210  -1.883  0.00  0.00    +0.035 C 
ATOM     35  C   UNL     1       2.453  -2.895  -1.365  0.00  0.00    +0.031 C 
ATOM     36  C   UNL     1       2.221  -4.354  -1.833  0.00  0.00    +0.160 C 
ATOM     37  O   UNL     1       0.809  -4.579  -1.675  0.00  0.00    -0.375 OA
ENDBRANCH  32  33
ENDBRANCH   5  32
TORSDOF 13
