REMARK  Name = ZINC32919271
REMARK  9 active torsions:
REMARK  status: ('A' for Active; 'I' for Inactive)
REMARK    1  A    between atoms: C_3  and  N_9
REMARK    2  A    between atoms: N_9  and  C_10
REMARK    3  A    between atoms: C_11  and  C_18
REMARK    4  A    between atoms: N_20  and  O_21
REMARK    5  A    between atoms: O_21  and  C_22
REMARK    6  A    between atoms: C_22  and  C_23
REMARK    7  A    between atoms: C_23  and  C_25
REMARK    8  A    between atoms: C_23  and  O_27
REMARK    9  A    between atoms: C_25  and  O_26
REMARK                            x       y       z     vdW  Elec       q    Type
REMARK                         _______ _______ _______ _____ _____    ______ ____
ROOT
ATOM      1  C   UNL     1       2.328   4.305   0.087  0.00  0.00    +0.082 A 
ATOM      2  C   UNL     1       1.446   4.380   1.178  0.00  0.00    +0.063 A 
ATOM      3  C   UNL     1       0.239   5.072   1.044  0.00  0.00    +0.018 A 
ATOM      4  C   UNL     1      -0.082   5.670  -0.153  0.00  0.00    +0.042 A 
ATOM      5  C   UNL     1       0.788   5.592  -1.233  0.00  0.00    +0.160 A 
ATOM      6  C   UNL     1       1.987   4.910  -1.116  0.00  0.00    +0.180 A 
ATOM      7  F   UNL     1       2.828   4.837  -2.171  0.00  0.00    -0.201 F 
ATOM      8  F   UNL     1       0.462   6.183  -2.403  0.00  0.00    -0.202 F 
ENDROOT
BRANCH   2   9
ATOM      9  C   UNL     1       1.794   3.738   2.457  0.00  0.00    +0.269 C 
ATOM     10  O   UNL     1       2.791   3.046   2.539  0.00  0.00    -0.268 OA
ATOM     11  N   UNL     1       1.008   3.918   3.537  0.00  0.00    -0.190 N 
ATOM     12  H   UNL     1       0.107   4.544   3.463  0.00  0.00    +0.183 HD
BRANCH  11  13
ATOM     13  O   UNL     1       1.343   3.302   4.767  0.00  0.00    -0.277 OA
BRANCH  13  14
ATOM     14  C   UNL     1       0.423   3.578   5.825  0.00  0.00    +0.223 C 
BRANCH  14  15
ATOM     15  C   UNL     1       0.881   2.865   7.099  0.00  0.00    +0.168 C 
BRANCH  15  16
ATOM     16  O   UNL     1       2.128   3.413   7.529  0.00  0.00    -0.387 OA
ATOM     17  H   UNL     1       2.617   3.024   8.435  0.00  0.00    +0.210 HD
ENDBRANCH  15  16
BRANCH  15  18
ATOM     18  C   UNL     1      -0.167   3.058   8.197  0.00  0.00    +0.189 C 
BRANCH  18  19
ATOM     19  O   UNL     1       0.203   2.296   9.348  0.00  0.00    -0.392 OA
ATOM     20  H   UNL     1      -0.434   2.310  10.245  0.00  0.00    +0.210 HD
ENDBRANCH  18  19
ENDBRANCH  15  18
ENDBRANCH  14  15
ENDBRANCH  13  14
ENDBRANCH  11  13
ENDBRANCH   2   9
BRANCH   1  21
ATOM     21  N   UNL     1       3.534   3.624   0.210  0.00  0.00    -0.309 N 
ATOM     22  H   UNL     1       3.605   2.570  -0.096  0.00  0.00    +0.152 HD
BRANCH  21  25
ATOM     23  C   UNL     1       5.654   6.210   1.740  0.00  0.00    +0.016 A 
ATOM     24  C   UNL     1       4.542   5.565   1.233  0.00  0.00    +0.027 A 
ATOM     25  C   UNL     1       4.659   4.279   0.723  0.00  0.00    +0.067 A 
ATOM     26  C   UNL     1       5.896   3.642   0.729  0.00  0.00    +0.145 A 
ATOM     27  C   UNL     1       7.005   4.296   1.231  0.00  0.00    +0.054 A 
ATOM     28  C   UNL     1       6.883   5.577   1.739  0.00  0.00    +0.016 A 
ATOM     29  I   UNL     1       8.566   6.561   2.508  0.00  0.00    -0.044 I 
ATOM     30  F   UNL     1       6.013   2.389   0.239  0.00  0.00    -0.204 F 
ENDBRANCH  21  25
ENDBRANCH   1  21
TORSDOF 9
