REMARK  Name = ZINC39672620
REMARK  6 active torsions:
REMARK  status: ('A' for Active; 'I' for Inactive)
REMARK    1  A    between atoms: C_1  and  C_2
REMARK    2  A    between atoms: C_5  and  C_7
REMARK    3  A    between atoms: C_7  and  N_8
REMARK    4  A    between atoms: C_9  and  C_11
REMARK    5  A    between atoms: C_22  and  C_24
REMARK    6  A    between atoms: C_27  and  C_29
REMARK                            x       y       z     vdW  Elec       q    Type
REMARK                         _______ _______ _______ _____ _____    ______ ____
ROOT
ATOM      1  C   UNL     1      -2.964  -4.452   4.101  0.00  0.00    +0.100 C 
ATOM      2  C   UNL     1      -3.667  -3.208   4.688  0.00  0.00    +0.121 C 
ATOM      3  N   UNL     1      -4.509  -3.737   5.786  0.00  0.00    -0.294 N 
ATOM      4  C   UNL     1      -3.672  -4.783   6.421  0.00  0.00    +0.115 C 
ATOM      5  C   UNL     1      -2.969  -5.483   5.242  0.00  0.00    -0.004 C 
ATOM      6  C   UNL     1      -1.539  -5.853   5.626  0.00  0.00    -0.010 C 
ATOM      7  C   UNL     1      -1.570  -6.923   6.721  0.00  0.00    -0.082 C 
ATOM      8  N   UNL     1      -2.289  -8.106   6.232  0.00  0.00    +0.379 N 
ATOM      9  C   UNL     1      -3.688  -7.762   5.953  0.00  0.00    -0.082 C 
ATOM     10  C   UNL     1      -3.747  -6.728   4.825  0.00  0.00    -0.010 C 
ATOM     11  C   UNL     1      -5.755  -3.354   6.130  0.00  0.00    +0.282 C 
ATOM     12  O   UNL     1      -6.320  -3.890   7.066  0.00  0.00    -0.267 OA
ATOM     13  H   UNL     1      -1.851  -8.438   5.386  0.00  0.00    -0.086 HD
ATOM     14  H   UNL     1      -2.255  -8.832   6.932  0.00  0.00    -0.086 HD
ENDROOT
BRANCH  11  15
ATOM     15  C   UNL     1      -6.429  -2.293   5.378  0.00  0.00    +0.190 A 
ATOM     16  C   UNL     1      -7.693  -1.804   5.625  0.00  0.00    +0.055 A 
ATOM     17  C   UNL     1      -7.933  -0.808   4.673  0.00  0.00    +0.050 A 
ATOM     18  C   UNL     1      -6.819  -0.725   3.888  0.00  0.00    +0.136 A 
ATOM     19  O   UNL     1      -5.918  -1.621   4.325  0.00  0.00    -0.450 OA
BRANCH  18  20
ATOM     20  C   UNL     1      -6.634   0.198   2.751  0.00  0.00    +0.017 A 
ATOM     21  C   UNL     1      -7.648   1.093   2.402  0.00  0.00    +0.014 A 
ATOM     22  C   UNL     1      -7.469   1.954   1.340  0.00  0.00    +0.039 A 
ATOM     23  C   UNL     1      -6.286   1.932   0.618  0.00  0.00    +0.123 A 
ATOM     24  C   UNL     1      -5.276   1.045   0.959  0.00  0.00    +0.039 A 
ATOM     25  C   UNL     1      -5.442   0.184   2.023  0.00  0.00    +0.014 A 
ATOM     26  F   UNL     1      -6.116   2.777  -0.422  0.00  0.00    -0.205 F 
ENDBRANCH  18  20
ENDBRANCH  11  15
BRANCH   1  28
ATOM     27  N   UNL     1      -0.953  -4.792   2.701  0.00  0.00    -0.309 N 
ATOM     28  C   UNL     1      -1.549  -4.116   3.703  0.00  0.00    +0.219 C 
ATOM     29  O   UNL     1      -0.948  -3.239   4.285  0.00  0.00    -0.275 OA
ATOM     30  H   UNL     1      -1.434  -5.494   2.235  0.00  0.00    +0.149 HD
BRANCH  27  31
ATOM     31  C   UNL     1       0.422  -4.465   2.314  0.00  0.00    +0.167 C 
BRANCH  31  36
ATOM     32  C   UNL     1       1.016  -5.801  -2.472  0.00  0.00    +0.066 C 
ATOM     33  C   UNL     1       1.154  -6.035  -0.990  0.00  0.00    +0.046 A 
ATOM     34  C   UNL     1       1.724  -7.166  -0.500  0.00  0.00    +0.070 A 
ATOM     35  S   UNL     1       1.599  -6.863   1.255  0.00  0.00    -0.079 S 
ATOM     36  C   UNL     1       0.849  -5.358   1.178  0.00  0.00    +0.096 A 
ATOM     37  N   UNL     1       0.732  -5.149  -0.110  0.00  0.00    -0.248 NA
ENDBRANCH  31  36
ENDBRANCH  27  31
ENDBRANCH   1  28
TORSDOF 5
