REMARK  Name = ZINC57744111
REMARK  8 active torsions:
REMARK  status: ('A' for Active; 'I' for Inactive)
REMARK    1  A    between atoms: C_1  and  C_2
REMARK    2  A    between atoms: C_2  and  C_4
REMARK    3  A    between atoms: C_2  and  N_14
REMARK    4  A    between atoms: C_15  and  C_17
REMARK    5  A    between atoms: C_17  and  C_18
REMARK    6  A    between atoms: C_18  and  S_19
REMARK    7  A    between atoms: S_19  and  C_20
REMARK    8  A    between atoms: C_20  and  C_21
REMARK                            x       y       z     vdW  Elec       q    Type
REMARK                         _______ _______ _______ _____ _____    ______ ____
ROOT
ATOM      1  C   UNL     1      -0.191  -1.204   4.756  0.00  0.00    +0.079 C 
ENDROOT
BRANCH   1   2
ATOM      2  C   UNL     1       0.780  -1.133   3.576  0.00  0.00    +0.106 C 
BRANCH   2   4
ATOM      3  N   UNL     1       0.711  -0.489   1.189  0.00  0.00    -0.306 N 
ATOM      4  C   UNL     1       0.051  -0.633   2.355  0.00  0.00    +0.214 C 
ATOM      5  O   UNL     1      -1.129  -0.361   2.423  0.00  0.00    -0.276 OA
ATOM      6  H   UNL     1       1.654  -0.707   1.135  0.00  0.00    +0.149 HD
BRANCH   3   8
ATOM      7  C   UNL     1      -0.019   1.526   0.010  0.00  0.00    +0.036 C 
ATOM      8  C   UNL     1       0.002  -0.004   0.002  0.00  0.00    +0.136 C 
BRANCH   8   9
ATOM      9  C   UNL     1       0.707  -0.490  -1.238  0.00  0.00    +0.128 A 
ATOM     10  N   UNL     1       0.121  -0.654  -2.454  0.00  0.00    -0.340 N 
ATOM     11  H   UNL     1      -0.808  -0.482  -2.672  0.00  0.00    +0.167 HD
ATOM     12  C   UNL     1       1.094  -1.111  -3.321  0.00  0.00    +0.066 A 
ATOM     13  C   UNL     1       1.107  -1.455  -4.666  0.00  0.00    +0.028 A 
ATOM     14  C   UNL     1       2.278  -1.889  -5.249  0.00  0.00    +0.002 A 
ATOM     15  C   UNL     1       3.443  -1.984  -4.500  0.00  0.00    +0.002 A 
ATOM     16  C   UNL     1       3.449  -1.651  -3.175  0.00  0.00    +0.030 A 
ATOM     17  C   UNL     1       2.273  -1.208  -2.563  0.00  0.00    +0.089 A 
ATOM     18  N   UNL     1       1.967  -0.808  -1.302  0.00  0.00    -0.231 NA
ENDBRANCH   8   9
ENDBRANCH   3   8
ENDBRANCH   2   4
ENDBRANCH   1   2
BRANCH   1  19
ATOM     19  S   UNL     1       0.686  -1.805   6.226  0.00  0.00    -0.153 S 
BRANCH  19  20
ATOM     20  C   UNL     1      -0.587  -1.831   7.518  0.00  0.00    +0.143 C 
BRANCH  20  21
ATOM     21  C   UNL     1       0.017  -2.318   8.809  0.00  0.00    +0.121 A 
ATOM     22  N   UNL     1      -0.765  -2.422   9.914  0.00  0.00    -0.310 N 
ATOM     23  H   UNL     1      -1.703  -2.181   9.857  0.00  0.00    +0.170 HD
ATOM     24  C   UNL     1      -0.267  -2.853  11.088  0.00  0.00    +0.260 A 
ATOM     25  O   UNL     1      -0.982  -2.941  12.070  0.00  0.00    -0.267 OA
ATOM     26  C   UNL     1       1.121  -3.207  11.162  0.00  0.00    +0.075 A 
ATOM     27  C   UNL     1       1.873  -3.693  12.318  0.00  0.00    -0.023 A 
ATOM     28  C   UNL     1       3.183  -3.958  12.128  0.00  0.00    -0.004 A 
ATOM     29  S   UNL     1       3.485  -3.582  10.423  0.00  0.00    -0.073 S 
ATOM     30  C   UNL     1       1.848  -3.067   9.970  0.00  0.00    +0.116 A 
ATOM     31  N   UNL     1       1.283  -2.638   8.845  0.00  0.00    -0.226 NA
ATOM     32  C   UNL     1       4.163  -4.461  13.143  0.00  0.00    +0.043 C 
ATOM     33  C   UNL     1       3.550  -4.281  14.540  0.00  0.00    +0.005 C 
ATOM     34  C   UNL     1       2.117  -4.819  14.519  0.00  0.00    +0.005 C 
ATOM     35  C   UNL     1       1.227  -3.897  13.686  0.00  0.00    +0.037 C 
ENDBRANCH  20  21
ENDBRANCH  19  20
ENDBRANCH   1  19
TORSDOF 7
