REMARK  Name = ZINC40316827
REMARK  16 active torsions:
REMARK  status: ('A' for Active; 'I' for Inactive)
REMARK    1  A    between atoms: C_1  and  O_2
REMARK    2  A    between atoms: O_2  and  C_3
REMARK    3  A    between atoms: C_5  and  C_13
REMARK    4  A    between atoms: C_7  and  O_11
REMARK    5  A    between atoms: C_8  and  O_9
REMARK    6  A    between atoms: O_9  and  C_10
REMARK    7  A    between atoms: O_11  and  C_12
REMARK    8  A    between atoms: C_13  and  N_14
REMARK    9  A    between atoms: N_14  and  C_15
REMARK   10  A    between atoms: N_14  and  C_21
REMARK   11  A    between atoms: C_15  and  C_16
REMARK   12  A    between atoms: C_21  and  C_22
REMARK   13  A    between atoms: C_22  and  C_24
REMARK   14  A    between atoms: C_22  and  O_33
REMARK   15  A    between atoms: C_24  and  O_25
REMARK   16  A    between atoms: O_25  and  C_26
REMARK                            x       y       z     vdW  Elec       q    Type
REMARK                         _______ _______ _______ _____ _____    ______ ____
ROOT
ATOM      1  N   UNL     1       3.977   0.232  -4.120  0.00  0.00    +0.389 N 
ATOM      2  H   UNL     1       4.618  -0.546  -4.169  0.00  0.00    -0.081 HD
ENDROOT
BRANCH   1   3
ATOM      3  C   UNL     1       2.610  -0.243  -4.372  0.00  0.00    -0.042 C 
BRANCH   3   6
ATOM      4  C   UNL     1       2.885  -3.017  -6.925  0.00  0.00    +0.165 A 
ATOM      5  C   UNL     1       2.920  -2.327  -5.723  0.00  0.00    +0.051 A 
ATOM      6  C   UNL     1       2.571  -0.990  -5.681  0.00  0.00    -0.057 A 
ATOM      7  C   UNL     1       2.187  -0.336  -6.836  0.00  0.00    +0.051 A 
ATOM      8  C   UNL     1       2.150  -1.019  -8.042  0.00  0.00    +0.165 A 
ATOM      9  C   UNL     1       2.505  -2.362  -8.089  0.00  0.00    +0.204 A 
BRANCH   4  11
ATOM     10  C   UNL     1       3.609  -4.941  -5.729  0.00  0.00    +0.277 C 
ATOM     11  O   UNL     1       3.229  -4.332  -6.965  0.00  0.00    -0.491 OA
ENDBRANCH   4  11
BRANCH   9  12
ATOM     12  O   UNL     1       2.475  -3.034  -9.272  0.00  0.00    -0.488 OA
ATOM     13  C   UNL     1       1.248  -3.678  -9.622  0.00  0.00    +0.277 C 
ENDBRANCH   9  12
BRANCH   8  14
ATOM     14  O   UNL     1       1.771  -0.375  -9.179  0.00  0.00    -0.491 OA
ATOM     15  C   UNL     1       1.424   1.006  -9.056  0.00  0.00    +0.277 C 
ENDBRANCH   8  14
ENDBRANCH   3   6
ENDBRANCH   1   3
BRANCH   1  16
ATOM     16  C   UNL     1       4.045   0.839  -2.784  0.00  0.00    -0.003 C 
BRANCH  16  17
ATOM     17  C   UNL     1       3.712  -0.199  -1.743  0.00  0.00    +0.089 A 
ATOM     18  C   UNL     1       4.600  -0.950  -1.068  0.00  0.00    +0.042 A 
ATOM     19  C   UNL     1       3.857  -1.782  -0.200  0.00  0.00    +0.041 A 
ATOM     20  C   UNL     1       2.559  -1.490  -0.396  0.00  0.00    +0.195 A 
ATOM     21  O   UNL     1       2.477  -0.526  -1.328  0.00  0.00    -0.470 OA
ENDBRANCH  16  17
ENDBRANCH   1  16
BRANCH   1  22
ATOM     22  C   UNL     1       4.342   1.232  -5.131  0.00  0.00    -0.043 C 
BRANCH  22  23
ATOM     23  C   UNL     1       5.823   1.589  -4.984  0.00  0.00    +0.135 C 
BRANCH  23  24
ATOM     24  O   UNL     1       6.022   2.302  -3.762  0.00  0.00    -0.390 OA
ATOM     25  H   UNL     1       5.522   3.127  -3.703  0.00  0.00    +0.210 HD
ENDBRANCH  23  24
BRANCH  23  26
ATOM     26  C   UNL     1       6.256   2.464  -6.162  0.00  0.00    +0.258 C 
BRANCH  26  27
ATOM     27  O   UNL     1       7.663   2.701  -6.087  0.00  0.00    -0.489 OA
BRANCH  27  28
ATOM     28  C   UNL     1       8.213   3.467  -7.066  0.00  0.00    +0.121 A 
ATOM     29  C   UNL     1       7.413   3.985  -8.074  0.00  0.00    +0.047 A 
ATOM     30  C   UNL     1       7.973   4.764  -9.068  0.00  0.00    +0.019 A 
ATOM     31  C   UNL     1       9.332   5.027  -9.058  0.00  0.00    +0.018 A 
ATOM     32  C   UNL     1      10.131   4.511  -8.054  0.00  0.00    +0.019 A 
ATOM     33  C   UNL     1       9.573   3.737  -7.055  0.00  0.00    +0.047 A 
ATOM     34 BR   UNL     1      10.096   6.094 -10.420  0.00  0.00    -0.050 Br
ENDBRANCH  27  28
ENDBRANCH  26  27
ENDBRANCH  23  26
ENDBRANCH  22  23
ENDBRANCH   1  22
TORSDOF 13
