REMARK  Name = ZINC63374675
REMARK  11 active torsions:
REMARK  status: ('A' for Active; 'I' for Inactive)
REMARK    1  A    between atoms: C_1  and  C_2
REMARK    2  A    between atoms: C_2  and  C_3
REMARK    3  A    between atoms: C_2  and  C_4
REMARK    4  A    between atoms: C_4  and  C_6
REMARK    5  A    between atoms: C_4  and  N_19
REMARK    6  A    between atoms: N_8  and  C_9
REMARK    7  A    between atoms: C_9  and  C_10
REMARK    8  A    between atoms: C_10  and  C_11
REMARK    9  A    between atoms: C_14  and  O_17
REMARK   10  A    between atoms: O_17  and  C_18
REMARK   11  A    between atoms: C_22  and  C_38
REMARK                            x       y       z     vdW  Elec       q    Type
REMARK                         _______ _______ _______ _____ _____    ______ ____
ROOT
ATOM      1  N   UNL     1       1.924   0.318   1.680  0.00  0.00    -0.212 N 
ATOM      2  C   UNL     1       3.065   0.270   0.963  0.00  0.00    +0.249 C 
ATOM      3  O   UNL     1       3.266  -0.364  -0.051  0.00  0.00    -0.273 OA
ATOM      4  C   UNL     1       4.043   1.172   1.684  0.00  0.00    +0.136 C 
ATOM      5  C   UNL     1       5.252   0.362   2.164  0.00  0.00    +0.139 C 
ATOM      6  C   UNL     1       5.881   1.158   3.301  0.00  0.00    -0.034 C 
ATOM      7  C   UNL     1       7.144   1.381   2.948  0.00  0.00    -0.001 A 
ATOM      8  C   UNL     1       8.254   2.039   3.655  0.00  0.00    +0.010 A 
ATOM      9  C   UNL     1       9.435   2.106   2.985  0.00  0.00    +0.001 A 
ATOM     10  C   UNL     1       9.619   1.590   1.698  0.00  0.00    +0.002 A 
ATOM     11  C   UNL     1       8.655   0.965   0.977  0.00  0.00    +0.026 A 
ATOM     12  C   UNL     1       7.369   0.831   1.577  0.00  0.00    +0.043 A 
ATOM     13  N   UNL     1       6.277   0.264   1.121  0.00  0.00    -0.375 N 
ATOM     14  C   UNL     1       5.112   1.614   4.517  0.00  0.00    +0.052 C 
ATOM     15  C   UNL     1       3.855   2.349   4.010  0.00  0.00    +0.115 C 
ATOM     16  N   UNL     1       3.294   1.582   2.894  0.00  0.00    -0.269 N 
ATOM     17  C   UNL     1       2.053   1.095   2.764  0.00  0.00    +0.313 C 
ATOM     18  O   UNL     1       1.149   1.328   3.541  0.00  0.00    -0.252 OA
ATOM     19  C   UNL     1       4.451   2.373   0.828  0.00  0.00    +0.044 C 
ATOM     20  H   UNL     1       6.161  -0.146   0.250  0.00  0.00    +0.160 HD
ENDROOT
BRANCH   1  21
ATOM     21  C   UNL     1       0.693  -0.388   1.317  0.00  0.00    +0.174 C 
BRANCH  21  22
ATOM     22  C   UNL     1       0.923  -1.875   1.402  0.00  0.00    +0.234 C 
ATOM     23  O   UNL     1       2.053  -2.316   1.390  0.00  0.00    -0.274 OA
ATOM     24  N   UNL     1      -0.127  -2.715   1.492  0.00  0.00    -0.313 N 
ATOM     25  H   UNL     1      -1.031  -2.370   1.425  0.00  0.00    +0.149 HD
BRANCH  24  26
ATOM     26  C   UNL     1       0.097  -4.149   1.693  0.00  0.00    +0.109 C 
BRANCH  26  27
ATOM     27  C   UNL     1      -1.250  -4.871   1.760  0.00  0.00    +0.054 C 
BRANCH  27  28
ATOM     28  C   UNL     1      -1.020  -6.346   1.966  0.00  0.00    -0.046 A 
ATOM     29  C   UNL     1      -0.882  -7.182   0.874  0.00  0.00    +0.007 A 
ATOM     30  C   UNL     1      -0.671  -8.535   1.060  0.00  0.00    +0.046 A 
ATOM     31  C   UNL     1      -0.597  -9.054   2.344  0.00  0.00    +0.120 A 
ATOM     32  C   UNL     1      -0.736  -8.213   3.439  0.00  0.00    +0.046 A 
ATOM     33  C   UNL     1      -0.942  -6.860   3.247  0.00  0.00    +0.007 A 
BRANCH  31  34
ATOM     34  O   UNL     1      -0.390 -10.384   2.530  0.00  0.00    -0.495 OA
ATOM     35  C   UNL     1      -0.326 -10.848   3.880  0.00  0.00    +0.277 C 
ENDBRANCH  31  34
ENDBRANCH  27  28
ENDBRANCH  26  27
ENDBRANCH  24  26
ENDBRANCH  21  22
BRANCH  21  37
ATOM     36  C   UNL     1      -1.047  -0.666  -0.455  0.00  0.00    +0.009 C 
ATOM     37  C   UNL     1       0.295  -0.015  -0.113  0.00  0.00    +0.013 C 
ATOM     38  C   UNL     1       0.167   1.505  -0.227  0.00  0.00    +0.009 C 
ENDBRANCH  21  37
ENDBRANCH   1  21
TORSDOF 7
