REMARK  Name = ZINC52627521
REMARK  10 active torsions:
REMARK  status: ('A' for Active; 'I' for Inactive)
REMARK    1  A    between atoms: C_4  and  O_7
REMARK    2  A    between atoms: O_7  and  C_8
REMARK    3  A    between atoms: C_10  and  C_14
REMARK    4  A    between atoms: C_15  and  C_16
REMARK    5  A    between atoms: C_18  and  O_22
REMARK    6  A    between atoms: O_22  and  C_23
REMARK    7  A    between atoms: C_23  and  C_24
REMARK    8  A    between atoms: C_24  and  C_26
REMARK    9  A    between atoms: C_24  and  N_36
REMARK   10  A    between atoms: C_26  and  C_27
REMARK                            x       y       z     vdW  Elec       q    Type
REMARK                         _______ _______ _______ _____ _____    ______ ____
ROOT
ATOM      1  C   UNL     1       7.130  -6.997   0.564  0.00  0.00    -0.003 A 
ATOM      2  C   UNL     1       7.080  -8.394   0.658  0.00  0.00    +0.056 A 
ATOM      3  C   UNL     1       8.277  -9.089   0.755  0.00  0.00    +0.139 A 
ATOM      4  C   UNL     1       9.473  -8.383   0.755  0.00  0.00    +0.156 A 
ATOM      5  N   UNL     1       9.485  -7.067   0.666  0.00  0.00    -0.259 NA
ATOM      6  C   UNL     1       8.376  -6.365   0.567  0.00  0.00    +0.118 A 
ENDROOT
BRANCH   1   8
ATOM      7  C   UNL     1       5.951  -4.870   0.364  0.00  0.00    +0.009 C 
ATOM      8  C   UNL     1       5.890  -6.208   0.459  0.00  0.00    +0.010 C 
BRANCH   7  11
ATOM      9  C   UNL     1       3.561  -1.985   0.060  0.00  0.00    +0.221 A 
ATOM     10  C   UNL     1       4.753  -2.686   0.158  0.00  0.00    +0.075 A 
ATOM     11  C   UNL     1       4.711  -4.081   0.258  0.00  0.00    -0.019 A 
ATOM     12  C   UNL     1       3.456  -4.708   0.254  0.00  0.00    +0.028 A 
ATOM     13  C   UNL     1       2.321  -3.935   0.153  0.00  0.00    +0.115 A 
ATOM     14  N   UNL     1       2.400  -2.619   0.066  0.00  0.00    -0.221 NA
BRANCH   9  15
ATOM     15  O   UNL     1       3.586  -0.632  -0.037  0.00  0.00    -0.438 OA
BRANCH  15  19
ATOM     16  C   UNL     1      -0.016   1.379   0.004  0.00  0.00    +0.000 A 
ATOM     17  C   UNL     1       0.512   0.885   1.183  0.00  0.00    +0.004 A 
ATOM     18  C   UNL     1       1.718   0.212   1.172  0.00  0.00    +0.046 A 
ATOM     19  C   UNL     1       2.399   0.030  -0.024  0.00  0.00    +0.130 A 
ATOM     20  C   UNL     1       1.866   0.526  -1.205  0.00  0.00    +0.046 A 
ATOM     21  C   UNL     1       0.660   1.200  -1.188  0.00  0.00    +0.004 A 
ENDBRANCH  15  19
ENDBRANCH   9  15
ENDBRANCH   7  11
ENDBRANCH   1   8
BRANCH   3  22
ATOM     22  O   UNL     1       8.279 -10.445   0.848  0.00  0.00    -0.492 OA
BRANCH  22  23
ATOM     23  C   UNL     1       9.552 -11.087   0.945  0.00  0.00    +0.213 C 
BRANCH  23  24
ATOM     24  C   UNL     1       9.354 -12.601   1.041  0.00  0.00    -0.033 C 
BRANCH  24  25
ATOM     25  N   UNL     1       8.762 -13.098  -0.209  0.00  0.00    +0.382 N 
ATOM     26  H   UNL     1       9.378 -12.887  -0.980  0.00  0.00    -0.089 HD
ATOM     27  H   UNL     1       8.632 -14.096  -0.145  0.00  0.00    -0.089 HD
ATOM     28  H   UNL     1       7.870 -12.651  -0.359  0.00  0.00    -0.089 HD
ENDBRANCH  24  25
BRANCH  24  29
ATOM     29  C   UNL     1      10.707 -13.279   1.269  0.00  0.00    +0.020 C 
BRANCH  29  30
ATOM     30  C   UNL     1      10.498 -14.755   1.486  0.00  0.00    -0.043 C 
ATOM     31  C   UNL     1      10.579 -15.733   0.555  0.00  0.00    -0.001 A 
ATOM     32  C   UNL     1      10.871 -15.716  -0.883  0.00  0.00    +0.010 A 
ATOM     33  C   UNL     1      10.879 -16.883  -1.565  0.00  0.00    +0.001 A 
ATOM     34  C   UNL     1      10.615 -18.107  -0.935  0.00  0.00    +0.002 A 
ATOM     35  C   UNL     1      10.338 -18.204   0.383  0.00  0.00    +0.026 A 
ATOM     36  C   UNL     1      10.304 -17.038   1.197  0.00  0.00    +0.043 A 
ATOM     37  N   UNL     1      10.063 -16.874   2.475  0.00  0.00    -0.380 N 
ATOM     38  C   UNL     1      10.164 -15.444   2.790  0.00  0.00    +0.144 C 
ATOM     39  H   UNL     1       9.857 -17.579   3.108  0.00  0.00    +0.160 HD
ENDBRANCH  29  30
ENDBRANCH  24  29
ENDBRANCH  23  24
ENDBRANCH  22  23
ENDBRANCH   3  22
TORSDOF 10
