REMARK  Name = ZINC26400254
REMARK  8 active torsions:
REMARK  status: ('A' for Active; 'I' for Inactive)
REMARK    1  A    between atoms: C_1  and  C_2
REMARK    2  A    between atoms: C_7  and  N_8
REMARK    3  A    between atoms: N_11  and  C_14
REMARK    4  A    between atoms: C_14  and  C_15
REMARK    5  A    between atoms: C_15  and  C_16
REMARK    6  A    between atoms: C_27  and  C_36
REMARK    7  A    between atoms: C_28  and  C_29
REMARK    8  A    between atoms: C_32  and  O_35
REMARK                            x       y       z     vdW  Elec       q    Type
REMARK                         _______ _______ _______ _____ _____    ______ ____
ROOT
ATOM      1  C   UNL     1       2.540  -7.843  -2.886  0.00  0.00    +0.194 C 
ATOM      2  C   UNL     1       3.422  -8.137  -4.109  0.00  0.00    +0.167 C 
ATOM      3  N   UNL     1       3.758  -9.568  -4.090  0.00  0.00    -0.333 N 
ATOM      4  C   UNL     1       3.731 -10.234  -2.886  0.00  0.00    +0.092 A 
ATOM      5  C   UNL     1       4.081 -11.577  -3.081  0.00  0.00    +0.007 A 
ATOM      6  C   UNL     1       4.112 -12.430  -1.970  0.00  0.00    +0.010 A 
ATOM      7  C   UNL     1       3.789 -11.876  -0.752  0.00  0.00    +0.004 A 
ATOM      8  C   UNL     1       3.443 -10.538  -0.578  0.00  0.00    +0.048 A 
ATOM      9  C   UNL     1       3.404  -9.676  -1.648  0.00  0.00    +0.145 A 
ATOM     10  O   UNL     1       3.093  -8.359  -1.668  0.00  0.00    -0.485 OA
ATOM     11  C   UNL     1       4.328 -11.695  -4.502  0.00  0.00    -0.017 A 
ATOM     12  C   UNL     1       4.119 -10.457  -5.058  0.00  0.00    +0.053 A 
ATOM     13  C   UNL     1       4.740 -12.945  -5.235  0.00  0.00    +0.046 C 
ENDROOT
BRANCH  12  14
ATOM     14  C   UNL     1       4.263 -10.137  -6.495  0.00  0.00    -0.001 A 
ATOM     15  C   UNL     1       3.289  -9.376  -7.143  0.00  0.00    +0.013 A 
ATOM     16  C   UNL     1       3.429  -9.075  -8.481  0.00  0.00    +0.046 A 
ATOM     17  C   UNL     1       4.533  -9.537  -9.186  0.00  0.00    +0.117 A 
ATOM     18  C   UNL     1       5.501 -10.299  -8.546  0.00  0.00    +0.046 A 
ATOM     19  C   UNL     1       5.370 -10.600  -7.207  0.00  0.00    +0.013 A 
BRANCH  17  20
ATOM     20  O   UNL     1       4.665  -9.243 -10.506  0.00  0.00    -0.507 OA
ATOM     21  H   UNL     1       5.538  -9.608 -11.066  0.00  0.00    +0.292 HD
ENDBRANCH  17  20
ENDBRANCH  12  14
BRANCH   1  22
ATOM     22  C   UNL     1       2.373  -6.328  -2.750  0.00  0.00    +0.061 C 
BRANCH  22  23
ATOM     23  C   UNL     1       1.337  -6.024  -1.666  0.00  0.00    +0.088 C 
BRANCH  23  27
ATOM     24  N   UNL     1       1.469  -2.046  -0.252  0.00  0.00    -0.314 N 
ATOM     25  C   UNL     1       2.272  -2.383  -1.436  0.00  0.00    +0.122 C 
ATOM     26  C   UNL     1       2.482  -3.898  -1.492  0.00  0.00    +0.103 C 
ATOM     27  N   UNL     1       1.176  -4.570  -1.535  0.00  0.00    -0.299 NA
ATOM     28  C   UNL     1       0.374  -4.233  -0.351  0.00  0.00    +0.103 C 
ATOM     29  C   UNL     1       0.163  -2.718  -0.296  0.00  0.00    +0.122 C 
BRANCH  24  36
ATOM     30  C   UNL     1       2.616  -0.780   2.024  0.00  0.00    +0.047 C 
ATOM     31  C   UNL     1       1.863  -0.012   0.969  0.00  0.00    -0.012 A 
ATOM     32  C   UNL     1       1.704   1.358   1.080  0.00  0.00    +0.008 A 
ATOM     33  C   UNL     1       1.002   2.026   0.085  0.00  0.00    +0.018 A 
ATOM     34  C   UNL     1       0.488   1.310  -0.977  0.00  0.00    +0.084 A 
ATOM     35  N   UNL     1       0.655   0.003  -1.057  0.00  0.00    -0.349 N 
ATOM     36  C   UNL     1       1.317  -0.669  -0.129  0.00  0.00    +0.102 A 
ATOM     37  H   UNL     1       0.239  -0.553  -1.909  0.00  0.00    +0.167 HD
ENDBRANCH  24  36
ENDBRANCH  23  27
ENDBRANCH  22  23
ENDBRANCH   1  22
TORSDOF 6
