REMARK  Name = ZINC20435921
REMARK  5 active torsions:
REMARK  status: ('A' for Active; 'I' for Inactive)
REMARK    1  A    between atoms: C_4  and  N_8
REMARK    2  A    between atoms: C_9  and  C_11
REMARK    3  A    between atoms: C_11  and  N_12
REMARK    4  A    between atoms: C_15  and  C_18
REMARK    5  A    between atoms: C_15  and  N_21
REMARK                            x       y       z     vdW  Elec       q    Type
REMARK                         _______ _______ _______ _____ _____    ______ ____
ROOT
ATOM      1  N   UNL     1       4.681  -0.217   4.514  0.00  0.00    +0.386 N 
ATOM      2  C   UNL     1       5.202  -0.752   3.249  0.00  0.00    -0.076 C 
ATOM      3  C   UNL     1       4.391  -0.183   2.082  0.00  0.00    +0.013 C 
ATOM      4  C   UNL     1       2.919  -0.568   2.254  0.00  0.00    +0.095 C 
ATOM      5  C   UNL     1       2.416  -0.041   3.600  0.00  0.00    +0.013 C 
ATOM      6  C   UNL     1       3.283  -0.614   4.723  0.00  0.00    -0.076 C 
ATOM      7  H   UNL     1       4.713   0.881   4.452  0.00  0.00    -0.081 HD
ENDROOT
BRANCH   4   8
ATOM      8  N   UNL     1       2.127   0.024   1.167  0.00  0.00    -0.289 NA
ATOM      9  C   UNL     1       0.725  -0.405   1.245  0.00  0.00    +0.085 C 
ATOM     10  C   UNL     1      -0.036   0.110   0.021  0.00  0.00    +0.015 C 
ATOM     11  C   UNL     1       0.049   1.639  -0.020  0.00  0.00    +0.002 C 
ATOM     12  C   UNL     1       1.520   2.060  -0.051  0.00  0.00    +0.015 C 
ATOM     13  C   UNL     1       2.236   1.488   1.175  0.00  0.00    +0.085 C 
ENDBRANCH   4   8
BRANCH   4  14
ATOM     14  C   UNL     1       2.784  -2.069   2.216  0.00  0.00    +0.231 C 
ATOM     15  O   UNL     1       2.692  -2.696   3.251  0.00  0.00    -0.274 OA
ATOM     16  N   UNL     1       2.764  -2.714   1.033  0.00  0.00    -0.328 N 
ATOM     17  H   UNL     1       2.665  -3.809   1.006  0.00  0.00    +0.145 HD
ATOM     18  H   UNL     1       2.848  -2.146   0.095  0.00  0.00    +0.145 HD
ENDBRANCH   4  14
BRANCH   1  19
ATOM     19  C   UNL     1       5.521  -0.631   5.646  0.00  0.00    +0.019 C 
BRANCH  19  21
ATOM     20  N   UNL     1       7.800  -0.176   6.493  0.00  0.00    -0.286 N 
ATOM     21  C   UNL     1       6.871   0.031   5.540  0.00  0.00    +0.201 C 
ATOM     22  O   UNL     1       7.120   0.752   4.596  0.00  0.00    -0.278 OA
ATOM     23  H   UNL     1       7.606  -0.893   7.304  0.00  0.00    +0.155 HD
BRANCH  20  27
ATOM     24  C   UNL     1      11.413   1.900   6.370  0.00  0.00    +0.021 A 
ATOM     25  C   UNL     1      10.911   1.460   7.581  0.00  0.00    +0.023 A 
ATOM     26  C   UNL     1       9.713   0.772   7.625  0.00  0.00    +0.062 A 
ATOM     27  C   UNL     1       9.013   0.521   6.451  0.00  0.00    +0.053 A 
ATOM     28  C   UNL     1       9.522   0.959   5.236  0.00  0.00    +0.044 A 
ATOM     29  C   UNL     1      10.718   1.652   5.199  0.00  0.00    +0.043 A 
ATOM     30 CL   UNL     1      11.352   2.206   3.681  0.00  0.00    -0.083 Cl
ATOM     31 CL   UNL     1       9.084   0.221   9.147  0.00  0.00    -0.082 Cl
ENDBRANCH  20  27
ENDBRANCH  19  21
ENDBRANCH   1  19
TORSDOF 5
