REMARK  Name = ZINC59926798
REMARK  6 active torsions:
REMARK  status: ('A' for Active; 'I' for Inactive)
REMARK    1  A    between atoms: C_5  and  S_6
REMARK    2  A    between atoms: S_6  and  N_9
REMARK    3  A    between atoms: C_13  and  C_16
REMARK    4  A    between atoms: N_18  and  C_19
REMARK    5  A    between atoms: C_19  and  C_20
REMARK    6  A    between atoms: C_20  and  N_21
REMARK                            x       y       z     vdW  Elec       q    Type
REMARK                         _______ _______ _______ _____ _____    ______ ____
ROOT
ATOM      1  N   UNL     1      -1.744  -1.437  -1.570  0.00  0.00    -0.175 NA
ATOM      2  C   UNL     1      -2.726  -0.600  -2.272  0.00  0.00    +0.109 C 
ATOM      3  C   UNL     1      -3.808  -1.505  -2.869  0.00  0.00    +0.018 C 
ATOM      4  C   UNL     1      -3.149  -2.571  -3.747  0.00  0.00    +0.015 C 
ATOM      5  C   UNL     1      -2.217  -3.433  -2.892  0.00  0.00    +0.091 C 
ATOM      6  C   UNL     1      -1.112  -2.546  -2.297  0.00  0.00    +0.122 C 
ENDROOT
BRANCH   5   7
ATOM      7  C   UNL     1      -1.594  -4.503  -3.750  0.00  0.00    +0.217 C 
ATOM      8  O   UNL     1      -0.388  -4.558  -3.872  0.00  0.00    -0.275 OA
ATOM      9  N   UNL     1      -2.376  -5.400  -4.383  0.00  0.00    -0.317 N 
ATOM     10  H   UNL     1      -3.340  -5.356  -4.285  0.00  0.00    +0.149 HD
BRANCH   9  11
ATOM     11  C   UNL     1      -1.770  -6.441  -5.217  0.00  0.00    +0.085 C 
BRANCH  11  12
ATOM     12  C   UNL     1      -2.871  -7.320  -5.815  0.00  0.00    -0.067 C 
BRANCH  12  13
ATOM     13  N   UNL     1      -2.263  -8.364  -6.652  0.00  0.00    +0.379 N 
ATOM     14  H   UNL     1      -1.735  -7.933  -7.396  0.00  0.00    -0.090 HD
ATOM     15  H   UNL     1      -1.649  -8.931  -6.088  0.00  0.00    -0.090 HD
ATOM     16  H   UNL     1      -2.989  -8.943  -7.046  0.00  0.00    -0.090 HD
ENDBRANCH  12  13
ENDBRANCH  11  12
ENDBRANCH   9  11
ENDBRANCH   5   7
BRANCH   1  17
ATOM     17  S   UNL     1      -1.352  -1.132   0.010  0.00  0.00    +0.067 S 
ATOM     18  O   UNL     1      -0.861  -2.352   0.549  0.00  0.00    -0.152 OA
ATOM     19  O   UNL     1      -2.455  -0.438   0.576  0.00  0.00    -0.152 OA
BRANCH  17  24
ATOM     20  C   UNL     1      -0.016   1.351   0.009  0.00  0.00    +0.037 A 
ATOM     21  C   UNL     1       1.183   2.038   0.002  0.00  0.00    +0.025 A 
ATOM     22  C   UNL     1       2.343   1.335  -0.013  0.00  0.00    +0.057 A 
ATOM     23  S   UNL     1       1.753  -0.350  -0.017  0.00  0.00    -0.062 S 
ATOM     24  C   UNL     1       0.002  -0.004   0.002  0.00  0.00    +0.144 A 
ATOM     25 BR   UNL     1       4.123   1.974  -0.027  0.00  0.00    -0.043 Br
ENDBRANCH  17  24
ENDBRANCH   1  17
TORSDOF 6
