REMARK  Name = ZINC62192203
REMARK  7 active torsions:
REMARK  status: ('A' for Active; 'I' for Inactive)
REMARK    1  A    between atoms: C_1  and  C_2
REMARK    2  A    between atoms: C_2  and  C_4
REMARK    3  A    between atoms: C_2  and  N_11
REMARK    4  A    between atoms: C_4  and  C_5
REMARK    5  A    between atoms: C_12  and  C_14
REMARK    6  A    between atoms: C_19  and  N_20
REMARK    7  A    between atoms: N_20  and  N_21
REMARK                            x       y       z     vdW  Elec       q    Type
REMARK                         _______ _______ _______ _____ _____    ______ ____
ROOT
ATOM      1  N   UNL     1       0.230  -2.020   1.178  0.00  0.00    -0.308 N 
ATOM      2  C   UNL     1      -0.276  -1.688   2.382  0.00  0.00    +0.246 C 
ATOM      3  O   UNL     1      -1.460  -1.433   2.495  0.00  0.00    -0.270 OA
ATOM      4  H   UNL     1       1.174  -2.223   1.088  0.00  0.00    +0.149 HD
ENDROOT
BRANCH   2   5
ATOM      5  C   UNL     1       0.605  -1.635   3.563  0.00  0.00    +0.061 A 
ATOM      6  C   UNL     1       1.939  -2.042   3.464  0.00  0.00    +0.015 A 
ATOM      7  C   UNL     1       2.758  -1.990   4.570  0.00  0.00    +0.004 A 
ATOM      8  C   UNL     1       2.268  -1.534   5.784  0.00  0.00    +0.040 A 
ATOM      9  C   UNL     1       0.953  -1.128   5.899  0.00  0.00    +0.146 A 
ATOM     10  C   UNL     1       0.112  -1.169   4.791  0.00  0.00    +0.089 A 
ATOM     11  F   UNL     1       0.484  -0.686   7.087  0.00  0.00    -0.203 F 
BRANCH  10  12
ATOM     12  N   UNL     1      -1.210  -0.755   4.901  0.00  0.00    -0.280 N 
ATOM     13  H   UNL     1      -1.640  -0.300   4.160  0.00  0.00    +0.166 HD
BRANCH  12  14
ATOM     14  N   UNL     1      -1.905  -0.990   6.054  0.00  0.00    -0.256 NA
ATOM     15  H   UNL     1      -1.427  -0.597   6.851  0.00  0.00    +0.140 HD
ATOM     16  H   UNL     1      -2.848  -0.635   5.987  0.00  0.00    +0.140 HD
ENDBRANCH  12  14
ENDBRANCH  10  12
ENDBRANCH   2   5
BRANCH   1  18
ATOM     17  C   UNL     1      -0.775  -0.673  -0.599  0.00  0.00    +0.028 C 
ATOM     18  C   UNL     1      -0.646  -2.073   0.005  0.00  0.00    +0.074 C 
BRANCH  18  19
ATOM     19  C   UNL     1      -0.048  -3.023  -1.035  0.00  0.00    +0.057 C 
BRANCH  19  20
ATOM     20  C   UNL     1      -0.034  -4.426  -0.484  0.00  0.00    -0.046 A 
ATOM     21  C   UNL     1       1.062  -4.878   0.228  0.00  0.00    +0.004 A 
ATOM     22  C   UNL     1       1.075  -6.164   0.733  0.00  0.00    +0.000 A 
ATOM     23  C   UNL     1      -0.008  -6.999   0.527  0.00  0.00    +0.000 A 
ATOM     24  C   UNL     1      -1.104  -6.547  -0.184  0.00  0.00    +0.000 A 
ATOM     25  C   UNL     1      -1.119  -5.259  -0.685  0.00  0.00    +0.004 A 
ENDBRANCH  19  20
ENDBRANCH  18  19
ENDBRANCH   1  18
TORSDOF 6
