REMARK  Name = ZINC62023281
REMARK  6 active torsions:
REMARK  status: ('A' for Active; 'I' for Inactive)
REMARK    1  A    between atoms: C_7  and  C_11
REMARK    2  A    between atoms: C_11  and  C_12
REMARK    3  A    between atoms: C_12  and  N_13
REMARK    4  A    between atoms: C_14  and  C_16
REMARK    5  A    between atoms: C_16  and  C_17
REMARK    6  A    between atoms: C_17  and  C_18
REMARK                            x       y       z     vdW  Elec       q    Type
REMARK                         _______ _______ _______ _____ _____    ______ ____
ROOT
ATOM      1  N   UNL     1      -0.675  -4.736  -1.452  0.00  0.00    -0.315 N 
ATOM      2  C   UNL     1      -1.186  -5.195  -2.612  0.00  0.00    +0.213 C 
ATOM      3  O   UNL     1      -0.891  -4.657  -3.659  0.00  0.00    -0.276 OA
ATOM      4  H   UNL     1      -0.911  -5.166  -0.615  0.00  0.00    +0.149 HD
ENDROOT
BRANCH   1   5
ATOM      5  C   UNL     1       0.236  -3.589  -1.455  0.00  0.00    +0.109 C 
BRANCH   5   6
ATOM      6  C   UNL     1       0.666  -3.275  -0.021  0.00  0.00    +0.056 C 
BRANCH   6  13
ATOM      7  C   UNL     1      -0.017   1.362   0.009  0.00  0.00    +0.001 A 
ATOM      8  C   UNL     1       1.170   2.083   0.002  0.00  0.00    +0.002 A 
ATOM      9  C   UNL     1       2.386   1.436  -0.013  0.00  0.00    +0.026 A 
ATOM     10  C   UNL     1       2.428   0.046  -0.021  0.00  0.00    +0.047 A 
ATOM     11  C   UNL     1       1.223  -0.681  -0.013  0.00  0.00    +0.003 A 
ATOM     12  C   UNL     1       0.002  -0.004   0.002  0.00  0.00    +0.010 A 
ATOM     13  C   UNL     1       1.604  -2.095  -0.025  0.00  0.00    -0.021 A 
ATOM     14  C   UNL     1       2.945  -2.141  -0.038  0.00  0.00    +0.087 A 
ATOM     15  N   UNL     1       3.455  -0.871  -0.036  0.00  0.00    -0.360 N 
ATOM     16  H   UNL     1       4.399  -0.650  -0.044  0.00  0.00    +0.165 HD
ENDBRANCH   6  13
ENDBRANCH   5   6
ENDBRANCH   1   5
BRANCH   2  17
ATOM     17  C   UNL     1      -2.123  -6.375  -2.609  0.00  0.00    +0.102 C 
BRANCH  17  18
ATOM     18  C   UNL     1      -2.553  -6.689  -4.043  0.00  0.00    +0.072 C 
BRANCH  18  19
ATOM     19  C   UNL     1      -3.490  -7.869  -4.040  0.00  0.00    +0.079 A 
ATOM     20  N   UNL     1      -4.796  -7.870  -3.942  0.00  0.00    -0.249 NA
ATOM     21  C   UNL     1      -5.504  -8.994  -3.953  0.00  0.00    +0.052 A 
ATOM     22  C   UNL     1      -4.767 -10.131  -4.070  0.00  0.00    +0.013 A 
ATOM     23  S   UNL     1      -3.113  -9.507  -4.167  0.00  0.00    -0.077 S 
ATOM     24  C   UNL     1      -5.261 -11.537  -4.109  0.00  0.00    +0.044 C 
ATOM     25  C   UNL     1      -6.721 -11.545  -3.628  0.00  0.00    +0.006 C 
ATOM     26  C   UNL     1      -7.486 -10.431  -4.349  0.00  0.00    +0.006 C 
ATOM     27  C   UNL     1      -7.020  -9.062  -3.846  0.00  0.00    +0.056 C 
ENDBRANCH  18  19
ENDBRANCH  17  18
ENDBRANCH   2  17
TORSDOF 6
