REMARK  Name = ZINC39147062
REMARK  9 active torsions:
REMARK  status: ('A' for Active; 'I' for Inactive)
REMARK    1  A    between atoms: C_1  and  C_2
REMARK    2  A    between atoms: C_2  and  N_3
REMARK    3  A    between atoms: C_4  and  C_23
REMARK    4  A    between atoms: C_8  and  S_9
REMARK    5  A    between atoms: S_9  and  C_10
REMARK    6  A    between atoms: C_10  and  C_11
REMARK    7  A    between atoms: C_23  and  C_25
REMARK    8  A    between atoms: C_23  and  N_26
REMARK    9  A    between atoms: C_27  and  C_29
REMARK                            x       y       z     vdW  Elec       q    Type
REMARK                         _______ _______ _______ _____ _____    ______ ____
ROOT
ATOM      1  N   UNL     1       0.898  -0.446  -1.188  0.00  0.00    -0.288 N 
ATOM      2  C   UNL     1       0.280  -0.727  -2.495  0.00  0.00    +0.197 C 
ATOM      3  N   UNL     1       1.387  -1.272  -3.300  0.00  0.00    -0.245 N 
ATOM      4  N   UNL     1       2.512  -1.274  -2.466  0.00  0.00    -0.163 NA
ATOM      5  C   UNL     1       2.233  -0.808  -1.295  0.00  0.00    +0.175 C 
ATOM      6  H   UNL     1       1.346  -1.569  -4.222  0.00  0.00    +0.170 HD
ENDROOT
BRANCH   1   8
ATOM      7  C   UNL     1      -0.295  -1.026   0.866  0.00  0.00    +0.024 C 
ATOM      8  C   UNL     1       0.235   0.113  -0.007  0.00  0.00    +0.105 C 
ENDBRANCH   1   8
BRANCH   2   9
ATOM      9  C   UNL     1      -0.261   0.560  -3.121  0.00  0.00    +0.110 C 
ATOM     10  C   UNL     1      -0.986   0.226  -4.426  0.00  0.00    +0.031 C 
BRANCH   9  11
ATOM     11  N   UNL     1       0.851   1.472  -3.399  0.00  0.00    -0.303 N 
ATOM     12  C   UNL     1       0.632   2.800  -3.466  0.00  0.00    +0.280 C 
ATOM     13  O   UNL     1      -0.489   3.242  -3.295  0.00  0.00    -0.267 OA
ATOM     14  H   UNL     1       1.745   1.120  -3.535  0.00  0.00    +0.150 HD
BRANCH  12  15
ATOM     15  C   UNL     1       1.745   3.714  -3.745  0.00  0.00    +0.189 A 
ATOM     16  C   UNL     1       1.664   5.074  -3.834  0.00  0.00    +0.054 A 
ATOM     17  C   UNL     1       2.959   5.538  -4.112  0.00  0.00    +0.042 A 
ATOM     18  C   UNL     1       3.764   4.455  -4.179  0.00  0.00    +0.196 A 
ATOM     19  O   UNL     1       3.030   3.358  -3.953  0.00  0.00    -0.458 OA
ENDBRANCH  12  15
ENDBRANCH   9  11
ENDBRANCH   2   9
BRANCH   5  20
ATOM     20  S   UNL     1       3.405  -0.654   0.011  0.00  0.00    -0.081 S 
BRANCH  20  21
ATOM     21  C   UNL     1       4.950  -1.275  -0.711  0.00  0.00    +0.151 C 
BRANCH  21  22
ATOM     22  C   UNL     1       6.051  -1.198   0.316  0.00  0.00    +0.121 A 
ATOM     23  N   UNL     1       7.294  -1.615  -0.039  0.00  0.00    -0.310 N 
ATOM     24  H   UNL     1       7.450  -1.951  -0.936  0.00  0.00    +0.170 HD
ATOM     25  C   UNL     1       8.316  -1.566   0.846  0.00  0.00    +0.259 A 
ATOM     26  O   UNL     1       9.435  -1.935   0.541  0.00  0.00    -0.267 OA
ATOM     27  C   UNL     1       8.023  -1.048   2.191  0.00  0.00    +0.065 A 
ATOM     28  C   UNL     1       9.004  -0.956   3.176  0.00  0.00    +0.015 A 
ATOM     29  C   UNL     1       8.674  -0.463   4.419  0.00  0.00    +0.001 A 
ATOM     30  C   UNL     1       7.375  -0.059   4.696  0.00  0.00    +0.002 A 
ATOM     31  C   UNL     1       6.391  -0.142   3.738  0.00  0.00    +0.028 A 
ATOM     32  C   UNL     1       6.700  -0.637   2.469  0.00  0.00    +0.078 A 
ATOM     33  N   UNL     1       5.763  -0.731   1.493  0.00  0.00    -0.233 NA
ENDBRANCH  21  22
ENDBRANCH  20  21
ENDBRANCH   5  20
TORSDOF 7
