REMARK  Name = ZINC09483269
REMARK  7 active torsions:
REMARK  status: ('A' for Active; 'I' for Inactive)
REMARK    1  A    between atoms: C_1  and  C_2
REMARK    2  A    between atoms: C_2  and  C_3
REMARK    3  A    between atoms: C_8  and  C_12
REMARK    4  A    between atoms: C_8  and  C_13
REMARK    5  A    between atoms: N_21  and  C_22
REMARK    6  A    between atoms: C_22  and  C_23
REMARK    7  A    between atoms: N_28  and  C_31
REMARK                            x       y       z     vdW  Elec       q    Type
REMARK                         _______ _______ _______ _____ _____    ______ ____
ROOT
ATOM      1  C   UNL     1      -2.493   0.948  -0.075  0.00  0.00    +0.109 C 
ATOM      2  C   UNL     1      -1.269   1.831  -0.080  0.00  0.00    +0.032 C 
ATOM      3  C   UNL     1      -1.256   3.175  -0.012  0.00  0.00    +0.017 C 
ATOM      4  C   UNL     1       0.051   3.943  -0.074  0.00  0.00    +0.058 C 
ATOM      5  C   UNL     1       1.162   3.130   0.591  0.00  0.00    -0.023 C 
ATOM      6  C   UNL     1       1.284   1.801  -0.163  0.00  0.00    +0.086 C 
ATOM      7  C   UNL     1      -0.049   1.117  -0.157  0.00  0.00    +0.163 C 
ATOM      8  O   UNL     1      -0.085  -0.096  -0.226  0.00  0.00    -0.292 OA
ATOM      9  C   UNL     1       0.804   2.864   2.055  0.00  0.00    +0.011 C 
ATOM     10  C   UNL     1       2.484   3.896   0.511  0.00  0.00    +0.011 C 
ATOM     11  N   UNL     1      -2.374   3.935   0.116  0.00  0.00    -0.316 N 
ATOM     12  C   UNL     1      -3.408   3.633   1.000  0.00  0.00    +0.052 A 
ATOM     13  C   UNL     1      -3.725   4.462   2.063  0.00  0.00    +0.025 A 
ATOM     14  C   UNL     1      -4.778   4.120   2.895  0.00  0.00    +0.002 A 
ATOM     15  C   UNL     1      -5.501   2.965   2.662  0.00  0.00    +0.002 A 
ATOM     16  C   UNL     1      -5.176   2.135   1.605  0.00  0.00    +0.025 A 
ATOM     17  C   UNL     1      -4.114   2.470   0.773  0.00  0.00    +0.052 A 
ATOM     18  N   UNL     1      -3.747   1.637  -0.277  0.00  0.00    -0.312 N 
ATOM     19  H   UNL     1      -2.458   4.728  -0.436  0.00  0.00    +0.152 HD
ENDROOT
BRANCH   1  21
ATOM     20  C   UNL     1      -2.164   0.620  -2.530  0.00  0.00    +0.006 C 
ATOM     21  C   UNL     1      -2.332  -0.091  -1.186  0.00  0.00    +0.024 C 
ENDBRANCH   1  21
BRANCH  18  22
ATOM     22  C   UNL     1      -4.822   0.691  -0.599  0.00  0.00    +0.201 C 
BRANCH  22  23
ATOM     23  C   UNL     1      -6.063   1.453  -0.987  0.00  0.00    +0.233 C 
ATOM     24  O   UNL     1      -6.052   2.666  -0.994  0.00  0.00    -0.274 OA
ATOM     25  N   UNL     1      -7.185   0.787  -1.325  0.00  0.00    -0.297 N 
ATOM     26  C   UNL     1      -7.218  -0.684  -1.329  0.00  0.00    +0.126 C 
ATOM     27  C   UNL     1      -8.434  -1.141  -0.507  0.00  0.00    +0.125 C 
ATOM     28  N   UNL     1      -9.643  -0.491  -1.031  0.00  0.00    -0.314 N 
ATOM     29  C   UNL     1      -9.574   0.968  -0.876  0.00  0.00    +0.125 C 
ATOM     30  C   UNL     1      -8.407   1.511  -1.707  0.00  0.00    +0.126 C 
BRANCH  28  31
ATOM     31  C   UNL     1     -10.785  -1.003  -0.424  0.00  0.00    +0.099 A 
ATOM     32  C   UNL     1     -11.031  -2.372  -0.462  0.00  0.00    +0.042 A 
ATOM     33  C   UNL     1     -12.171  -2.867   0.145  0.00  0.00    +0.005 A 
ATOM     34  C   UNL     1     -13.030  -1.973   0.772  0.00  0.00    +0.018 A 
ATOM     35  C   UNL     1     -12.723  -0.627   0.771  0.00  0.00    +0.084 A 
ATOM     36  N   UNL     1     -11.610  -0.106   0.190  0.00  0.00    -0.350 N 
ATOM     37  H   UNL     1     -11.403   0.899   0.212  0.00  0.00    +0.166 HD
ENDBRANCH  28  31
ENDBRANCH  22  23
ENDBRANCH  18  22
TORSDOF 4
