REMARK  Name = ZINC39664699
REMARK  12 active torsions:
REMARK  status: ('A' for Active; 'I' for Inactive)
REMARK    1  A    between atoms: C_1  and  C_2
REMARK    2  A    between atoms: C_2  and  C_3
REMARK    3  A    between atoms: C_3  and  C_4
REMARK    4  A    between atoms: C_3  and  C_6
REMARK    5  A    between atoms: C_4  and  C_5
REMARK    6  A    between atoms: C_10  and  C_19
REMARK    7  A    between atoms: N_21  and  C_22
REMARK    8  A    between atoms: C_22  and  C_24
REMARK    9  A    between atoms: C_22  and  C_28
REMARK   10  A    between atoms: C_24  and  N_25
REMARK   11  A    between atoms: N_25  and  C_26
REMARK   12  A    between atoms: N_25  and  C_27
REMARK                            x       y       z     vdW  Elec       q    Type
REMARK                         _______ _______ _______ _____ _____    ______ ____
ROOT
ATOM      1  C   UNL     1       0.122  -1.181   0.969  0.00  0.00    +0.219 C 
ATOM      2  O   UNL     1      -0.465  -1.595  -0.008  0.00  0.00    -0.275 OA
ATOM      3  N   UNL     1       0.626  -2.049   1.869  0.00  0.00    -0.300 N 
ATOM      4  C   UNL     1       1.445  -1.743   3.066  0.00  0.00    +0.121 C 
ATOM      5  C   UNL     1       0.924  -2.709   4.153  0.00  0.00    +0.100 C 
ATOM      6  C   UNL     1       0.298  -3.877   3.373  0.00  0.00    -0.004 C 
ATOM      7  C   UNL     1       0.480  -3.524   1.890  0.00  0.00    +0.115 C 
ATOM      8  C   UNL     1      -1.187  -3.995   3.702  0.00  0.00    -0.010 C 
ATOM      9  C   UNL     1      -1.776  -5.198   2.958  0.00  0.00    -0.082 C 
ATOM     10  N   UNL     1      -1.066  -6.418   3.360  0.00  0.00    +0.379 N 
ATOM     11  C   UNL     1       0.343  -6.334   2.957  0.00  0.00    -0.082 C 
ATOM     12  C   UNL     1       1.021  -5.180   3.700  0.00  0.00    -0.010 C 
ATOM     13  H   UNL     1      -1.122  -6.524   4.362  0.00  0.00    -0.086 HD
ATOM     14  H   UNL     1      -1.494  -7.217   2.916  0.00  0.00    -0.086 HD
ENDROOT
BRANCH   5  15
ATOM     15  C   UNL     1       2.064  -3.198   5.009  0.00  0.00    +0.219 C 
ATOM     16  O   UNL     1       3.189  -3.234   4.559  0.00  0.00    -0.275 OA
ATOM     17  N   UNL     1       1.832  -3.596   6.276  0.00  0.00    -0.310 N 
ATOM     18  H   UNL     1       0.924  -3.634   6.614  0.00  0.00    +0.149 HD
BRANCH  17  19
ATOM     19  C   UNL     1       2.952  -3.972   7.142  0.00  0.00    +0.087 C 
BRANCH  19  20
ATOM     20  C   UNL     1       2.553  -5.146   7.999  0.00  0.00    -0.029 A 
ATOM     21  C   UNL     1       1.281  -5.206   8.539  0.00  0.00    +0.005 A 
ATOM     22  C   UNL     1       0.915  -6.282   9.325  0.00  0.00    +0.000 A 
ATOM     23  C   UNL     1       1.819  -7.298   9.572  0.00  0.00    +0.000 A 
ATOM     24  C   UNL     1       3.090  -7.238   9.031  0.00  0.00    +0.000 A 
ATOM     25  C   UNL     1       3.456  -6.164   8.242  0.00  0.00    +0.005 A 
ENDBRANCH  19  20
BRANCH  19  26
ATOM     26  C   UNL     1       3.323  -2.789   8.038  0.00  0.00    -0.052 C 
BRANCH  26  27
ATOM     27  N   UNL     1       3.637  -1.622   7.203  0.00  0.00    +0.377 N 
ATOM     28  C   UNL     1       3.841  -0.447   8.061  0.00  0.00    -0.097 C 
ATOM     29  C   UNL     1       4.860  -1.884   6.434  0.00  0.00    -0.097 C 
ATOM     30  H   UNL     1       2.872  -1.447   6.569  0.00  0.00    -0.083 HD
ENDBRANCH  26  27
ENDBRANCH  19  26
ENDBRANCH  17  19
ENDBRANCH   5  15
BRANCH   1  31
ATOM     31  C   UNL     1       0.288   0.302   1.177  0.00  0.00    +0.075 C 
BRANCH  31  33
ATOM     32  C   UNL     1       1.765   2.267   0.729  0.00  0.00    +0.004 C 
ATOM     33  C   UNL     1       1.524   0.788   0.418  0.00  0.00    +0.009 C 
ENDBRANCH  31  33
BRANCH  31  34
ATOM     34  C   UNL     1      -0.951   1.032   0.655  0.00  0.00    +0.009 C 
ATOM     35  C   UNL     1      -2.162   0.660   1.514  0.00  0.00    +0.004 C 
ENDBRANCH  31  34
ENDBRANCH   1  31
TORSDOF 8
