REMARK  Name = ZINC32928294
REMARK  18 active torsions:
REMARK  status: ('A' for Active; 'I' for Inactive)
REMARK    1  A    between atoms: C_1  and  C_2
REMARK    2  A    between atoms: C_2  and  C_3
REMARK    3  A    between atoms: C_2  and  N_4
REMARK    4  A    between atoms: N_4  and  C_5
REMARK    5  A    between atoms: N_4  and  C_29
REMARK    6  A    between atoms: C_5  and  C_6
REMARK    7  A    between atoms: C_6  and  N_7
REMARK    8  A    between atoms: C_8  and  C_10
REMARK    9  A    between atoms: C_10  and  C_12
REMARK   10  A    between atoms: C_10  and  N_18
REMARK   11  A    between atoms: C_12  and  C_13
REMARK   12  A    between atoms: C_13  and  S_14
REMARK   13  A    between atoms: S_14  and  C_17
REMARK   14  A    between atoms: C_19  and  O_21
REMARK   15  A    between atoms: O_21  and  C_22
REMARK   16  A    between atoms: C_22  and  C_23
REMARK   17  A    between atoms: C_29  and  C_30
REMARK   18  A    between atoms: C_29  and  C_31
REMARK                            x       y       z     vdW  Elec       q    Type
REMARK                         _______ _______ _______ _____ _____    ______ ____
ROOT
ATOM      1  C   UNL     1       1.970  -0.635  -0.164  0.00  0.00    +0.164 C 
ENDROOT
BRANCH   1   3
ATOM      2  N   UNL     1       2.662  -2.884   0.597  0.00  0.00    -0.316 N 
ATOM      3  C   UNL     1       1.667  -1.992   0.416  0.00  0.00    +0.233 C 
ATOM      4  O   UNL     1       0.530  -2.282   0.719  0.00  0.00    -0.274 OA
ATOM      5  H   UNL     1       3.693  -2.621   0.322  0.00  0.00    +0.149 HD
BRANCH   2   6
ATOM      6  C   UNL     1       2.368  -4.204   1.161  0.00  0.00    +0.086 C 
BRANCH   6   7
ATOM      7  C   UNL     1       3.661  -5.015   1.261  0.00  0.00    -0.059 C 
BRANCH   7   8
ATOM      8  N   UNL     1       3.391  -6.284   1.949  0.00  0.00    +0.384 N 
ATOM      9  H   UNL     1       2.794  -6.062   2.846  0.00  0.00    -0.081 HD
BRANCH   8  11
ATOM     10  C   UNL     1       1.115  -6.955   1.342  0.00  0.00    -0.014 C 
ATOM     11  C   UNL     1       2.608  -7.189   1.097  0.00  0.00    -0.074 C 
ATOM     12  C   UNL     1       2.933  -6.915  -0.372  0.00  0.00    -0.014 C 
ENDBRANCH   8  11
BRANCH   8  13
ATOM     13  C   UNL     1       4.640  -6.923   2.386  0.00  0.00    -0.074 C 
ATOM     14  C   UNL     1       4.317  -8.087   3.325  0.00  0.00    -0.014 C 
ATOM     15  C   UNL     1       5.399  -7.447   1.165  0.00  0.00    -0.014 C 
ENDBRANCH   8  13
ENDBRANCH   7   8
ENDBRANCH   6   7
ENDBRANCH   2   6
ENDBRANCH   1   3
BRANCH   1  16
ATOM     16  N   UNL     1       0.731   0.142  -0.260  0.00  0.00    -0.270 N 
ATOM     17  C   UNL     1       0.779   1.489  -0.258  0.00  0.00    +0.401 C 
ATOM     18  O   UNL     1       1.849   2.059  -0.176  0.00  0.00    -0.226 OA
ATOM     19  H   UNL     1      -0.237  -0.374  -0.334  0.00  0.00    +0.153 HD
BRANCH  17  20
ATOM     20  O   UNL     1      -0.359   2.203  -0.351  0.00  0.00    -0.446 OA
BRANCH  20  21
ATOM     21  C   UNL     1      -0.232   3.650  -0.342  0.00  0.00    +0.269 C 
BRANCH  21  22
ATOM     22  C   UNL     1      -1.599   4.274  -0.454  0.00  0.00    -0.010 A 
ATOM     23  C   UNL     1      -2.126   4.565  -1.698  0.00  0.00    +0.007 A 
ATOM     24  C   UNL     1      -3.382   5.134  -1.802  0.00  0.00    +0.000 A 
ATOM     25  C   UNL     1      -4.106   5.421  -0.660  0.00  0.00    +0.000 A 
ATOM     26  C   UNL     1      -3.577   5.136   0.585  0.00  0.00    +0.000 A 
ATOM     27  C   UNL     1      -2.323   4.562   0.688  0.00  0.00    +0.007 A 
ENDBRANCH  21  22
ENDBRANCH  20  21
ENDBRANCH  17  20
ENDBRANCH   1  16
BRANCH   1  28
ATOM     28  C   UNL     1       2.577  -0.800  -1.559  0.00  0.00    +0.054 C 
BRANCH  28  29
ATOM     29  C   UNL     1       2.999   0.569  -2.097  0.00  0.00    +0.168 C 
BRANCH  29  30
ATOM     30  S   UNL     1       3.719   0.374  -3.750  0.00  0.00    -0.034 S 
ATOM     31  O   UNL     1       4.921  -0.375  -3.631  0.00  0.00    -0.175 OA
ATOM     32  O   UNL     1       2.703  -0.085  -4.631  0.00  0.00    -0.175 OA
ATOM     33  C   UNL     1       4.147   2.077  -4.205  0.00  0.00    +0.194 C 
ENDBRANCH  29  30
ENDBRANCH  28  29
ENDBRANCH   1  28
TORSDOF 13
