REMARK  Name = ZINC34169036
REMARK  13 active torsions:
REMARK  status: ('A' for Active; 'I' for Inactive)
REMARK    1  A    between atoms: C_1  and  C_2
REMARK    2  A    between atoms: C_2  and  C_4
REMARK    3  A    between atoms: C_2  and  C_10
REMARK    4  A    between atoms: C_4  and  C_5
REMARK    5  A    between atoms: C_5  and  C_6
REMARK    6  A    between atoms: C_6  and  C_7
REMARK    7  A    between atoms: C_7  and  C_8
REMARK    8  A    between atoms: C_7  and  C_9
REMARK    9  A    between atoms: C_16  and  C_37
REMARK   10  A    between atoms: C_24  and  O_36
REMARK   11  A    between atoms: C_26  and  O_35
REMARK   12  A    between atoms: C_27  and  C_34
REMARK   13  A    between atoms: C_30  and  O_33
REMARK                            x       y       z     vdW  Elec       q    Type
REMARK                         _______ _______ _______ _____ _____    ______ ____
ROOT
ATOM      1  C   UNL     1       0.856  -0.326   1.276  0.00  0.00    -0.002 C 
ATOM      2  C   UNL     1       0.096  -0.133   2.615  0.00  0.00    +0.004 C 
ATOM      3  C   UNL     1       0.327  -1.433   3.441  0.00  0.00    +0.004 C 
ATOM      4  C   UNL     1       1.557  -2.031   2.740  0.00  0.00    -0.001 C 
ATOM      5  C   UNL     1       1.177  -1.840   1.258  0.00  0.00    -0.026 C 
ATOM      6  C   UNL     1       2.310  -2.240   0.355  0.00  0.00    +0.007 C 
ATOM      7  C   UNL     1       2.929  -3.583   0.765  0.00  0.00    +0.005 C 
ATOM      8  C   UNL     1       2.126  -4.293   1.838  0.00  0.00    +0.001 C 
ATOM      9  C   UNL     1       1.956  -3.430   3.085  0.00  0.00    -0.001 C 
ATOM     10  C   UNL     1       0.998  -4.133   4.041  0.00  0.00    +0.038 C 
ATOM     11  C   UNL     1       1.604  -5.465   4.490  0.00  0.00    +0.147 C 
ATOM     12  C   UNL     1       2.861  -5.818   3.713  0.00  0.00    +0.100 C 
ATOM     13  C   UNL     1       2.709  -5.656   2.207  0.00  0.00    +0.002 C 
ATOM     14  C   UNL     1       4.082  -5.854   1.558  0.00  0.00    +0.012 C 
ATOM     15  C   UNL     1       4.617  -7.249   1.873  0.00  0.00    +0.032 C 
ATOM     16  C   UNL     1       4.651  -7.518   3.374  0.00  0.00    +0.117 C 
ATOM     17  C   UNL     1       3.288  -7.262   4.018  0.00  0.00    +0.069 C 
ATOM     18  C   UNL     1       1.751  -6.717   1.642  0.00  0.00    +0.014 C 
ATOM     19  C   UNL     1      -0.123  -2.545   0.872  0.00  0.00    +0.012 C 
ENDROOT
BRANCH   1  21
ATOM     20  C   UNL     1      -0.484   1.486   0.208  0.00  0.00    +0.008 C 
ATOM     21  C   UNL     1      -0.040   0.026   0.094  0.00  0.00    -0.010 C 
BRANCH  21  22
ATOM     22  C   UNL     1       0.735  -0.171  -1.210  0.00  0.00    +0.003 C 
BRANCH  22  23
ATOM     23  C   UNL     1      -0.171   0.164  -2.397  0.00  0.00    +0.001 C 
BRANCH  23  24
ATOM     24  C   UNL     1       0.605  -0.034  -3.701  0.00  0.00    +0.003 C 
BRANCH  24  25
ATOM     25  C   UNL     1      -0.301   0.301  -4.888  0.00  0.00    -0.017 C 
ATOM     26  C   UNL     1      -0.661   1.788  -4.852  0.00  0.00    +0.007 C 
ATOM     27  C   UNL     1       0.432  -0.015  -6.194  0.00  0.00    +0.007 C 
ENDBRANCH  24  25
ENDBRANCH  23  24
ENDBRANCH  22  23
ENDBRANCH  21  22
ENDBRANCH   1  21
BRANCH  16  28
ATOM     28  O   UNL     1       5.025  -8.883   3.600  0.00  0.00    -0.392 OA
ATOM     29  H   UNL     1       5.894  -9.116   3.245  0.00  0.00    +0.210 HD
ENDBRANCH  16  28
BRANCH  12  30
ATOM     30  O   UNL     1       3.945  -4.990   4.176  0.00  0.00    -0.385 OA
ATOM     31  H   UNL     1       4.146  -5.095   5.116  0.00  0.00    +0.210 HD
ENDBRANCH  12  30
BRANCH  11  32
ATOM     32  O   UNL     1       0.626  -6.501   4.377  0.00  0.00    -0.389 OA
ATOM     33  H   UNL     1      -0.165  -6.355   4.913  0.00  0.00    +0.210 HD
ENDBRANCH  11  32
TORSDOF 8
