REMARK  Name = ZINC52069090
REMARK  5 active torsions:
REMARK  status: ('A' for Active; 'I' for Inactive)
REMARK    1  A    between atoms: C_1  and  C_2
REMARK    2  A    between atoms: C_5  and  N_9
REMARK    3  A    between atoms: N_12  and  C_13
REMARK    4  A    between atoms: C_13  and  C_14
REMARK    5  A    between atoms: C_13  and  C_15
REMARK                            x       y       z     vdW  Elec       q    Type
REMARK                         _______ _______ _______ _____ _____    ______ ____
ROOT
ATOM      1  N   UNL     1       0.057  -4.144  -0.021  0.00  0.00    -0.213 NA
ATOM      2  C   UNL     1       1.202  -4.786  -0.030  0.00  0.00    +0.196 C 
ATOM      3  N   UNL     1       2.382  -4.085  -0.033  0.00  0.00    -0.370 N 
ATOM      4  N   UNL     1       1.220  -6.159  -0.038  0.00  0.00    -0.354 N 
ATOM      5  H   UNL     1       2.369  -3.115  -0.027  0.00  0.00    +0.159 HD
ATOM      6  H   UNL     1       0.386  -6.654  -0.036  0.00  0.00    +0.163 HD
ATOM      7  H   UNL     1       3.228  -4.559  -0.040  0.00  0.00    +0.159 HD
ENDROOT
BRANCH   1  12
ATOM      8  C   UNL     1      -0.018   1.503   0.010  0.00  0.00    +0.044 C 
ATOM      9  C   UNL     1       0.002  -0.004   0.002  0.00  0.00    -0.048 A 
ATOM     10  C   UNL     1       0.006  -0.686  -1.202  0.00  0.00    +0.020 A 
ATOM     11  C   UNL     1       0.024  -2.066  -1.217  0.00  0.00    +0.045 A 
ATOM     12  C   UNL     1       0.039  -2.774  -0.013  0.00  0.00    +0.095 A 
ATOM     13  C   UNL     1       0.036  -2.079   1.198  0.00  0.00    +0.045 A 
ATOM     14  C   UNL     1       0.023  -0.699   1.198  0.00  0.00    +0.020 A 
ATOM     15 BR   UNL     1       0.056  -3.027   2.834  0.00  0.00    -0.048 Br
ATOM     16 BR   UNL     1       0.028  -2.996  -2.864  0.00  0.00    -0.048 Br
ENDBRANCH   1  12
BRANCH   4  17
ATOM     17  C   UNL     1       2.498  -6.875  -0.048  0.00  0.00    +0.076 C 
ATOM     18  C   UNL     1       3.012  -7.022   1.385  0.00  0.00    +0.030 C 
ATOM     19  C   UNL     1       2.301  -8.261  -0.664  0.00  0.00    +0.030 C 
ENDBRANCH   4  17
TORSDOF 2
