REMARK  Name = ZINC36397252
REMARK  7 active torsions:
REMARK  status: ('A' for Active; 'I' for Inactive)
REMARK    1  A    between atoms: C_1  and  C_2
REMARK    2  A    between atoms: C_2  and  C_4
REMARK    3  A    between atoms: C_2  and  S_11
REMARK    4  A    between atoms: S_11  and  C_12
REMARK    5  A    between atoms: C_13  and  C_20
REMARK    6  A    between atoms: C_14  and  N_19
REMARK    7  A    between atoms: C_16  and  N_18
REMARK                            x       y       z     vdW  Elec       q    Type
REMARK                         _______ _______ _______ _____ _____    ______ ____
ROOT
ATOM      1  C   UNL     1      -0.136  -0.087   2.816  0.00  0.00    +0.119 A 
ATOM      2  C   UNL     1       0.249  -0.383   4.135  0.00  0.00    +0.104 A 
ATOM      3  C   UNL     1      -0.579   0.042   5.196  0.00  0.00    +0.048 A 
ATOM      4  C   UNL     1      -1.742   0.736   4.885  0.00  0.00    +0.067 A 
ATOM      5  C   UNL     1      -2.050   0.988   3.555  0.00  0.00    +0.119 A 
ATOM      6  N   UNL     1      -1.252   0.583   2.576  0.00  0.00    -0.225 NA
ENDROOT
BRANCH   5   7
ATOM      7  N   UNL     1      -3.211   1.681   3.245  0.00  0.00    -0.343 N 
ATOM      8  H   UNL     1      -3.799   1.984   3.954  0.00  0.00    +0.144 HD
ATOM      9  H   UNL     1      -3.435   1.861   2.318  0.00  0.00    +0.144 HD
ENDBRANCH   5   7
BRANCH   3  10
ATOM     10  N   UNL     1      -0.241  -0.228   6.513  0.00  0.00    -0.357 N 
ATOM     11  H   UNL     1       0.574  -0.714   6.715  0.00  0.00    +0.142 HD
ATOM     12  H   UNL     1      -0.819   0.070   7.233  0.00  0.00    +0.142 HD
ENDBRANCH   3  10
BRANCH   2  13
ATOM     13  C   UNL     1       1.459  -1.103   4.398  0.00  0.00    +0.104 C 
ATOM     14  N   UNL     1       2.419  -1.673   4.606  0.00  0.00    -0.191 NA
ENDBRANCH   2  13
BRANCH   1  15
ATOM     15  S   UNL     1       0.879  -0.605   1.472  0.00  0.00    -0.097 S 
BRANCH  15  17
ATOM     16  C   UNL     1      -0.019   1.526   0.010  0.00  0.00    +0.024 C 
ATOM     17  C   UNL     1       0.002  -0.004   0.002  0.00  0.00    +0.080 C 
BRANCH  17  18
ATOM     18  C   UNL     1       0.707  -0.490  -1.238  0.00  0.00    -0.034 A 
ATOM     19  C   UNL     1       2.026  -0.141  -1.464  0.00  0.00    +0.007 A 
ATOM     20  C   UNL     1       2.674  -0.587  -2.600  0.00  0.00    +0.038 A 
ATOM     21  C   UNL     1       2.002  -1.383  -3.513  0.00  0.00    +0.123 A 
ATOM     22  C   UNL     1       0.682  -1.731  -3.285  0.00  0.00    +0.038 A 
ATOM     23  C   UNL     1       0.037  -1.289  -2.146  0.00  0.00    +0.007 A 
ATOM     24  F   UNL     1       2.635  -1.818  -4.624  0.00  0.00    -0.205 F 
ENDBRANCH  17  18
ENDBRANCH  15  17
ENDBRANCH   1  15
TORSDOF 6
