REMARK  Name = ZINC39686352
REMARK  7 active torsions:
REMARK  status: ('A' for Active; 'I' for Inactive)
REMARK    1  A    between atoms: C_1  and  C_2
REMARK    2  A    between atoms: C_2  and  C_3
REMARK    3  A    between atoms: C_2  and  C_4
REMARK    4  A    between atoms: C_4  and  C_5
REMARK    5  A    between atoms: C_10  and  N_13
REMARK    6  A    between atoms: C_14  and  C_16
REMARK    7  A    between atoms: C_27  and  C_29
REMARK                            x       y       z     vdW  Elec       q    Type
REMARK                         _______ _______ _______ _____ _____    ______ ____
ROOT
ATOM      1  C   UNL     1       0.300  -4.381   9.012  0.00  0.00    +0.100 C 
ATOM      2  C   UNL     1      -1.123  -4.941   8.785  0.00  0.00    +0.121 C 
ATOM      3  N   UNL     1      -1.556  -5.415  10.121  0.00  0.00    -0.296 N 
ATOM      4  C   UNL     1      -1.042  -4.389  11.060  0.00  0.00    +0.115 C 
ATOM      5  C   UNL     1       0.348  -4.019  10.506  0.00  0.00    -0.004 C 
ATOM      6  C   UNL     1       0.605  -2.526  10.680  0.00  0.00    -0.010 C 
ATOM      7  C   UNL     1       0.707  -2.201  12.173  0.00  0.00    -0.082 C 
ATOM      8  N   UNL     1       1.799  -2.978  12.771  0.00  0.00    +0.379 N 
ATOM      9  C   UNL     1       1.500  -4.412  12.682  0.00  0.00    -0.082 C 
ATOM     10  C   UNL     1       1.431  -4.831  11.211  0.00  0.00    -0.010 C 
ATOM     11  C   UNL     1      -2.258  -6.527  10.415  0.00  0.00    +0.252 C 
ATOM     12  O   UNL     1      -2.539  -6.781  11.570  0.00  0.00    -0.270 OA
ATOM     13  H   UNL     1       2.658  -2.784  12.279  0.00  0.00    -0.086 HD
ATOM     14  H   UNL     1       1.904  -2.718  13.741  0.00  0.00    -0.086 HD
ENDROOT
BRANCH  11  15
ATOM     15  C   UNL     1      -2.685  -7.437   9.335  0.00  0.00    +0.108 A 
ATOM     16  C   UNL     1      -1.860  -8.495   8.938  0.00  0.00    +0.138 A 
ATOM     17  C   UNL     1      -2.268  -9.343   7.926  0.00  0.00    +0.041 A 
ATOM     18  C   UNL     1      -3.488  -9.148   7.304  0.00  0.00    +0.026 A 
ATOM     19  C   UNL     1      -4.311  -8.104   7.690  0.00  0.00    +0.077 A 
ATOM     20  C   UNL     1      -3.920  -7.250   8.705  0.00  0.00    +0.156 A 
ATOM     21  F   UNL     1      -4.727  -6.234   9.084  0.00  0.00    -0.203 F 
ATOM     22 CL   UNL     1      -5.840  -7.870   6.901  0.00  0.00    -0.081 Cl
ATOM     23  F   UNL     1      -0.667  -8.687   9.543  0.00  0.00    -0.205 F 
ENDBRANCH  11  15
BRANCH   1  25
ATOM     24  N   UNL     1       1.763  -2.837   7.749  0.00  0.00    -0.312 N 
ATOM     25  C   UNL     1       0.521  -3.152   8.168  0.00  0.00    +0.218 C 
ATOM     26  O   UNL     1      -0.419  -2.448   7.864  0.00  0.00    -0.275 OA
ATOM     27  H   UNL     1       2.514  -3.400   7.992  0.00  0.00    +0.149 HD
BRANCH  24  33
ATOM     28  C   UNL     1       4.109   0.081   3.869  0.00  0.00    +0.216 C 
ATOM     29  O   UNL     1       3.782  -0.149   2.724  0.00  0.00    -0.276 OA
ATOM     30  N   UNL     1       3.251  -0.168   4.878  0.00  0.00    -0.301 N 
ATOM     31  C   UNL     1       3.630   0.111   6.270  0.00  0.00    +0.109 C 
ATOM     32  C   UNL     1       3.419  -1.157   7.102  0.00  0.00    +0.041 C 
ATOM     33  C   UNL     1       1.978  -1.642   6.929  0.00  0.00    +0.076 C 
ATOM     34  C   UNL     1       1.726  -1.982   5.458  0.00  0.00    +0.041 C 
ATOM     35  C   UNL     1       1.916  -0.718   4.606  0.00  0.00    +0.109 C 
BRANCH  28  36
ATOM     36  C   UNL     1       5.475   0.645   4.164  0.00  0.00    +0.099 C 
BRANCH  36  38
ATOM     37  C   UNL     1       5.544   1.891   1.999  0.00  0.00    +0.008 C 
ATOM     38  C   UNL     1       6.243   0.832   2.854  0.00  0.00    -0.008 C 
ATOM     39  C   UNL     1       7.672   1.287   3.161  0.00  0.00    +0.008 C 
ENDBRANCH  36  38
ENDBRANCH  28  36
ENDBRANCH  24  33
ENDBRANCH   1  25
TORSDOF 5
