REMARK  Name = ZINC05501083
REMARK  9 active torsions:
REMARK  status: ('A' for Active; 'I' for Inactive)
REMARK    1  A    between atoms: C_1  and  C_2
REMARK    2  A    between atoms: C_2  and  C_3
REMARK    3  A    between atoms: C_2  and  C_4
REMARK    4  A    between atoms: C_4  and  C_6
REMARK    5  A    between atoms: C_4  and  S_10
REMARK    6  A    between atoms: N_8  and  N_9
REMARK    7  A    between atoms: S_10  and  C_11
REMARK    8  A    between atoms: C_14  and  C_23
REMARK    9  A    between atoms: C_15  and  C_17
REMARK                            x       y       z     vdW  Elec       q    Type
REMARK                         _______ _______ _______ _____ _____    ______ ____
ROOT
ATOM      1  C   UNL     1      -1.099   1.756   0.206  0.00  0.00    +0.168 A 
ATOM      2  N   UNL     1      -0.025   0.970  -0.083  0.00  0.00    -0.332 N 
ATOM      3  H   UNL     1      -0.023  -0.027  -0.162  0.00  0.00    +0.168 HD
ATOM      4  C   UNL     1       1.062   1.808  -0.246  0.00  0.00    +0.075 A 
ATOM      5  C   UNL     1       0.596   3.092  -0.041  0.00  0.00    +0.098 A 
ATOM      6  N   UNL     1      -0.721   3.011   0.233  0.00  0.00    -0.221 NA
ENDROOT
BRANCH   5   7
ATOM      7  C   UNL     1       1.400   4.334  -0.110  0.00  0.00    +0.002 A 
ATOM      8  C   UNL     1       2.668   4.381   0.470  0.00  0.00    +0.010 A 
ATOM      9  C   UNL     1       3.414   5.540   0.398  0.00  0.00    +0.001 A 
ATOM     10  C   UNL     1       2.902   6.657  -0.238  0.00  0.00    +0.000 A 
ATOM     11  C   UNL     1       1.643   6.618  -0.810  0.00  0.00    +0.001 A 
ATOM     12  C   UNL     1       0.889   5.464  -0.749  0.00  0.00    +0.010 A 
ENDBRANCH   5   7
BRANCH   4  13
ATOM     13  C   UNL     1       2.445   1.411  -0.574  0.00  0.00    +0.000 A 
ATOM     14  C   UNL     1       3.145   2.075  -1.584  0.00  0.00    +0.010 A 
ATOM     15  C   UNL     1       4.439   1.703  -1.881  0.00  0.00    +0.001 A 
ATOM     16  C   UNL     1       5.040   0.664  -1.190  0.00  0.00    +0.000 A 
ATOM     17  C   UNL     1       4.350  -0.003  -0.193  0.00  0.00    +0.001 A 
ATOM     18  C   UNL     1       3.057   0.364   0.119  0.00  0.00    +0.010 A 
ENDBRANCH   4  13
BRANCH   1  19
ATOM     19  S   UNL     1      -2.737   1.177   0.500  0.00  0.00    -0.075 S 
BRANCH  19  20
ATOM     20  C   UNL     1      -3.577   2.752   0.804  0.00  0.00    +0.144 C 
BRANCH  20  21
ATOM     21  C   UNL     1      -5.005   2.490   1.207  0.00  0.00    +0.240 C 
ATOM     22  O   UNL     1      -5.525   1.426   0.942  0.00  0.00    -0.273 OA
ATOM     23  N   UNL     1      -5.705   3.437   1.862  0.00  0.00    -0.253 N 
ATOM     24  H   UNL     1      -5.289   4.287   2.074  0.00  0.00    +0.169 HD
BRANCH  23  25
ATOM     25  N   UNL     1      -7.000   3.200   2.227  0.00  0.00    -0.254 NA
ATOM     26  H   UNL     1      -7.069   2.367   2.792  0.00  0.00    +0.140 HD
ATOM     27  H   UNL     1      -7.392   3.996   2.707  0.00  0.00    +0.140 HD
ENDBRANCH  23  25
ENDBRANCH  20  21
BRANCH  20  29
ATOM     28  C   UNL     1      -4.377   2.902  -1.558  0.00  0.00    +0.009 C 
ATOM     29  C   UNL     1      -3.554   3.596  -0.471  0.00  0.00    +0.005 C 
ATOM     30  C   UNL     1      -4.152   4.975  -0.181  0.00  0.00    +0.009 C 
ENDBRANCH  20  29
ENDBRANCH  19  20
ENDBRANCH   1  19
TORSDOF 7
