REMARK  Name = ZINC40008577
REMARK  10 active torsions:
REMARK  status: ('A' for Active; 'I' for Inactive)
REMARK    1  A    between atoms: C_1  and  C_2
REMARK    2  A    between atoms: C_2  and  N_3
REMARK    3  A    between atoms: N_3  and  C_4
REMARK    4  A    between atoms: N_3  and  C_6
REMARK    5  A    between atoms: C_4  and  C_5
REMARK    6  A    between atoms: C_6  and  C_7
REMARK    7  A    between atoms: C_7  and  C_8
REMARK    8  A    between atoms: C_8  and  N_9
REMARK    9  A    between atoms: C_10  and  C_26
REMARK   10  A    between atoms: C_29  and  N_32
REMARK                            x       y       z     vdW  Elec       q    Type
REMARK                         _______ _______ _______ _____ _____    ______ ____
ROOT
ATOM      1  N   UNL     1      -0.169  -3.893   3.441  0.00  0.00    -0.284 N 
ATOM      2  C   UNL     1       1.258  -4.179   3.667  0.00  0.00    +0.144 C 
ATOM      3  C   UNL     1       1.412  -4.343   5.143  0.00  0.00    +0.072 A 
ATOM      4  C   UNL     1       2.589  -4.647   5.964  0.00  0.00    +0.199 A 
ATOM      5  O   UNL     1       3.726  -4.648   5.525  0.00  0.00    -0.287 OA
ATOM      6  C   UNL     1       2.263  -4.952   7.380  0.00  0.00    +0.065 A 
ATOM      7  C   UNL     1       3.243  -5.452   8.237  0.00  0.00    +0.030 A 
ATOM      8  C   UNL     1       2.922  -5.735   9.547  0.00  0.00    +0.019 A 
ATOM      9  C   UNL     1       1.629  -5.522  10.007  0.00  0.00    +0.019 A 
ATOM     10  C   UNL     1       0.655  -5.027   9.171  0.00  0.00    +0.048 A 
ATOM     11  C   UNL     1       0.956  -4.731   7.841  0.00  0.00    +0.140 A 
ATOM     12  O   UNL     1      -0.018  -4.236   7.043  0.00  0.00    -0.450 OA
ATOM     13  C   UNL     1       0.184  -4.160   5.713  0.00  0.00    +0.199 A 
ATOM     14  C   UNL     1      -0.786  -3.878   4.640  0.00  0.00    +0.283 C 
ATOM     15  O   UNL     1      -1.970  -3.667   4.811  0.00  0.00    -0.267 OA
ATOM     16 BR   UNL     1       4.242  -6.414  10.718  0.00  0.00    -0.050 Br
ENDROOT
BRANCH   2  17
ATOM     17  C   UNL     1       1.651  -5.449   2.957  0.00  0.00    -0.022 A 
ATOM     18  C   UNL     1       0.790  -6.530   2.947  0.00  0.00    +0.008 A 
ATOM     19  C   UNL     1       1.151  -7.695   2.296  0.00  0.00    +0.033 A 
ATOM     20  C   UNL     1       2.373  -7.779   1.655  0.00  0.00    +0.126 A 
ATOM     21  C   UNL     1       3.234  -6.697   1.665  0.00  0.00    +0.033 A 
ATOM     22  C   UNL     1       2.871  -5.531   2.312  0.00  0.00    +0.008 A 
BRANCH  20  23
ATOM     23  N   UNL     1       2.760  -9.027   0.960  0.00  0.00    +0.056 N 
ATOM     24  O   UNL     1       2.007  -9.973   0.951  0.00  0.00    -0.126 OA
ATOM     25  O   UNL     1       3.829  -9.100   0.399  0.00  0.00    -0.126 OA
ENDBRANCH  20  23
ENDBRANCH   2  17
BRANCH   1  26
ATOM     26  C   UNL     1      -0.805  -3.658   2.143  0.00  0.00    +0.107 C 
BRANCH  26  27
ATOM     27  C   UNL     1      -0.756  -2.164   1.814  0.00  0.00    +0.000 C 
BRANCH  27  28
ATOM     28  C   UNL     1      -1.421  -1.919   0.458  0.00  0.00    -0.077 C 
BRANCH  28  29
ATOM     29  N   UNL     1      -1.374  -0.485   0.142  0.00  0.00    +0.379 N 
ATOM     30  H   UNL     1      -1.792   0.039   0.895  0.00  0.00    -0.082 HD
BRANCH  29  32
ATOM     31  C   UNL     1       0.082   1.451  -0.216  0.00  0.00    -0.017 C 
ATOM     32  C   UNL     1       0.024  -0.066  -0.029  0.00  0.00    -0.082 C 
ENDBRANCH  29  32
BRANCH  29  33
ATOM     33  C   UNL     1      -2.116  -0.233  -1.101  0.00  0.00    -0.082 C 
ATOM     34  C   UNL     1      -3.600  -0.533  -0.879  0.00  0.00    -0.017 C 
ENDBRANCH  29  33
ENDBRANCH  28  29
ENDBRANCH  27  28
ENDBRANCH  26  27
ENDBRANCH   1  26
TORSDOF 8
