REMARK  Name = ZINC65322944
REMARK  7 active torsions:
REMARK  status: ('A' for Active; 'I' for Inactive)
REMARK    1  A    between atoms: C_1  and  C_2
REMARK    2  A    between atoms: C_5  and  C_8
REMARK    3  A    between atoms: C_8  and  N_9
REMARK    4  A    between atoms: C_16  and  C_20
REMARK    5  A    between atoms: C_20  and  N_21
REMARK    6  A    between atoms: N_21  and  C_22
REMARK    7  A    between atoms: C_25  and  C_29
REMARK                            x       y       z     vdW  Elec       q    Type
REMARK                         _______ _______ _______ _____ _____    ______ ____
ROOT
ATOM      1  N   UNL     1       1.447  -4.746  -0.032  0.00  0.00    -0.308 N 
ATOM      2  C   UNL     1       1.719  -6.112  -0.041  0.00  0.00    +0.237 A 
ATOM      3  N   UNL     1       2.922  -6.647  -0.045  0.00  0.00    -0.125 NA
ATOM      4  N   UNL     1       2.751  -8.038  -0.053  0.00  0.00    -0.158 N 
ATOM      5  C   UNL     1       3.622  -9.085  -0.060  0.00  0.00    +0.276 A 
ATOM      6  O   UNL     1       4.957  -8.869  -0.059  0.00  0.00    -0.266 OA
ATOM      7  C   UNL     1       3.123 -10.360  -0.067  0.00  0.00    +0.097 A 
ATOM      8  C   UNL     1       1.743 -10.549  -0.067  0.00  0.00    +0.067 A 
ATOM      9  N   UNL     1       0.929  -9.515  -0.061  0.00  0.00    -0.214 NA
ATOM     10  C   UNL     1       1.403  -8.264  -0.053  0.00  0.00    +0.258 A 
ATOM     11  N   UNL     1       0.803  -7.078  -0.040  0.00  0.00    -0.176 NA
ATOM     12  H   UNL     1       2.176  -4.106  -0.032  0.00  0.00    +0.149 HD
ENDROOT
BRANCH   1  13
ATOM     13  C   UNL     1       0.059  -4.275  -0.021  0.00  0.00    +0.139 C 
BRANCH  13  18
ATOM     14  C   UNL     1      -0.018   1.503   0.010  0.00  0.00    +0.044 C 
ATOM     15  C   UNL     1       0.002  -0.004   0.002  0.00  0.00    -0.050 A 
ATOM     16  C   UNL     1       0.006  -0.689  -1.199  0.00  0.00    +0.003 A 
ATOM     17  C   UNL     1       0.025  -2.071  -1.206  0.00  0.00    +0.005 A 
ATOM     18  C   UNL     1       0.040  -2.768  -0.013  0.00  0.00    -0.030 A 
ATOM     19  C   UNL     1       0.037  -2.084   1.188  0.00  0.00    +0.005 A 
ATOM     20  C   UNL     1       0.023  -0.702   1.195  0.00  0.00    +0.003 A 
ENDBRANCH  13  18
ENDBRANCH   1  13
BRANCH   8  21
ATOM     21  C   UNL     1       1.178 -11.947  -0.074  0.00  0.00    +0.157 C 
BRANCH  21  22
ATOM     22  N   UNL     1      -0.285 -11.882  -0.073  0.00  0.00    -0.338 N 
ATOM     23  H   UNL     1      -0.733 -11.022  -0.067  0.00  0.00    +0.146 HD
BRANCH  22  24
ATOM     24  C   UNL     1      -1.036 -13.060  -0.079  0.00  0.00    +0.029 A 
ATOM     25  C   UNL     1      -0.397 -14.293  -0.081  0.00  0.00    +0.023 A 
ATOM     26  C   UNL     1      -1.141 -15.456  -0.086  0.00  0.00    +0.006 A 
ATOM     27  C   UNL     1      -2.523 -15.395  -0.090  0.00  0.00    -0.032 A 
ATOM     28  C   UNL     1      -3.164 -14.168  -0.089  0.00  0.00    +0.046 A 
ATOM     29  C   UNL     1      -2.424 -13.000  -0.077  0.00  0.00    +0.043 A 
ATOM     30 CL   UNL     1      -4.898 -14.095  -0.095  0.00  0.00    -0.083 Cl
ATOM     31  C   UNL     1      -3.332 -16.666  -0.098  0.00  0.00    +0.045 C 
ENDBRANCH  22  24
ENDBRANCH  21  22
ENDBRANCH   8  21
TORSDOF 5
