REMARK  Name = ZINC36660386
REMARK  12 active torsions:
REMARK  status: ('A' for Active; 'I' for Inactive)
REMARK    1  A    between atoms: C_1  and  C_2
REMARK    2  A    between atoms: C_2  and  N_3
REMARK    3  A    between atoms: C_9  and  N_16
REMARK    4  A    between atoms: C_10  and  C_11
REMARK    5  A    between atoms: C_11  and  O_13
REMARK    6  A    between atoms: O_13  and  C_14
REMARK    7  A    between atoms: C_14  and  C_15
REMARK    8  A    between atoms: C_17  and  C_19
REMARK    9  A    between atoms: N_24  and  S_25
REMARK   10  A    between atoms: S_25  and  C_28
REMARK   11  A    between atoms: C_31  and  O_34
REMARK   12  A    between atoms: O_34  and  C_35
REMARK                            x       y       z     vdW  Elec       q    Type
REMARK                         _______ _______ _______ _____ _____    ______ ____
ROOT
ATOM      1  N   UNL     1      -6.724  -1.502  -2.409  0.00  0.00    -0.278 N 
ATOM      2  C   UNL     1      -7.365  -1.133  -3.536  0.00  0.00    +0.236 C 
ATOM      3  O   UNL     1      -6.777  -0.504  -4.390  0.00  0.00    -0.274 OA
ATOM      4  H   UNL     1      -7.194  -2.005  -1.726  0.00  0.00    +0.155 HD
ENDROOT
BRANCH   1  11
ATOM      5  N   UNL     1      -0.779   0.384  -1.413  0.00  0.00    +0.383 N 
ATOM      6  C   UNL     1      -0.783  -0.922  -0.742  0.00  0.00    -0.074 C 
ATOM      7  C   UNL     1      -2.156  -1.192  -0.117  0.00  0.00    +0.018 C 
ATOM      8  C   UNL     1      -3.210  -0.980  -1.195  0.00  0.00    -0.025 A 
ATOM      9  C   UNL     1      -2.901  -0.300  -2.323  0.00  0.00    -0.021 A 
ATOM     10  S   UNL     1      -4.394  -0.303  -3.269  0.00  0.00    -0.079 S 
ATOM     11  C   UNL     1      -5.392  -1.163  -2.227  0.00  0.00    +0.086 A 
ATOM     12  C   UNL     1      -4.579  -1.454  -1.140  0.00  0.00    +0.091 A 
ATOM     13  C   UNL     1      -1.574   0.307  -2.652  0.00  0.00    -0.035 C 
ATOM     14  H   UNL     1      -1.181   1.077  -0.799  0.00  0.00    -0.081 HD
BRANCH   5  16
ATOM     15  C   UNL     1       0.620   2.177  -2.321  0.00  0.00    -0.017 C 
ATOM     16  C   UNL     1       0.602   0.762  -1.740  0.00  0.00    -0.082 C 
ENDBRANCH   5  16
BRANCH  12  17
ATOM     17  C   UNL     1      -5.081  -2.208   0.010  0.00  0.00    +0.342 C 
ATOM     18  O   UNL     1      -5.583  -1.621   0.950  0.00  0.00    -0.245 OA
BRANCH  17  19
ATOM     19  O   UNL     1      -4.987  -3.554   0.028  0.00  0.00    -0.461 OA
BRANCH  19  20
ATOM     20  C   UNL     1      -5.497  -4.224   1.182  0.00  0.00    +0.229 C 
ATOM     21  C   UNL     1      -5.304  -5.734   1.022  0.00  0.00    +0.048 C 
ENDBRANCH  19  20
ENDBRANCH  17  19
ENDBRANCH  12  17
ENDBRANCH   1  11
BRANCH   2  22
ATOM     22  C   UNL     1      -8.812  -1.502  -3.735  0.00  0.00    +0.166 C 
ATOM     23  C   UNL     1      -8.913  -2.888  -4.407  0.00  0.00    +0.031 C 
ATOM     24  C   UNL     1     -10.107  -2.715  -5.383  0.00  0.00    +0.019 C 
ATOM     25  C   UNL     1      -9.927  -1.244  -5.836  0.00  0.00    +0.110 C 
ATOM     26  N   UNL     1      -9.458  -0.531  -4.630  0.00  0.00    -0.165 NA
BRANCH  26  27
ATOM     27  S   UNL     1      -9.628   1.089  -4.335  0.00  0.00    +0.062 S 
ATOM     28  O   UNL     1      -8.696   1.416  -3.313  0.00  0.00    -0.153 OA
ATOM     29  O   UNL     1      -9.629   1.735  -5.600  0.00  0.00    -0.153 OA
BRANCH  27  30
ATOM     30  C   UNL     1     -11.233   1.327  -3.647  0.00  0.00    +0.106 A 
ATOM     31  C   UNL     1     -12.325   1.484  -4.480  0.00  0.00    +0.032 A 
ATOM     32  C   UNL     1     -13.584   1.671  -3.943  0.00  0.00    +0.047 A 
ATOM     33  C   UNL     1     -13.752   1.701  -2.567  0.00  0.00    +0.120 A 
ATOM     34  C   UNL     1     -12.655   1.543  -1.732  0.00  0.00    +0.047 A 
ATOM     35  C   UNL     1     -11.399   1.351  -2.274  0.00  0.00    +0.032 A 
BRANCH  33  36
ATOM     36  O   UNL     1     -14.990   1.885  -2.036  0.00  0.00    -0.495 OA
ATOM     37  C   UNL     1     -15.088   1.905  -0.611  0.00  0.00    +0.277 C 
ENDBRANCH  33  36
ENDBRANCH  27  30
ENDBRANCH  26  27
ENDBRANCH   2  22
TORSDOF 9
