REMARK  Name = ZINC57989421
REMARK  9 active torsions:
REMARK  status: ('A' for Active; 'I' for Inactive)
REMARK    1  A    between atoms: C_1  and  O_2
REMARK    2  A    between atoms: O_2  and  C_3
REMARK    3  A    between atoms: C_6  and  C_9
REMARK    4  A    between atoms: C_9  and  C_11
REMARK    5  A    between atoms: C_9  and  C_20
REMARK    6  A    between atoms: C_11  and  C_12
REMARK    7  A    between atoms: C_15  and  O_19
REMARK    8  A    between atoms: C_16  and  N_18
REMARK    9  A    between atoms: C_20  and  N_21
REMARK                            x       y       z     vdW  Elec       q    Type
REMARK                         _______ _______ _______ _____ _____    ______ ____
ROOT
ATOM      1  C   UNL     1      -5.204  -2.554   0.013  0.00  0.00    +0.006 C 
ENDROOT
BRANCH   1   5
ATOM      2  C   UNL     1      -1.433  -0.662  -0.667  0.00  0.00    +0.120 A 
ATOM      3  C   UNL     1      -2.576   0.106  -0.501  0.00  0.00    +0.046 A 
ATOM      4  C   UNL     1      -3.794  -0.507  -0.281  0.00  0.00    +0.007 A 
ATOM      5  C   UNL     1      -3.874  -1.887  -0.227  0.00  0.00    -0.046 A 
ATOM      6  C   UNL     1      -2.737  -2.655  -0.392  0.00  0.00    +0.007 A 
ATOM      7  C   UNL     1      -1.518  -2.046  -0.618  0.00  0.00    +0.046 A 
BRANCH   2   9
ATOM      8  C   UNL     1      -0.222   1.367  -0.922  0.00  0.00    +0.277 C 
ATOM      9  O   UNL     1      -0.234  -0.061  -0.884  0.00  0.00    -0.495 OA
ENDBRANCH   2   9
ENDBRANCH   1   5
BRANCH   1  10
ATOM     10  C   UNL     1      -5.132  -3.389   1.293  0.00  0.00    +0.041 C 
BRANCH  10  11
ATOM     11  C   UNL     1      -4.931  -2.478   2.477  0.00  0.00    -0.045 A 
ATOM     12  C   UNL     1      -3.657  -2.251   2.963  0.00  0.00    +0.007 A 
ATOM     13  C   UNL     1      -3.466  -1.416   4.049  0.00  0.00    +0.047 A 
ATOM     14  C   UNL     1      -4.553  -0.805   4.653  0.00  0.00    +0.137 A 
ATOM     15  C   UNL     1      -5.837  -1.034   4.163  0.00  0.00    +0.067 A 
ATOM     16  C   UNL     1      -6.020  -1.869   3.070  0.00  0.00    +0.030 A 
BRANCH  15  17
ATOM     17  N   UNL     1      -6.939  -0.420   4.770  0.00  0.00    -0.355 N 
ATOM     18  H   UNL     1      -6.809   0.166   5.532  0.00  0.00    +0.142 HD
ATOM     19  H   UNL     1      -7.833  -0.580   4.428  0.00  0.00    +0.142 HD
ENDBRANCH  15  17
BRANCH  14  20
ATOM     20  O   UNL     1      -4.367   0.016   5.721  0.00  0.00    -0.505 OA
ATOM     21  H   UNL     1      -4.228   0.943   5.485  0.00  0.00    +0.292 HD
ENDBRANCH  14  20
ENDBRANCH  10  11
ENDBRANCH   1  10
BRANCH   1  22
ATOM     22  C   UNL     1      -5.540  -3.462  -1.171  0.00  0.00    -0.078 C 
BRANCH  22  23
ATOM     23  N   UNL     1      -6.876  -4.042  -0.979  0.00  0.00    +0.379 N 
ATOM     24  H   UNL     1      -7.147  -4.545  -1.811  0.00  0.00    -0.090 HD
ATOM     25  H   UNL     1      -6.858  -4.676  -0.194  0.00  0.00    -0.090 HD
ATOM     26  H   UNL     1      -7.541  -3.304  -0.800  0.00  0.00    -0.090 HD
ENDBRANCH  22  23
ENDBRANCH   1  22
TORSDOF 8
