REMARK  Name = ZINC46816356
REMARK  9 active torsions:
REMARK  status: ('A' for Active; 'I' for Inactive)
REMARK    1  A    between atoms: C_1  and  C_2
REMARK    2  A    between atoms: N_7  and  C_9
REMARK    3  A    between atoms: C_9  and  C_10
REMARK    4  A    between atoms: C_13  and  C_16
REMARK    5  A    between atoms: C_16  and  N_17
REMARK    6  A    between atoms: C_18  and  C_20
REMARK    7  A    between atoms: C_20  and  N_21
REMARK    8  A    between atoms: C_22  and  C_24
REMARK    9  A    between atoms: C_24  and  C_25
REMARK                            x       y       z     vdW  Elec       q    Type
REMARK                         _______ _______ _______ _____ _____    ______ ____
ROOT
ATOM      1  N   UNL     1       0.361  -8.720   1.492  0.00  0.00    -0.310 N 
ATOM      2  C   UNL     1       0.161 -10.043   1.328  0.00  0.00    +0.230 C 
ATOM      3  O   UNL     1       0.559 -10.825   2.165  0.00  0.00    -0.274 OA
ATOM      4  H   UNL     1       0.043  -8.094   0.823  0.00  0.00    +0.149 HD
ENDROOT
BRANCH   1   5
ATOM      5  C   UNL     1       1.060  -8.227   2.682  0.00  0.00    +0.139 C 
BRANCH   5   9
ATOM      6  C   UNL     1       1.321  -3.966   2.518  0.00  0.00    -0.064 A 
ATOM      7  C   UNL     1       0.233  -4.569   3.122  0.00  0.00    +0.002 A 
ATOM      8  C   UNL     1       0.149  -5.948   3.174  0.00  0.00    +0.005 A 
ATOM      9  C   UNL     1       1.151  -6.724   2.623  0.00  0.00    -0.030 A 
ATOM     10  C   UNL     1       2.239  -6.121   2.019  0.00  0.00    +0.005 A 
ATOM     11  C   UNL     1       2.321  -4.742   1.963  0.00  0.00    +0.002 A 
BRANCH   6  12
ATOM     12  C   UNL     1       1.413  -2.463   2.461  0.00  0.00    -0.043 C 
BRANCH  12  18
ATOM     13  C   UNL     1      -0.019   1.526   0.010  0.00  0.00    +0.005 C 
ATOM     14  C   UNL     1       0.002  -0.004   0.002  0.00  0.00    -0.031 C 
ATOM     15  C   UNL     1       0.721  -0.499  -1.257  0.00  0.00    -0.001 C 
ATOM     16  C   UNL     1       0.805  -2.027  -1.217  0.00  0.00    -0.018 C 
ATOM     17  C   UNL     1       1.518  -2.460   0.066  0.00  0.00    -0.078 C 
ATOM     18  N   UNL     1       0.768  -1.979   1.233  0.00  0.00    +0.383 N 
ATOM     19  C   UNL     1       0.744  -0.512   1.240  0.00  0.00    -0.075 C 
ATOM     20  H   UNL     1      -0.177  -2.330   1.192  0.00  0.00    -0.081 HD
ENDBRANCH  12  18
ENDBRANCH   6  12
ENDBRANCH   5   9
ENDBRANCH   1   5
BRANCH   2  21
ATOM     21  C   UNL     1      -0.557 -10.550   0.104  0.00  0.00    +0.200 C 
BRANCH  21  22
ATOM     22  N   UNL     1      -0.647 -12.011   0.161  0.00  0.00    -0.306 N 
ATOM     23  C   UNL     1      -1.253 -12.688  -0.834  0.00  0.00    +0.218 C 
ATOM     24  O   UNL     1      -1.724 -12.088  -1.777  0.00  0.00    -0.275 OA
ATOM     25  H   UNL     1      -0.270 -12.491   0.915  0.00  0.00    +0.149 HD
BRANCH  23  26
ATOM     26  C   UNL     1      -1.345 -14.191  -0.776  0.00  0.00    +0.131 C 
BRANCH  26  27
ATOM     27  C   UNL     1      -2.063 -14.698  -2.000  0.00  0.00    -0.031 A 
ATOM     28  C   UNL     1      -3.403 -14.935  -1.958  0.00  0.00    +0.005 A 
ATOM     29  C   UNL     1      -4.084 -15.404  -3.079  0.00  0.00    +0.001 A 
ATOM     30  C   UNL     1      -3.429 -15.640  -4.249  0.00  0.00    +0.008 A 
ATOM     31  C   UNL     1      -2.046 -15.407  -4.331  0.00  0.00    -0.018 A 
ATOM     32  C   UNL     1      -1.354 -14.924  -3.192  0.00  0.00    -0.014 A 
ATOM     33  C   UNL     1       0.028 -14.686  -3.275  0.00  0.00    +0.009 A 
ATOM     34  C   UNL     1       0.681 -14.916  -4.447  0.00  0.00    +0.001 A 
ATOM     35  C   UNL     1      -0.000 -15.384  -5.569  0.00  0.00    +0.001 A 
ATOM     36  C   UNL     1      -1.336 -15.639  -5.521  0.00  0.00    +0.008 A 
ENDBRANCH  26  27
ENDBRANCH  23  26
ENDBRANCH  21  22
ENDBRANCH   2  21
TORSDOF 8
