REMARK  Name = ZINC14854284
REMARK  5 active torsions:
REMARK  status: ('A' for Active; 'I' for Inactive)
REMARK    1  A    between atoms: C_1  and  N_2
REMARK    2  A    between atoms: C_10  and  C_11
REMARK    3  A    between atoms: C_11  and  C_12
REMARK    4  A    between atoms: N_14  and  N_15
REMARK    5  A    between atoms: C_16  and  C_18
REMARK                            x       y       z     vdW  Elec       q    Type
REMARK                         _______ _______ _______ _____ _____    ______ ____
ROOT
ATOM      1  C   UNL     1      -2.392   0.960   0.019  0.00  0.00    +0.236 C 
ATOM      2  O   UNL     1      -2.375  -0.253   0.012  0.00  0.00    -0.274 OA
ATOM      3  N   UNL     1      -1.234   1.650   0.017  0.00  0.00    -0.234 N 
ATOM      4  H   UNL     1      -1.247   2.620   0.022  0.00  0.00    +0.173 HD
ENDROOT
BRANCH   3   5
ATOM      5  N   UNL     1      -0.011   0.966   0.007  0.00  0.00    -0.228 N 
ATOM      6  C   UNL     1       1.147   1.655   0.000  0.00  0.00    +0.295 C 
ATOM      7  O   UNL     1       1.130   2.872   0.007  0.00  0.00    -0.265 OA
ATOM      8  H   UNL     1       0.002  -0.004   0.002  0.00  0.00    +0.173 HD
BRANCH   6   9
ATOM      9  C   UNL     1       2.429   0.938  -0.016  0.00  0.00    +0.192 A 
ATOM     10  C   UNL     1       3.654   1.526  -0.025  0.00  0.00    +0.063 A 
ATOM     11  C   UNL     1       4.627   0.434  -0.039  0.00  0.00    +0.022 A 
ATOM     12  C   UNL     1       6.023   0.375  -0.053  0.00  0.00    +0.031 A 
ATOM     13  C   UNL     1       6.649  -0.841  -0.063  0.00  0.00    +0.042 A 
ATOM     14  C   UNL     1       5.906  -2.015  -0.063  0.00  0.00    +0.023 A 
ATOM     15  C   UNL     1       4.529  -1.976  -0.050  0.00  0.00    +0.048 A 
ATOM     16  C   UNL     1       3.870  -0.752  -0.038  0.00  0.00    +0.136 A 
ATOM     17  O   UNL     1       2.568  -0.404  -0.019  0.00  0.00    -0.450 OA
ATOM     18 CL   UNL     1       8.383  -0.917  -0.079  0.00  0.00    -0.084 Cl
ENDBRANCH   6   9
ENDBRANCH   3   5
BRANCH   1  19
ATOM     19  C   UNL     1      -3.707   1.696   0.029  0.00  0.00    +0.171 C 
BRANCH  19  29
ATOM     20  C   UNL     1      -5.059   0.482   2.531  0.00  0.00    +0.150 C 
ATOM     21  N   UNL     1      -5.419   0.180   1.144  0.00  0.00    -0.330 N 
ATOM     22  C   UNL     1      -6.410  -0.685   0.725  0.00  0.00    +0.069 A 
ATOM     23  C   UNL     1      -7.326  -1.496   1.381  0.00  0.00    +0.028 A 
ATOM     24  C   UNL     1      -8.207  -2.262   0.649  0.00  0.00    +0.002 A 
ATOM     25  C   UNL     1      -8.184  -2.228  -0.738  0.00  0.00    +0.002 A 
ATOM     26  C   UNL     1      -7.290  -1.436  -1.401  0.00  0.00    +0.030 A 
ATOM     27  C   UNL     1      -6.387  -0.651  -0.679  0.00  0.00    +0.089 A 
ATOM     28  N   UNL     1      -5.408   0.219  -1.038  0.00  0.00    -0.232 NA
ATOM     29  C   UNL     1      -4.839   0.701   0.029  0.00  0.00    +0.119 A 
ENDBRANCH  19  29
ENDBRANCH   1  19
TORSDOF 4
