REMARK  Name = ZINC30251415
REMARK  7 active torsions:
REMARK  status: ('A' for Active; 'I' for Inactive)
REMARK    1  A    between atoms: C_5  and  C_7
REMARK    2  A    between atoms: C_7  and  C_9
REMARK    3  A    between atoms: C_7  and  N_25
REMARK    4  A    between atoms: C_9  and  C_10
REMARK    5  A    between atoms: N_12  and  C_13
REMARK    6  A    between atoms: C_17  and  O_19
REMARK    7  A    between atoms: O_19  and  C_20
REMARK                            x       y       z     vdW  Elec       q    Type
REMARK                         _______ _______ _______ _____ _____    ______ ____
ROOT
ATOM      1  C   UNL     1      -2.398  -2.650  -0.192  0.00  0.00    +0.123 C 
ENDROOT
BRANCH   1   2
ATOM      2  C   UNL     1      -1.008  -2.076  -0.094  0.00  0.00    +0.219 C 
ATOM      3  O   UNL     1      -0.050  -2.817  -0.024  0.00  0.00    -0.275 OA
ATOM      4  N   UNL     1      -0.829  -0.741  -0.084  0.00  0.00    -0.285 N 
ATOM      5  H   UNL     1      -1.700  -0.069  -0.065  0.00  0.00    +0.155 HD
BRANCH   4   6
ATOM      6  C   UNL     1       0.464  -0.208  -0.098  0.00  0.00    +0.037 A 
ATOM      7  C   UNL     1       0.738   0.973   0.582  0.00  0.00    +0.023 A 
ATOM      8  C   UNL     1       2.015   1.499   0.569  0.00  0.00    +0.005 A 
ATOM      9  C   UNL     1       3.024   0.853  -0.120  0.00  0.00    +0.046 A 
ATOM     10  C   UNL     1       2.757  -0.326  -0.801  0.00  0.00    +0.123 A 
ATOM     11  C   UNL     1       1.476  -0.857  -0.790  0.00  0.00    +0.069 A 
BRANCH  10  12
ATOM     12  O   UNL     1       3.750  -0.960  -1.479  0.00  0.00    -0.489 OA
BRANCH  12  13
ATOM     13  C   UNL     1       5.068  -0.423  -1.351  0.00  0.00    +0.173 C 
ATOM     14  C   UNL     1       5.290   0.685  -2.401  0.00  0.00    +0.044 C 
ATOM     15  C   UNL     1       6.767   0.505  -2.835  0.00  0.00    +0.004 C 
ATOM     16  C   UNL     1       6.934  -1.035  -2.849  0.00  0.00    +0.004 C 
ATOM     17  C   UNL     1       6.112  -1.516  -1.636  0.00  0.00    +0.044 C 
ENDBRANCH  12  13
ENDBRANCH  10  12
ENDBRANCH   4   6
ENDBRANCH   1   2
BRANCH   1  18
ATOM     18  C   UNL     1      -2.321  -4.178  -0.183  0.00  0.00    +0.115 C 
BRANCH  18  23
ATOM     19  C   UNL     1      -6.073  -4.471  -0.476  0.00  0.00    +0.000 A 
ATOM     20  C   UNL     1      -6.221  -5.805  -0.810  0.00  0.00    +0.001 A 
ATOM     21  C   UNL     1      -5.108  -6.612  -0.941  0.00  0.00    +0.020 A 
ATOM     22  C   UNL     1      -3.844  -6.085  -0.743  0.00  0.00    +0.046 A 
ATOM     23  C   UNL     1      -3.696  -4.752  -0.404  0.00  0.00    -0.008 A 
ATOM     24  C   UNL     1      -4.811  -3.945  -0.274  0.00  0.00    +0.007 A 
ATOM     25 CL   UNL     1      -2.444  -7.097  -0.914  0.00  0.00    -0.083 Cl
ENDBRANCH  18  23
BRANCH  18  26
ATOM     26  N   UNL     1      -1.804  -4.634   1.110  0.00  0.00    -0.292 N 
ATOM     27  C   UNL     1      -2.462  -4.325   2.245  0.00  0.00    +0.298 C 
ATOM     28  O   UNL     1      -3.529  -3.746   2.191  0.00  0.00    -0.253 OA
ATOM     29  N   UNL     1      -1.935  -4.658   3.441  0.00  0.00    -0.313 N 
ATOM     30  H   UNL     1      -0.879  -5.227   1.154  0.00  0.00    +0.151 HD
ATOM     31  H   UNL     1      -2.472  -4.406   4.367  0.00  0.00    +0.146 HD
ATOM     32  H   UNL     1      -0.969  -5.181   3.490  0.00  0.00    +0.146 HD
ENDBRANCH  18  26
ENDBRANCH   1  18
TORSDOF 7
