REMARK  Name = ZINC09314685
REMARK  6 active torsions:
REMARK  status: ('A' for Active; 'I' for Inactive)
REMARK    1  A    between atoms: C_4  and  C_7
REMARK    2  A    between atoms: C_7  and  S_8
REMARK    3  A    between atoms: S_8  and  N_11
REMARK    4  A    between atoms: C_16  and  C_17
REMARK    5  A    between atoms: C_16  and  N_61
REMARK    6  A    between atoms: N_19  and  N_20
REMARK                            x       y       z     vdW  Elec       q    Type
REMARK                         _______ _______ _______ _____ _____    ______ ____
ROOT
ATOM      1  C   UNL     1      -0.018   1.503   0.010  0.00  0.00    +0.020 C 
ENDROOT
BRANCH   1   7
ATOM      2  N   UNL     1       3.620   3.463   0.740  0.00  0.00    -0.184 NA
ATOM      3  C   UNL     1       2.834   3.922  -0.415  0.00  0.00    +0.090 C 
ATOM      4  C   UNL     1       1.384   3.462  -0.231  0.00  0.00    -0.061 C 
ATOM      5  C   UNL     1       2.061   1.657   1.241  0.00  0.00    -0.061 C 
ATOM      6  C   UNL     1       3.539   2.044   1.117  0.00  0.00    +0.090 C 
ATOM      7  N   UNL     1       1.374   1.997  -0.024  0.00  0.00    +0.387 N 
ATOM      8  H   UNL     1       1.868   1.547  -0.803  0.00  0.00    -0.081 HD
BRANCH   2   9
ATOM      9  S   UNL     1       4.573   4.516   1.593  0.00  0.00    +0.036 S 
ATOM     10  O   UNL     1       5.589   3.704   2.164  0.00  0.00    -0.158 OA
ATOM     11  O   UNL     1       4.901   5.541   0.665  0.00  0.00    -0.158 OA
BRANCH   9  12
ATOM     12  C   UNL     1       3.493   5.172   2.894  0.00  0.00    +0.220 C 
BRANCH  12  16
ATOM     13  C   UNL     1       5.679   7.949   5.293  0.00  0.00    +0.000 A 
ATOM     14  C   UNL     1       4.992   8.391   4.178  0.00  0.00    +0.000 A 
ATOM     15  C   UNL     1       4.284   7.492   3.401  0.00  0.00    +0.005 A 
ATOM     16  C   UNL     1       4.264   6.152   3.740  0.00  0.00    -0.025 A 
ATOM     17  C   UNL     1       4.947   5.712   4.858  0.00  0.00    +0.005 A 
ATOM     18  C   UNL     1       5.659   6.609   5.631  0.00  0.00    +0.000 A 
ENDBRANCH  12  16
ENDBRANCH   9  12
ENDBRANCH   2   9
ENDBRANCH   1   7
BRANCH   1  19
ATOM     19  C   UNL     1       0.002  -0.004   0.002  0.00  0.00    +0.213 C 
ATOM     20  O   UNL     1       1.060  -0.596  -0.011  0.00  0.00    -0.276 OA
ATOM     21  N   UNL     1      -1.156  -0.694   0.009  0.00  0.00    -0.225 N 
ATOM     22  H   UNL     1      -2.002  -0.220   0.020  0.00  0.00    +0.173 HD
BRANCH  21  23
ATOM     23  N   UNL     1      -1.137  -2.095   0.002  0.00  0.00    -0.137 N 
ATOM     24  C   UNL     1      -1.405  -2.862   1.078  0.00  0.00    +0.263 C 
ATOM     25  O   UNL     1      -1.697  -2.487   2.193  0.00  0.00    -0.271 OA
ATOM     26  C   UNL     1      -1.265  -4.290   0.601  0.00  0.00    +0.114 C 
ATOM     27  C   UNL     1      -2.589  -5.031   0.746  0.00  0.00    +0.035 C 
ATOM     28  C   UNL     1      -2.434  -6.465   0.232  0.00  0.00    +0.003 C 
ATOM     29  C   UNL     1      -1.341  -7.177   1.032  0.00  0.00    +0.000 C 
ATOM     30  C   UNL     1      -0.014  -6.435   0.856  0.00  0.00    +0.003 C 
ATOM     31  C   UNL     1      -0.159  -5.002   1.373  0.00  0.00    +0.035 C 
ATOM     32  N   UNL     1      -0.901  -4.158  -0.816  0.00  0.00    -0.284 N 
ATOM     33  C   UNL     1      -0.856  -2.837  -1.076  0.00  0.00    +0.326 C 
ATOM     34  O   UNL     1      -0.587  -2.372  -2.166  0.00  0.00    -0.251 OA
ATOM     35  H   UNL     1      -0.731  -4.880  -1.441  0.00  0.00    +0.151 HD
ENDBRANCH  21  23
ENDBRANCH   1  19
TORSDOF 6
