REMARK  Name = ZINC39532694
REMARK  10 active torsions:
REMARK  status: ('A' for Active; 'I' for Inactive)
REMARK    1  A    between atoms: C_1  and  C_2
REMARK    2  A    between atoms: C_4  and  C_21
REMARK    3  A    between atoms: C_7  and  C_10
REMARK    4  A    between atoms: C_15  and  N_16
REMARK    5  A    between atoms: N_16  and  S_17
REMARK    6  A    between atoms: S_17  and  C_20
REMARK    7  A    between atoms: C_21  and  N_22
REMARK    8  A    between atoms: N_22  and  C_23
REMARK    9  A    between atoms: N_22  and  C_24
REMARK   10  A    between atoms: C_24  and  C_25
REMARK                            x       y       z     vdW  Elec       q    Type
REMARK                         _______ _______ _______ _____ _____    ______ ____
ROOT
ATOM      1  C   UNL     1       0.887   1.815   0.263  0.00  0.00    +0.039 C 
ATOM      2  C   UNL     1       0.725   0.305   0.081  0.00  0.00    +0.133 C 
ATOM      3  C   UNL     1      -0.759  -0.060  -0.142  0.00  0.00    +0.068 C 
ATOM      4  N   UNL     1      -0.953  -1.322   0.607  0.00  0.00    -0.284 NA
ATOM      5  C   UNL     1       0.366  -1.651   1.193  0.00  0.00    +0.220 C 
ATOM      6  O   UNL     1       1.073  -0.395   1.298  0.00  0.00    -0.353 OA
ATOM      7  H   UNL     1      -1.651  -1.212   1.327  0.00  0.00    +0.125 HD
ENDROOT
BRANCH   5   8
ATOM      8  C   UNL     1       0.191  -2.269   2.556  0.00  0.00    +0.018 A 
ATOM      9  C   UNL     1      -0.827  -1.840   3.384  0.00  0.00    +0.009 A 
ATOM     10  C   UNL     1      -0.988  -2.406   4.636  0.00  0.00    +0.001 A 
ATOM     11  C   UNL     1      -0.131  -3.405   5.061  0.00  0.00    +0.002 A 
ATOM     12  C   UNL     1       0.889  -3.839   4.238  0.00  0.00    +0.025 A 
ATOM     13  C   UNL     1       1.050  -3.276   2.978  0.00  0.00    +0.055 A 
BRANCH  13  14
ATOM     14  N   UNL     1       2.078  -3.716   2.141  0.00  0.00    -0.220 N 
ATOM     15  H   UNL     1       2.529  -3.089   1.555  0.00  0.00    +0.173 HD
BRANCH  14  16
ATOM     16  S   UNL     1       2.526  -5.311   2.149  0.00  0.00    +0.040 S 
ATOM     17  O   UNL     1       3.517  -5.414   1.135  0.00  0.00    -0.155 OA
ATOM     18  O   UNL     1       2.845  -5.591   3.505  0.00  0.00    -0.155 OA
ATOM     19  C   UNL     1       1.033  -6.217   1.658  0.00  0.00    +0.218 C 
ENDBRANCH  14  16
ENDBRANCH  13  14
ENDBRANCH   5   8
BRANCH   3  20
ATOM     20  C   UNL     1      -1.038  -0.272  -1.631  0.00  0.00    -0.057 C 
BRANCH  20  21
ATOM     21  N   UNL     1      -2.422  -0.733  -1.809  0.00  0.00    +0.382 N 
ATOM     22  C   UNL     1      -3.349   0.325  -1.387  0.00  0.00    -0.096 C 
ATOM     23  H   UNL     1      -2.576  -1.558  -1.249  0.00  0.00    -0.082 HD
BRANCH  21  24
ATOM     24  C   UNL     1      -2.654  -1.052  -3.224  0.00  0.00    -0.041 C 
BRANCH  24  25
ATOM     25  C   UNL     1      -4.031  -1.640  -3.388  0.00  0.00    -0.039 A 
ATOM     26  C   UNL     1      -5.294  -0.899  -3.449  0.00  0.00    +0.001 A 
ATOM     27  C   UNL     1      -5.628   0.455  -3.385  0.00  0.00    +0.010 A 
ATOM     28  C   UNL     1      -6.938   0.835  -3.476  0.00  0.00    +0.001 A 
ATOM     29  C   UNL     1      -7.938  -0.114  -3.630  0.00  0.00    +0.002 A 
ATOM     30  C   UNL     1      -7.630  -1.456  -3.695  0.00  0.00    +0.026 A 
ATOM     31  C   UNL     1      -6.304  -1.865  -3.606  0.00  0.00    +0.047 A 
ATOM     32  N   UNL     1      -5.688  -3.096  -3.636  0.00  0.00    -0.360 N 
ATOM     33  C   UNL     1      -4.334  -2.942  -3.510  0.00  0.00    +0.085 A 
ATOM     34  H   UNL     1      -6.145  -3.946  -3.735  0.00  0.00    +0.165 HD
ENDBRANCH  24  25
ENDBRANCH  21  24
ENDBRANCH  20  21
ENDBRANCH   3  20
TORSDOF 7
