REMARK  Name = ZINC63279414
REMARK  9 active torsions:
REMARK  status: ('A' for Active; 'I' for Inactive)
REMARK    1  A    between atoms: C_1  and  C_2
REMARK    2  A    between atoms: C_4  and  C_16
REMARK    3  A    between atoms: C_8  and  O_14
REMARK    4  A    between atoms: N_12  and  C_13
REMARK    5  A    between atoms: O_14  and  C_15
REMARK    6  A    between atoms: C_22  and  C_24
REMARK    7  A    between atoms: C_24  and  C_25
REMARK    8  A    between atoms: C_25  and  C_26
REMARK    9  A    between atoms: C_26  and  C_27
REMARK                            x       y       z     vdW  Elec       q    Type
REMARK                         _______ _______ _______ _____ _____    ______ ____
ROOT
ATOM      1  C   UNL     1       1.236   0.633  -2.077  0.00  0.00    +0.060 A 
ATOM      2  C   UNL     1       2.418   1.246  -1.817  0.00  0.00    +0.072 A 
ATOM      3  S   UNL     1       2.439   2.485  -3.102  0.00  0.00    -0.060 S 
ATOM      4  C   UNL     1       0.968   2.099  -3.822  0.00  0.00    +0.165 A 
ATOM      5  N   UNL     1       0.536   1.088  -3.099  0.00  0.00    -0.229 NA
ATOM      6  N   UNL     1       0.358   2.699  -4.918  0.00  0.00    -0.265 N 
ATOM      7  C   UNL     1       0.960   3.731  -5.543  0.00  0.00    +0.219 C 
ATOM      8  O   UNL     1       2.033   4.136  -5.148  0.00  0.00    -0.275 OA
ATOM      9  H   UNL     1      -0.500   2.375  -5.234  0.00  0.00    +0.157 HD
ENDROOT
BRANCH   1  12
ATOM     10  C   UNL     1      -0.019   1.526   0.010  0.00  0.00    +0.029 C 
ATOM     11  C   UNL     1       0.002  -0.004   0.002  0.00  0.00    +0.083 C 
ATOM     12  C   UNL     1       0.748  -0.520  -1.239  0.00  0.00    +0.090 C 
ATOM     13  C   UNL     1       1.916  -1.304  -0.683  0.00  0.00    -0.012 A 
ATOM     14  C   UNL     1       2.928  -1.995  -1.321  0.00  0.00    +0.051 A 
ATOM     15  C   UNL     1       3.901  -2.646  -0.579  0.00  0.00    +0.120 A 
ATOM     16  C   UNL     1       3.855  -2.600   0.806  0.00  0.00    +0.047 A 
ATOM     17  C   UNL     1       2.845  -1.911   1.443  0.00  0.00    +0.027 A 
ATOM     18  C   UNL     1       1.862  -1.254   0.700  0.00  0.00    +0.034 A 
ATOM     19  N   UNL     1       0.764  -0.508   1.148  0.00  0.00    -0.329 N 
ATOM     20  C   UNL     1       0.425  -0.267   2.553  0.00  0.00    +0.129 C 
BRANCH  15  21
ATOM     21  O   UNL     1       4.898  -3.326  -1.207  0.00  0.00    -0.495 OA
ATOM     22  C   UNL     1       5.865  -3.972  -0.377  0.00  0.00    +0.277 C 
ENDBRANCH  15  21
ENDBRANCH   1  12
BRANCH   7  23
ATOM     23  C   UNL     1       0.299   4.381  -6.731  0.00  0.00    +0.096 C 
BRANCH  23  24
ATOM     24  C   UNL     1       1.184   5.517  -7.247  0.00  0.00    +0.014 C 
BRANCH  24  25
ATOM     25  C   UNL     1       0.513   6.178  -8.454  0.00  0.00    +0.033 C 
BRANCH  25  26
ATOM     26  C   UNL     1       1.385   7.297  -8.963  0.00  0.00    -0.042 C 
ATOM     27  C   UNL     1       2.291   7.230  -9.966  0.00  0.00    -0.001 A 
ATOM     28  C   UNL     1       2.719   6.138 -10.848  0.00  0.00    +0.010 A 
ATOM     29  C   UNL     1       3.670   6.382 -11.778  0.00  0.00    +0.001 A 
ATOM     30  C   UNL     1       4.254   7.647 -11.921  0.00  0.00    +0.002 A 
ATOM     31  C   UNL     1       3.913   8.700 -11.149  0.00  0.00    +0.026 A 
ATOM     32  C   UNL     1       2.923   8.558 -10.137  0.00  0.00    +0.043 A 
ATOM     33  N   UNL     1       2.428   9.412  -9.274  0.00  0.00    -0.380 N 
ATOM     34  C   UNL     1       1.420   8.723  -8.461  0.00  0.00    +0.144 C 
ATOM     35  H   UNL     1       2.683  10.344  -9.190  0.00  0.00    +0.160 HD
ENDBRANCH  25  26
ENDBRANCH  24  25
ENDBRANCH  23  24
ENDBRANCH   7  23
TORSDOF 6
