REMARK  Name = ZINC00499923
REMARK  6 active torsions:
REMARK  status: ('A' for Active; 'I' for Inactive)
REMARK    1  A    between atoms: C_4  and  S_7
REMARK    2  A    between atoms: S_7  and  C_8
REMARK    3  A    between atoms: C_8  and  C_9
REMARK    4  A    between atoms: C_9  and  N_10
REMARK    5  A    between atoms: C_11  and  N_25
REMARK    6  A    between atoms: C_12  and  C_23
REMARK                            x       y       z     vdW  Elec       q    Type
REMARK                         _______ _______ _______ _____ _____    ______ ____
ROOT
ATOM      1  N   UNL     1       4.342  -4.861  -0.067  0.00  0.00    -0.311 N 
ATOM      2  C   UNL     1       4.145  -5.613   1.052  0.00  0.00    +0.118 A 
ATOM      3  C   UNL     1       3.792  -6.912   0.708  0.00  0.00    +0.118 A 
ATOM      4  C   UNL     1       3.768  -6.963  -0.762  0.00  0.00    +0.128 A 
ATOM      5  C   UNL     1       4.125  -5.612  -1.204  0.00  0.00    +0.163 A 
ATOM      6  N   UNL     1       4.182  -5.346  -2.491  0.00  0.00    -0.226 NA
ATOM      7  C   UNL     1       3.912  -6.308  -3.384  0.00  0.00    +0.092 A 
ATOM      8  C   UNL     1       3.971  -6.032  -4.763  0.00  0.00    +0.030 A 
ATOM      9  C   UNL     1       3.696  -7.015  -5.662  0.00  0.00    +0.002 A 
ATOM     10  C   UNL     1       3.354  -8.298  -5.239  0.00  0.00    +0.002 A 
ATOM     11  C   UNL     1       3.286  -8.603  -3.915  0.00  0.00    +0.030 A 
ATOM     12  C   UNL     1       3.564  -7.613  -2.954  0.00  0.00    +0.090 A 
ATOM     13  N   UNL     1       3.508  -7.903  -1.649  0.00  0.00    -0.241 NA
ENDROOT
BRANCH   2  14
ATOM     14  N   UNL     1       4.278  -5.152   2.338  0.00  0.00    -0.343 N 
ATOM     15  H   UNL     1       4.529  -4.229   2.499  0.00  0.00    +0.144 HD
ATOM     16  H   UNL     1       4.121  -5.750   3.086  0.00  0.00    +0.144 HD
ENDBRANCH   2  14
BRANCH   3  17
ATOM     17  C   UNL     1       3.506  -7.989   1.608  0.00  0.00    +0.105 C 
ATOM     18  N   UNL     1       3.280  -8.843   2.321  0.00  0.00    -0.191 NA
ENDBRANCH   3  17
BRANCH   1  19
ATOM     19  C   UNL     1       4.724  -3.447  -0.064  0.00  0.00    +0.136 C 
BRANCH  19  20
ATOM     20  C   UNL     1       3.465  -2.578  -0.046  0.00  0.00    +0.096 C 
BRANCH  20  21
ATOM     21  S   UNL     1       3.939  -0.827  -0.042  0.00  0.00    -0.123 S 
BRANCH  21  25
ATOM     22  C   UNL     1      -0.017   1.379   0.010  0.00  0.00    +0.000 A 
ATOM     23  C   UNL     1       1.169   2.090   0.002  0.00  0.00    +0.001 A 
ATOM     24  C   UNL     1       2.377   1.421  -0.013  0.00  0.00    +0.015 A 
ATOM     25  C   UNL     1       2.400   0.031  -0.021  0.00  0.00    +0.008 A 
ATOM     26  C   UNL     1       1.206  -0.680  -0.013  0.00  0.00    +0.015 A 
ATOM     27  C   UNL     1       0.002  -0.004   0.002  0.00  0.00    +0.001 A 
ENDBRANCH  21  25
ENDBRANCH  20  21
ENDBRANCH  19  20
ENDBRANCH   1  19
TORSDOF 6
