REMARK  Name = ZINC16881153
REMARK  5 active torsions:
REMARK  status: ('A' for Active; 'I' for Inactive)
REMARK    1  A    between atoms: C_10  and  C_11
REMARK    2  A    between atoms: C_11  and  N_12
REMARK    3  A    between atoms: C_15  and  C_21
REMARK    4  A    between atoms: C_16  and  O_20
REMARK    5  A    between atoms: C_21  and  C_22
REMARK                            x       y       z     vdW  Elec       q    Type
REMARK                         _______ _______ _______ _____ _____    ______ ____
ROOT
ATOM      1  N   UNL     1      -1.686   6.408   1.161  0.00  0.00    -0.276 N 
ATOM      2  C   UNL     1      -1.618   7.288   2.183  0.00  0.00    +0.263 A 
ATOM      3  O   UNL     1      -1.042   8.355   2.045  0.00  0.00    -0.267 OA
ATOM      4  C   UNL     1      -2.219   6.955   3.402  0.00  0.00    +0.083 A 
ATOM      5  C   UNL     1      -2.863   5.734   3.516  0.00  0.00    +0.224 A 
ATOM      6  N   UNL     1      -2.898   4.902   2.470  0.00  0.00    -0.181 NA
ATOM      7  C   UNL     1      -2.335   5.223   1.324  0.00  0.00    +0.199 A 
ATOM      8  N   UNL     1      -2.400   4.345   0.276  0.00  0.00    -0.329 N 
ATOM      9  H   UNL     1      -1.914   4.530  -0.543  0.00  0.00    +0.145 HD
ATOM     10  H   UNL     1      -2.931   3.537   0.352  0.00  0.00    +0.145 HD
ENDROOT
BRANCH   5  11
ATOM     11  O   UNL     1      -3.454   5.384   4.682  0.00  0.00    -0.492 OA
ATOM     12  H   UNL     1      -3.876   4.514   4.663  0.00  0.00    +0.294 HD
ENDBRANCH   5  11
BRANCH   1  13
ATOM     13  C   UNL     1      -1.066   6.732  -0.126  0.00  0.00    +0.163 C 
BRANCH  13  23
ATOM     14  C   UNL     1       2.588   6.307  -3.685  0.00  0.00    +0.001 A 
ATOM     15  C   UNL     1       1.315   6.875  -3.649  0.00  0.00    +0.001 A 
ATOM     16  C   UNL     1       0.557   6.823  -2.520  0.00  0.00    +0.009 A 
ATOM     17  C   UNL     1       1.066   6.198  -1.369  0.00  0.00    -0.013 A 
ATOM     18  C   UNL     1       2.362   5.625  -1.404  0.00  0.00    -0.018 A 
ATOM     19  C   UNL     1       3.113   5.694  -2.590  0.00  0.00    +0.008 A 
ATOM     20  C   UNL     1       2.871   5.001  -0.253  0.00  0.00    +0.008 A 
ATOM     21  C   UNL     1       2.115   4.955   0.878  0.00  0.00    +0.001 A 
ATOM     22  C   UNL     1       0.840   5.517   0.913  0.00  0.00    +0.006 A 
ATOM     23  C   UNL     1       0.315   6.130  -0.183  0.00  0.00    -0.020 A 
ENDBRANCH  13  23
ENDBRANCH   1  13
BRANCH   4  24
ATOM     24  C   UNL     1      -2.168   7.907   4.569  0.00  0.00    +0.082 C 
BRANCH  24  25
ATOM     25  C   UNL     1      -3.279   8.918   4.442  0.00  0.00    -0.024 A 
ATOM     26  C   UNL     1      -3.061  10.102   3.764  0.00  0.00    +0.005 A 
ATOM     27  C   UNL     1      -4.081  11.027   3.643  0.00  0.00    +0.000 A 
ATOM     28  C   UNL     1      -5.317  10.773   4.210  0.00  0.00    +0.001 A 
ATOM     29  C   UNL     1      -5.534   9.591   4.892  0.00  0.00    +0.020 A 
ATOM     30  C   UNL     1      -4.514   8.662   5.009  0.00  0.00    +0.044 A 
ATOM     31 CL   UNL     1      -4.787   7.177   5.866  0.00  0.00    -0.083 Cl
ENDBRANCH  24  25
ENDBRANCH   4  24
TORSDOF 5
