REMARK  Name = ZINC12487607
REMARK  11 active torsions:
REMARK  status: ('A' for Active; 'I' for Inactive)
REMARK    1  A    between atoms: C_1  and  C_2
REMARK    2  A    between atoms: C_2  and  C_4
REMARK    3  A    between atoms: C_8  and  N_10
REMARK    4  A    between atoms: N_10  and  C_11
REMARK    5  A    between atoms: C_11  and  C_13
REMARK    6  A    between atoms: C_11  and  C_20
REMARK    7  A    between atoms: N_22  and  C_23
REMARK    8  A    between atoms: C_23  and  C_24
REMARK    9  A    between atoms: C_29  and  C_31
REMARK   10  A    between atoms: C_31  and  N_32
REMARK   11  A    between atoms: C_33  and  C_35
REMARK                            x       y       z     vdW  Elec       q    Type
REMARK                         _______ _______ _______ _____ _____    ______ ____
ROOT
ATOM      1  N   UNL     1      -3.515   2.332  -0.518  0.00  0.00    -0.254 N 
ATOM      2  C   UNL     1      -4.219   2.129  -1.649  0.00  0.00    +0.238 C 
ATOM      3  O   UNL     1      -4.254   1.026  -2.152  0.00  0.00    -0.274 OA
ENDROOT
BRANCH   1   8
ATOM      4  C   UNL     1      -4.788   5.307   1.252  0.00  0.00    +0.019 A 
ATOM      5  C   UNL     1      -3.612   6.056   1.374  0.00  0.00    +0.011 A 
ATOM      6  C   UNL     1      -2.427   5.564   0.870  0.00  0.00    +0.002 A 
ATOM      7  C   UNL     1      -2.394   4.331   0.244  0.00  0.00    +0.023 A 
ATOM      8  C   UNL     1      -3.555   3.578   0.117  0.00  0.00    +0.038 A 
ATOM      9  C   UNL     1      -4.754   4.064   0.615  0.00  0.00    +0.035 A 
BRANCH   4  11
ATOM     10  C   UNL     1      -6.089   7.172   2.470  0.00  0.00    +0.091 C 
ATOM     11  C   UNL     1      -6.055   5.828   1.788  0.00  0.00    +0.160 C 
ATOM     12  O   UNL     1      -7.072   5.177   1.681  0.00  0.00    -0.292 OA
ENDBRANCH   4  11
ENDBRANCH   1   8
BRANCH   1  13
ATOM     13  C   UNL     1      -2.708   1.247   0.047  0.00  0.00    +0.200 C 
BRANCH  13  14
ATOM     14  C   UNL     1      -1.435   1.103  -0.747  0.00  0.00    +0.017 A 
ATOM     15  C   UNL     1      -0.977   2.155  -1.516  0.00  0.00    +0.009 A 
ATOM     16  C   UNL     1       0.188   2.021  -2.248  0.00  0.00    +0.001 A 
ATOM     17  C   UNL     1       0.899   0.836  -2.208  0.00  0.00    +0.003 A 
ATOM     18  C   UNL     1       0.445  -0.216  -1.435  0.00  0.00    +0.039 A 
ATOM     19  C   UNL     1      -0.722  -0.083  -0.701  0.00  0.00    +0.129 A 
ATOM     20  F   UNL     1      -1.166  -1.111   0.055  0.00  0.00    -0.205 F 
ENDBRANCH  13  14
BRANCH  13  21
ATOM     21  C   UNL     1      -2.373   1.566   1.481  0.00  0.00    +0.239 C 
ATOM     22  O   UNL     1      -2.895   2.512   2.030  0.00  0.00    -0.273 OA
ATOM     23  N   UNL     1      -1.492   0.798   2.154  0.00  0.00    -0.306 N 
ATOM     24  H   UNL     1      -1.074   0.041   1.714  0.00  0.00    +0.149 HD
BRANCH  23  25
ATOM     25  C   UNL     1      -1.166   1.107   3.548  0.00  0.00    +0.178 C 
BRANCH  25  26
ATOM     26  C   UNL     1      -0.165   0.106   4.064  0.00  0.00    +0.122 A 
ATOM     27  C   UNL     1       1.173   0.226   3.999  0.00  0.00    +0.046 A 
ATOM     28  C   UNL     1       1.718  -0.933   4.597  0.00  0.00    +0.041 A 
ATOM     29  C   UNL     1       0.680  -1.693   4.991  0.00  0.00    +0.195 A 
ATOM     30  O   UNL     1      -0.458  -1.056   4.671  0.00  0.00    -0.466 OA
ENDBRANCH  25  26
ENDBRANCH  23  25
ENDBRANCH  13  21
ENDBRANCH   1  13
BRANCH   2  31
ATOM     31  C   UNL     1      -4.962   3.273  -2.289  0.00  0.00    +0.201 C 
BRANCH  31  32
ATOM     32  N   UNL     1      -5.731   2.777  -3.434  0.00  0.00    -0.300 N 
ATOM     33  C   UNL     1      -6.479   3.628  -4.163  0.00  0.00    +0.280 C 
ATOM     34  O   UNL     1      -6.515   4.809  -3.872  0.00  0.00    -0.267 OA
ATOM     35  H   UNL     1      -5.702   1.835  -3.666  0.00  0.00    +0.150 HD
BRANCH  33  36
ATOM     36  C   UNL     1      -7.248   3.131  -5.309  0.00  0.00    +0.189 A 
ATOM     37  C   UNL     1      -8.042   3.881  -6.128  0.00  0.00    +0.054 A 
ATOM     38  C   UNL     1      -8.581   3.003  -7.082  0.00  0.00    +0.042 A 
ATOM     39  C   UNL     1      -8.098   1.772  -6.807  0.00  0.00    +0.196 A 
ATOM     40  O   UNL     1      -7.291   1.854  -5.741  0.00  0.00    -0.458 OA
ENDBRANCH  33  36
ENDBRANCH  31  32
ENDBRANCH   2  31
TORSDOF 10
