REMARK  Name = ZINC38930796
REMARK  7 active torsions:
REMARK  status: ('A' for Active; 'I' for Inactive)
REMARK    1  A    between atoms: C_1  and  C_2
REMARK    2  A    between atoms: C_5  and  C_8
REMARK    3  A    between atoms: N_14  and  N_15
REMARK    4  A    between atoms: C_16  and  C_17
REMARK    5  A    between atoms: C_19  and  O_25
REMARK    6  A    between atoms: C_20  and  O_24
REMARK    7  A    between atoms: O_25  and  C_26
REMARK                            x       y       z     vdW  Elec       q    Type
REMARK                         _______ _______ _______ _____ _____    ______ ____
ROOT
ATOM      1  C   UNL     1       0.050  -4.290  -0.022  0.00  0.00    +0.264 C 
ATOM      2  N   UNL     1       0.812  -4.784  -1.178  0.00  0.00    -0.189 NA
ATOM      3  N   UNL     1       1.781  -5.420  -0.756  0.00  0.00    -0.219 N 
ATOM      4  C   UNL     1       1.845  -5.467   0.602  0.00  0.00    +0.174 C 
ATOM      5  S   UNL     1       3.064  -6.269   1.499  0.00  0.00    -0.015 S 
ATOM      6  N   UNL     1       0.804  -4.790   1.143  0.00  0.00    -0.172 N 
ATOM      7  H   UNL     1       2.434  -5.844  -1.335  0.00  0.00    +0.176 HD
ENDROOT
BRANCH   1  12
ATOM      8  C   UNL     1      -0.105   1.487  -0.009  0.00  0.00    +0.044 C 
ATOM      9  C   UNL     1      -0.064  -0.019  -0.012  0.00  0.00    -0.050 A 
ATOM     10  C   UNL     1      -0.054  -0.708  -1.211  0.00  0.00    +0.004 A 
ATOM     11  C   UNL     1      -0.017  -2.090  -1.214  0.00  0.00    +0.008 A 
ATOM     12  C   UNL     1       0.010  -2.783  -0.018  0.00  0.00    -0.002 A 
ATOM     13  C   UNL     1       0.001  -2.095   1.180  0.00  0.00    +0.008 A 
ATOM     14  C   UNL     1      -0.032  -0.713   1.183  0.00  0.00    +0.004 A 
ENDBRANCH   1  12
BRANCH   6  15
ATOM     15  N   UNL     1       0.509  -4.606   2.500  0.00  0.00    -0.183 NA
ATOM     16  C   UNL     1       1.216  -5.210   3.406  0.00  0.00    +0.138 C 
BRANCH  16  17
ATOM     17  C   UNL     1       0.838  -5.105   4.827  0.00  0.00    -0.001 A 
ATOM     18  C   UNL     1       1.601  -5.750   5.804  0.00  0.00    +0.059 A 
ATOM     19  C   UNL     1       1.242  -5.648   7.135  0.00  0.00    +0.163 A 
ATOM     20  C   UNL     1       0.122  -4.904   7.500  0.00  0.00    +0.173 A 
ATOM     21  C   UNL     1      -0.636  -4.264   6.531  0.00  0.00    +0.063 A 
ATOM     22  C   UNL     1      -0.281  -4.356   5.200  0.00  0.00    +0.028 A 
ATOM     23 BR   UNL     1      -2.156  -3.257   7.034  0.00  0.00    -0.046 Br
BRANCH  20  24
ATOM     24  O   UNL     1      -0.229  -4.806   8.810  0.00  0.00    -0.503 OA
ATOM     25  H   UNL     1       0.175  -4.057   9.270  0.00  0.00    +0.292 HD
ENDBRANCH  20  24
BRANCH  19  26
ATOM     26  O   UNL     1       1.983  -6.275   8.088  0.00  0.00    -0.491 OA
ATOM     27  C   UNL     1       3.118  -7.020   7.643  0.00  0.00    +0.277 C 
ENDBRANCH  19  26
ENDBRANCH  16  17
ENDBRANCH   6  15
TORSDOF 5
