REMARK  Name = ZINC31469405
REMARK  12 active torsions:
REMARK  status: ('A' for Active; 'I' for Inactive)
REMARK    1  A    between atoms: C_1  and  C_2
REMARK    2  A    between atoms: C_8  and  N_10
REMARK    3  A    between atoms: N_10  and  C_11
REMARK    4  A    between atoms: N_10  and  C_21
REMARK    5  A    between atoms: C_11  and  C_12
REMARK    6  A    between atoms: N_17  and  C_18
REMARK    7  A    between atoms: C_18  and  C_19
REMARK    8  A    between atoms: C_18  and  C_20
REMARK    9  A    between atoms: C_21  and  C_22
REMARK   10  A    between atoms: N_27  and  C_28
REMARK   11  A    between atoms: C_28  and  C_29
REMARK   12  A    between atoms: C_28  and  C_30
REMARK                            x       y       z     vdW  Elec       q    Type
REMARK                         _______ _______ _______ _____ _____    ______ ____
ROOT
ATOM      1  N   UNL     1       1.270  -2.821  -0.384  0.00  0.00    +0.393 N 
ATOM      2  H   UNL     1       0.519  -3.482   0.072  0.00  0.00    -0.080 HD
ENDROOT
BRANCH   1   9
ATOM      3  C   UNL     1       3.263  -1.643  -2.128  0.00  0.00    +0.006 C 
ATOM      4  C   UNL     1       1.782  -1.709  -2.506  0.00  0.00    -0.028 C 
ATOM      5  C   UNL     1       1.647  -1.823  -4.025  0.00  0.00    +0.002 C 
ATOM      6  C   UNL     1       2.353  -3.092  -4.506  0.00  0.00    +0.000 C 
ATOM      7  C   UNL     1       1.712  -4.314  -3.844  0.00  0.00    -0.002 C 
ATOM      8  C   UNL     1       1.846  -4.200  -2.324  0.00  0.00    -0.015 C 
ATOM      9  C   UNL     1       1.141  -2.930  -1.844  0.00  0.00    -0.064 C 
ENDBRANCH   1   9
BRANCH   1  10
ATOM     10  C   UNL     1       0.998  -1.449   0.067  0.00  0.00    +0.020 C 
BRANCH  10  11
ATOM     11  C   UNL     1      -0.472  -1.153  -0.083  0.00  0.00    +0.204 C 
ATOM     12  O   UNL     1      -1.209  -1.979  -0.578  0.00  0.00    -0.277 OA
ATOM     13  N   UNL     1      -0.967   0.029   0.334  0.00  0.00    -0.242 N 
ATOM     14  C   UNL     1      -2.281   0.295   0.194  0.00  0.00    +0.306 C 
ATOM     15  O   UNL     1      -3.019  -0.530  -0.307  0.00  0.00    -0.252 OA
ATOM     16  N   UNL     1      -2.776   1.478   0.611  0.00  0.00    -0.297 N 
ATOM     17  H   UNL     1      -0.299   0.776   0.787  0.00  0.00    +0.159 HD
ATOM     18  H   UNL     1      -2.108   2.225   1.064  0.00  0.00    +0.151 HD
BRANCH  16  19
ATOM     19  C   UNL     1      -4.205   1.768   0.460  0.00  0.00    +0.068 C 
ATOM     20  C   UNL     1      -4.971   1.193   1.653  0.00  0.00    +0.027 C 
ATOM     21  C   UNL     1      -4.414   3.282   0.401  0.00  0.00    +0.027 C 
ENDBRANCH  16  19
ENDBRANCH  10  11
ENDBRANCH   1  10
BRANCH   1  22
ATOM     22  C   UNL     1       2.596  -3.268   0.062  0.00  0.00    +0.020 C 
BRANCH  22  23
ATOM     23  C   UNL     1       2.598  -4.768   0.206  0.00  0.00    +0.204 C 
ATOM     24  O   UNL     1       1.566  -5.391   0.077  0.00  0.00    -0.277 OA
ATOM     25  N   UNL     1       3.747  -5.418   0.478  0.00  0.00    -0.242 N 
ATOM     26  C   UNL     1       3.748  -6.759   0.607  0.00  0.00    +0.306 C 
ATOM     27  O   UNL     1       2.713  -7.383   0.478  0.00  0.00    -0.252 OA
ATOM     28  N   UNL     1       4.897  -7.409   0.879  0.00  0.00    -0.297 N 
ATOM     29  H   UNL     1       4.684  -4.853   0.595  0.00  0.00    +0.159 HD
ATOM     30  H   UNL     1       5.834  -6.844   0.996  0.00  0.00    +0.151 HD
BRANCH  28  31
ATOM     31  C   UNL     1       4.899  -8.867   1.019  0.00  0.00    +0.068 C 
ATOM     32  C   UNL     1       5.033  -9.512  -0.362  0.00  0.00    +0.027 C 
ATOM     33  C   UNL     1       6.077  -9.294   1.898  0.00  0.00    +0.027 C 
ENDBRANCH  28  31
ENDBRANCH  22  23
ENDBRANCH   1  22
TORSDOF 7
