REMARK  Name = ZINC08643627
REMARK  11 active torsions:
REMARK  status: ('A' for Active; 'I' for Inactive)
REMARK    1  A    between atoms: C_1  and  N_66
REMARK    2  A    between atoms: C_2  and  C_3
REMARK    3  A    between atoms: C_2  and  N_66
REMARK    4  A    between atoms: C_9  and  C_10
REMARK    5  A    between atoms: C_9  and  N_66
REMARK    6  A    between atoms: N_12  and  C_15
REMARK    7  A    between atoms: C_15  and  C_16
REMARK    8  A    between atoms: C_18  and  O_38
REMARK    9  A    between atoms: C_20  and  O_37
REMARK   10  A    between atoms: C_22  and  C_25
REMARK   11  A    between atoms: C_25  and  C_26
REMARK                            x       y       z     vdW  Elec       q    Type
REMARK                         _______ _______ _______ _____ _____    ______ ____
ROOT
ATOM      1  C   UNL     1       1.692   1.982  -1.485  0.00  0.00    +0.171 C 
ATOM      2  C   UNL     1       1.426   1.658  -0.003  0.00  0.00    +0.176 C 
ATOM      3  C   UNL     1      -0.013   1.086   0.008  0.00  0.00    +0.175 C 
ATOM      4  C   UNL     1      -0.592   1.638  -1.319  0.00  0.00    +0.159 C 
ATOM      5  O   UNL     1       0.529   1.578  -2.227  0.00  0.00    -0.366 OA
ENDROOT
BRANCH   3   6
ATOM      6  O   UNL     1      -0.749   1.577   1.130  0.00  0.00    -0.387 OA
ATOM      7  H   UNL     1      -0.397   1.295   1.985  0.00  0.00    +0.210 HD
ENDBRANCH   3   6
BRANCH   2   8
ATOM      8  O   UNL     1       1.498   2.845   0.790  0.00  0.00    -0.387 OA
ATOM      9  H   UNL     1       1.281   2.709   1.722  0.00  0.00    +0.210 HD
ENDBRANCH   2   8
BRANCH   1  10
ATOM     10  C   UNL     1       2.917   1.208  -1.975  0.00  0.00    +0.179 C 
BRANCH  10  13
ATOM     11  C   UNL     1       4.278   2.328  -5.103  0.00  0.00    +0.066 A 
ATOM     12  C   UNL     1       4.427   2.080  -3.781  0.00  0.00    +0.131 A 
ATOM     13  N   UNL     1       3.234   1.612  -3.347  0.00  0.00    -0.249 N 
ATOM     14  N   UNL     1       2.426   1.577  -4.349  0.00  0.00    -0.065 NA
ATOM     15  N   UNL     1       3.017   2.003  -5.410  0.00  0.00    -0.136 NA
BRANCH  11  16
ATOM     16  C   UNL     1       5.326   2.863  -6.044  0.00  0.00    -0.019 C 
BRANCH  16  18
ATOM     17  C   UNL     1       5.051   1.039  -7.613  0.00  0.00    -0.095 C 
ATOM     18  N   UNL     1       5.997   1.725  -6.708  0.00  0.00    +0.384 N 
ATOM     19  H   UNL     1       6.314   1.062  -5.992  0.00  0.00    -0.081 HD
BRANCH  18  20
ATOM     20  C   UNL     1       7.168   2.205  -7.471  0.00  0.00    -0.043 C 
BRANCH  20  21
ATOM     21  C   UNL     1       7.956   1.014  -7.952  0.00  0.00    -0.064 A 
ATOM     22  C   UNL     1       8.956   0.481  -7.160  0.00  0.00    +0.002 A 
ATOM     23  C   UNL     1       9.676  -0.614  -7.599  0.00  0.00    +0.000 A 
ATOM     24  C   UNL     1       9.402  -1.171  -8.834  0.00  0.00    +0.000 A 
ATOM     25  C   UNL     1       8.405  -0.636  -9.628  0.00  0.00    +0.000 A 
ATOM     26  C   UNL     1       7.682   0.457  -9.187  0.00  0.00    +0.002 A 
ENDBRANCH  20  21
ENDBRANCH  18  20
ENDBRANCH  16  18
ENDBRANCH  11  16
ENDBRANCH  10  13
ENDBRANCH   1  10
BRANCH   4  27
ATOM     27  C   UNL     1      -1.737   0.754  -1.817  0.00  0.00    +0.130 C 
BRANCH  27  28
ATOM     28  C   UNL     1      -2.360   1.379  -3.038  0.00  0.00    +0.222 C 
ATOM     29  O   UNL     1      -1.931   2.429  -3.468  0.00  0.00    -0.275 OA
ATOM     30  N   UNL     1      -3.394   0.772  -3.653  0.00  0.00    -0.271 N 
ATOM     31  C   UNL     1      -4.084   1.284  -4.840  0.00  0.00    +0.118 C 
ATOM     32  C   UNL     1      -5.173   0.245  -5.154  0.00  0.00    +0.056 C 
ATOM     33  C   UNL     1      -5.016  -0.806  -4.078  0.00  0.00    -0.024 A 
ATOM     34  C   UNL     1      -3.971  -0.436  -3.248  0.00  0.00    +0.039 A 
ATOM     35  C   UNL     1      -3.636  -1.259  -2.171  0.00  0.00    +0.024 A 
ATOM     36  C   UNL     1      -4.338  -2.423  -1.941  0.00  0.00    +0.002 A 
ATOM     37  C   UNL     1      -5.380  -2.784  -2.775  0.00  0.00    +0.000 A 
ATOM     38  C   UNL     1      -5.717  -1.974  -3.844  0.00  0.00    +0.005 A 
ENDBRANCH  27  28
ENDBRANCH   4  27
TORSDOF 10
