REMARK  Name = ZINC01930665
REMARK  12 active torsions:
REMARK  status: ('A' for Active; 'I' for Inactive)
REMARK    1  A    between atoms: C_1  and  C_2
REMARK    2  A    between atoms: C_2  and  C_3
REMARK    3  A    between atoms: C_3  and  C_5
REMARK    4  A    between atoms: C_3  and  N_51
REMARK    5  A    between atoms: C_6  and  C_7
REMARK    6  A    between atoms: C_6  and  N_51
REMARK    7  A    between atoms: N_9  and  C_10
REMARK    8  A    between atoms: C_11  and  C_21
REMARK    9  A    between atoms: C_16  and  C_20
REMARK   10  A    between atoms: C_21  and  O_23
REMARK   11  A    between atoms: O_23  and  C_24
REMARK   12  A    between atoms: C_24  and  C_25
REMARK                            x       y       z     vdW  Elec       q    Type
REMARK                         _______ _______ _______ _____ _____    ______ ____
ROOT
ATOM      1  C   UNL     1       1.249   4.266  -1.174  0.00  0.00    +0.086 A 
ATOM      2  C   UNL     1       1.232   3.540   0.009  0.00  0.00    +0.091 A 
ATOM      3  C   UNL     1       1.268   4.287   1.256  0.00  0.00    -0.021 A 
ATOM      4  C   UNL     1       1.324   5.629   1.120  0.00  0.00    -0.004 A 
ATOM      5  S   UNL     1       1.317   5.909  -0.628  0.00  0.00    -0.077 S 
ATOM      6  C   UNL     1       1.375   6.646   2.218  0.00  0.00    +0.046 C 
ATOM      7  C   UNL     1       1.725   5.929   3.528  0.00  0.00    -0.009 C 
ATOM      8  C   UNL     1       0.840   4.687   3.668  0.00  0.00    +0.008 C 
ATOM      9  C   UNL     1       1.250   3.637   2.634  0.00  0.00    +0.037 C 
ATOM     10  C   UNL     1       1.481   6.868   4.711  0.00  0.00    +0.008 C 
ENDROOT
BRANCH   1  13
ATOM     11  C   UNL     1       1.241   4.657  -3.509  0.00  0.00    +0.201 C 
ATOM     12  O   UNL     1       1.288   5.851  -3.300  0.00  0.00    -0.278 OA
ATOM     13  N   UNL     1       1.218   3.792  -2.476  0.00  0.00    -0.281 N 
ATOM     14  H   UNL     1       1.180   2.837  -2.644  0.00  0.00    +0.155 HD
BRANCH  11  15
ATOM     15  C   UNL     1       1.207   4.142  -4.925  0.00  0.00    +0.015 C 
BRANCH  15  16
ATOM     16  N   UNL     1       1.242   5.285  -5.857  0.00  0.00    +0.386 N 
ATOM     17  H   UNL     1       0.427   5.886  -5.685  0.00  0.00    -0.085 HD
ATOM     18  H   UNL     1       2.103   5.822  -5.702  0.00  0.00    -0.085 HD
BRANCH  16  19
ATOM     19  C   UNL     1       1.210   4.809  -7.253  0.00  0.00    -0.075 C 
ATOM     20  C   UNL     1      -0.241   4.583  -7.682  0.00  0.00    -0.014 C 
BRANCH  19  22
ATOM     21  C   UNL     1       3.335   5.999  -7.809  0.00  0.00    +0.002 C 
ATOM     22  C   UNL     1       1.851   5.863  -8.157  0.00  0.00    -0.019 C 
ENDBRANCH  19  22
ENDBRANCH  16  19
ENDBRANCH  15  16
ENDBRANCH  11  15
ENDBRANCH   1  13
BRANCH   2  23
ATOM     23  C   UNL     1       1.176   2.076   0.002  0.00  0.00    +0.342 C 
ATOM     24  O   UNL     1       2.205   1.428  -0.011  0.00  0.00    -0.245 OA
BRANCH  23  25
ATOM     25  O   UNL     1      -0.018   1.448   0.010  0.00  0.00    -0.461 OA
BRANCH  25  26
ATOM     26  C   UNL     1       0.002  -0.004   0.002  0.00  0.00    +0.229 C 
ATOM     27  C   UNL     1      -1.433  -0.534   0.013  0.00  0.00    +0.048 C 
ENDBRANCH  25  26
ENDBRANCH  23  25
ENDBRANCH   2  23
TORSDOF 8
