REMARK  Name = ZINC09312960
REMARK  19 active torsions:
REMARK  status: ('A' for Active; 'I' for Inactive)
REMARK    1  A    between atoms: C_1  and  C_2
REMARK    2  A    between atoms: C_2  and  O_3
REMARK    3  A    between atoms: O_3  and  C_4
REMARK    4  A    between atoms: C_6  and  C_11
REMARK    5  A    between atoms: C_9  and  O_10
REMARK    6  A    between atoms: C_14  and  C_15
REMARK    7  A    between atoms: C_14  and  O_27
REMARK    8  A    between atoms: C_18  and  O_22
REMARK    9  A    between atoms: C_20  and  C_21
REMARK   10  A    between atoms: O_22  and  C_23
REMARK   11  A    between atoms: C_23  and  C_24
REMARK   12  A    between atoms: C_24  and  C_25
REMARK   13  A    between atoms: C_24  and  C_26
REMARK   14  A    between atoms: N_32  and  C_33
REMARK   15  A    between atoms: C_33  and  C_34
REMARK   16  A    between atoms: C_34  and  C_35
REMARK   17  A    between atoms: C_35  and  N_75
REMARK   18  A    between atoms: C_36  and  N_75
REMARK   19  A    between atoms: C_37  and  N_75
REMARK                            x       y       z     vdW  Elec       q    Type
REMARK                         _______ _______ _______ _____ _____    ______ ____
ROOT
ATOM      1  C   UNL     1       4.169   0.040  -0.026  0.00  0.00    +0.145 C 
ATOM      2  C   UNL     1       4.522  -0.027  -1.494  0.00  0.00    +0.071 C 
ATOM      3  C   UNL     1       3.904  -0.793  -2.463  0.00  0.00    +0.133 C 
ATOM      4  C   UNL     1       5.606   0.846  -1.675  0.00  0.00    +0.249 C 
ATOM      5  O   UNL     1       6.177   1.067  -2.727  0.00  0.00    -0.282 OA
ATOM      6  C   UNL     1       5.937   1.454  -0.357  0.00  0.00    +0.288 C 
ATOM      7  O   UNL     1       6.827   2.256  -0.166  0.00  0.00    -0.266 OA
ATOM      8  N   UNL     1       5.105   0.985   0.588  0.00  0.00    -0.284 N 
ENDROOT
BRANCH   3   9
ATOM      9  C   UNL     1       4.453  -0.839  -3.826  0.00  0.00    +0.020 A 
ATOM     10  C   UNL     1       5.752  -1.316  -4.045  0.00  0.00    +0.015 A 
ATOM     11  C   UNL     1       6.260  -1.363  -5.322  0.00  0.00    +0.046 A 
ATOM     12  C   UNL     1       5.490  -0.926  -6.396  0.00  0.00    +0.121 A 
ATOM     13  C   UNL     1       4.202  -0.446  -6.184  0.00  0.00    +0.049 A 
ATOM     14  C   UNL     1       3.683  -0.401  -4.910  0.00  0.00    -0.036 A 
ATOM     15  C   UNL     1       2.287   0.120  -4.682  0.00  0.00    +0.044 C 
BRANCH  12  16
ATOM     16  O   UNL     1       5.997  -0.968  -7.653  0.00  0.00    -0.492 OA
BRANCH  16  17
ATOM     17  C   UNL     1       7.326  -1.472  -7.800  0.00  0.00    +0.232 C 
BRANCH  17  18
ATOM     18  C   UNL     1       7.723  -1.442  -9.277  0.00  0.00    +0.020 C 
ATOM     19  C   UNL     1       9.187  -1.864  -9.421  0.00  0.00    +0.010 C 
ATOM     20  C   UNL     1       6.834  -2.409 -10.063  0.00  0.00    +0.010 C 
ENDBRANCH  17  18
ENDBRANCH  16  17
ENDBRANCH  12  16
ENDBRANCH   3   9
BRANCH   1  23
ATOM     21  C   UNL     1       0.438   0.081   0.567  0.00  0.00    +0.162 A 
ATOM     22  C   UNL     1       1.740  -0.369   0.412  0.00  0.00    +0.055 A 
ATOM     23  C   UNL     1       2.754   0.530   0.142  0.00  0.00    -0.019 A 
ATOM     24  C   UNL     1       2.474   1.879   0.027  0.00  0.00    +0.009 A 
ATOM     25  C   UNL     1       1.178   2.335   0.181  0.00  0.00    +0.049 A 
ATOM     26  C   UNL     1       0.156   1.439   0.451  0.00  0.00    +0.158 A 
BRANCH  26  27
ATOM     27  O   UNL     1      -1.120   1.884   0.597  0.00  0.00    -0.503 OA
ATOM     28  H   UNL     1      -1.355   2.115   1.506  0.00  0.00    +0.292 HD
ENDBRANCH  26  27
BRANCH  21  29
ATOM     29  O   UNL     1      -0.561  -0.802   0.833  0.00  0.00    -0.489 OA
BRANCH  29  31
ATOM     30  C   UNL     1      -1.444  -3.015   1.238  0.00  0.00    +0.048 C 
ATOM     31  C   UNL     1      -0.198  -2.180   0.938  0.00  0.00    +0.226 C 
ENDBRANCH  29  31
ENDBRANCH  21  29
ENDBRANCH   1  23
BRANCH   3  32
ATOM     32  O   UNL     1       2.794  -1.499  -2.158  0.00  0.00    -0.506 OA
ATOM     33  H   UNL     1       2.479  -1.992  -2.969  0.00  0.00    +0.292 HD
ENDBRANCH   3  32
BRANCH   8  34
ATOM     34  C   UNL     1       5.130   1.359   2.005  0.00  0.00    +0.107 C 
BRANCH  34  35
ATOM     35  C   UNL     1       6.054   0.408   2.767  0.00  0.00    +0.000 C 
BRANCH  35  36
ATOM     36  C   UNL     1       6.080   0.799   4.246  0.00  0.00    -0.078 C 
BRANCH  36  39
ATOM     37  C   UNL     1       7.205   0.367   6.346  0.00  0.00    -0.097 C 
ATOM     38  C   UNL     1       6.426  -1.480   4.988  0.00  0.00    -0.097 C 
ATOM     39  N   UNL     1       6.992  -0.115   4.965  0.00  0.00    +0.376 N 
ATOM     40  H   UNL     1       7.896  -0.137   4.477  0.00  0.00    -0.083 HD
ENDBRANCH  36  39
ENDBRANCH  35  36
ENDBRANCH  34  35
ENDBRANCH   8  34
TORSDOF 13
