REMARK  Name = ZINC39664839
REMARK  10 active torsions:
REMARK  status: ('A' for Active; 'I' for Inactive)
REMARK    1  A    between atoms: C_1  and  C_2
REMARK    2  A    between atoms: C_4  and  C_11
REMARK    3  A    between atoms: C_5  and  C_7
REMARK    4  A    between atoms: C_15  and  C_24
REMARK    5  A    between atoms: N_26  and  C_27
REMARK    6  A    between atoms: C_27  and  C_29
REMARK    7  A    between atoms: C_27  and  C_33
REMARK    8  A    between atoms: C_29  and  N_30
REMARK    9  A    between atoms: N_30  and  C_31
REMARK   10  A    between atoms: N_30  and  C_32
REMARK                            x       y       z     vdW  Elec       q    Type
REMARK                         _______ _______ _______ _____ _____    ______ ____
ROOT
ATOM      1  C   UNL     1      -1.188  -3.053  -0.481  0.00  0.00    +0.250 C 
ATOM      2  O   UNL     1      -0.586  -4.106  -0.564  0.00  0.00    -0.270 OA
ATOM      3  N   UNL     1      -2.515  -3.052  -0.244  0.00  0.00    -0.296 N 
ATOM      4  C   UNL     1      -3.432  -1.888  -0.215  0.00  0.00    +0.121 C 
ATOM      5  C   UNL     1      -4.725  -2.393  -0.894  0.00  0.00    +0.100 C 
ATOM      6  C   UNL     1      -4.690  -3.921  -0.717  0.00  0.00    -0.004 C 
ATOM      7  C   UNL     1      -3.388  -4.216   0.041  0.00  0.00    +0.115 C 
ATOM      8  C   UNL     1      -5.894  -4.385   0.097  0.00  0.00    -0.010 C 
ATOM      9  C   UNL     1      -5.868  -5.912   0.210  0.00  0.00    -0.082 C 
ATOM     10  N   UNL     1      -5.902  -6.505  -1.132  0.00  0.00    +0.379 N 
ATOM     11  C   UNL     1      -4.694  -6.128  -1.876  0.00  0.00    -0.082 C 
ATOM     12  C   UNL     1      -4.670  -4.610  -2.078  0.00  0.00    -0.010 C 
ATOM     13  H   UNL     1      -5.947  -7.510  -1.053  0.00  0.00    -0.086 HD
ATOM     14  H   UNL     1      -6.717  -6.173  -1.625  0.00  0.00    -0.086 HD
ENDROOT
BRANCH   1  18
ATOM     15  C   UNL     1       0.146   1.862  -0.165  0.00  0.00    +0.086 C 
ATOM     16  C   UNL     1       0.104   0.390  -0.489  0.00  0.00    +0.103 A 
ATOM     17  C   UNL     1      -0.844  -0.468  -0.084  0.00  0.00    +0.058 A 
ATOM     18  C   UNL     1      -0.467  -1.777  -0.639  0.00  0.00    +0.087 A 
ATOM     19  C   UNL     1       0.689  -1.563  -1.331  0.00  0.00    +0.220 A 
ATOM     20  O   UNL     1       1.006  -0.269  -1.232  0.00  0.00    -0.455 OA
BRANCH  19  21
ATOM     21  C   UNL     1       1.471  -2.608  -2.084  0.00  0.00    +0.451 C 
ATOM     22  F   UNL     1       1.014  -2.672  -3.405  0.00  0.00    -0.163 F 
ATOM     23  F   UNL     1       2.829  -2.270  -2.076  0.00  0.00    -0.163 F 
ATOM     24  F   UNL     1       1.297  -3.853  -1.470  0.00  0.00    -0.163 F 
ENDBRANCH  19  21
ENDBRANCH   1  18
BRANCH   5  25
ATOM     25  C   UNL     1      -5.937  -1.811  -0.214  0.00  0.00    +0.219 C 
ATOM     26  O   UNL     1      -5.871  -1.459   0.945  0.00  0.00    -0.275 OA
ATOM     27  N   UNL     1      -7.094  -1.681  -0.893  0.00  0.00    -0.310 N 
ATOM     28  H   UNL     1      -7.127  -1.894  -1.839  0.00  0.00    +0.149 HD
BRANCH  27  29
ATOM     29  C   UNL     1      -8.300  -1.218  -0.203  0.00  0.00    +0.087 C 
BRANCH  29  30
ATOM     30  C   UNL     1      -9.517  -1.809  -0.868  0.00  0.00    -0.029 A 
ATOM     31  C   UNL     1      -9.570  -1.913  -2.245  0.00  0.00    +0.005 A 
ATOM     32  C   UNL     1     -10.686  -2.455  -2.855  0.00  0.00    +0.000 A 
ATOM     33  C   UNL     1     -11.749  -2.893  -2.087  0.00  0.00    +0.000 A 
ATOM     34  C   UNL     1     -11.695  -2.791  -0.710  0.00  0.00    +0.000 A 
ATOM     35  C   UNL     1     -10.577  -2.253  -0.100  0.00  0.00    +0.005 A 
ENDBRANCH  29  30
BRANCH  29  36
ATOM     36  C   UNL     1      -8.373   0.308  -0.271  0.00  0.00    -0.052 C 
BRANCH  36  37
ATOM     37  N   UNL     1      -9.503   0.781   0.540  0.00  0.00    +0.377 N 
ATOM     38  C   UNL     1      -9.247   0.485   1.956  0.00  0.00    -0.097 C 
ATOM     39  C   UNL     1      -9.659   2.232   0.364  0.00  0.00    -0.097 C 
ATOM     40  H   UNL     1     -10.347   0.314   0.246  0.00  0.00    -0.083 HD
ENDBRANCH  36  37
ENDBRANCH  29  36
ENDBRANCH  27  29
ENDBRANCH   5  25
TORSDOF 7
