REMARK  Name = ZINC09067340
REMARK  14 active torsions:
REMARK  status: ('A' for Active; 'I' for Inactive)
REMARK    1  A    between atoms: C_1  and  C_2
REMARK    2  A    between atoms: C_2  and  N_63
REMARK    3  A    between atoms: C_3  and  C_4
REMARK    4  A    between atoms: C_3  and  N_63
REMARK    5  A    between atoms: C_5  and  C_6
REMARK    6  A    between atoms: C_5  and  N_63
REMARK    7  A    between atoms: C_6  and  C_7
REMARK    8  A    between atoms: C_7  and  N_8
REMARK    9  A    between atoms: C_9  and  C_27
REMARK   10  A    between atoms: C_12  and  C_13
REMARK   11  A    between atoms: C_12  and  O_22
REMARK   12  A    between atoms: C_16  and  O_20
REMARK   13  A    between atoms: O_20  and  C_21
REMARK   14  A    between atoms: C_31  and  N_33
REMARK                            x       y       z     vdW  Elec       q    Type
REMARK                         _______ _______ _______ _____ _____    ______ ____
ROOT
ATOM      1  N   UNL     1       4.441   6.115   0.113  0.00  0.00    -0.284 N 
ATOM      2  C   UNL     1       4.953   6.949  -0.978  0.00  0.00    +0.145 C 
ATOM      3  C   UNL     1       6.347   7.375  -0.580  0.00  0.00    +0.071 C 
ATOM      4  C   UNL     1       7.211   8.172  -1.306  0.00  0.00    +0.133 C 
ATOM      5  C   UNL     1       6.587   6.799   0.677  0.00  0.00    +0.249 C 
ATOM      6  O   UNL     1       7.608   6.912   1.331  0.00  0.00    -0.282 OA
ATOM      7  C   UNL     1       5.377   6.029   1.073  0.00  0.00    +0.288 C 
ATOM      8  O   UNL     1       5.254   5.412   2.112  0.00  0.00    -0.266 OA
ENDROOT
BRANCH   4   9
ATOM      9  C   UNL     1       8.478   8.619  -0.707  0.00  0.00    +0.019 A 
ATOM     10  C   UNL     1       8.483   9.226   0.555  0.00  0.00    +0.015 A 
ATOM     11  C   UNL     1       9.671   9.638   1.113  0.00  0.00    +0.048 A 
ATOM     12  C   UNL     1      10.865   9.463   0.422  0.00  0.00    +0.138 A 
ATOM     13  C   UNL     1      10.866   8.866  -0.835  0.00  0.00    +0.083 A 
ATOM     14  C   UNL     1       9.682   8.445  -1.399  0.00  0.00    +0.035 A 
ATOM     15 CL   UNL     1      12.360   8.650  -1.691  0.00  0.00    -0.080 Cl
BRANCH  12  16
ATOM     16  O   UNL     1      12.034   9.876   0.976  0.00  0.00    -0.494 OA
ATOM     17  C   UNL     1      11.961  10.481   2.268  0.00  0.00    +0.277 C 
ENDBRANCH  12  16
ENDBRANCH   4   9
BRANCH   2  18
ATOM     18  C   UNL     1       5.002   6.152  -2.257  0.00  0.00    -0.020 A 
ATOM     19  C   UNL     1       5.417   4.833  -2.234  0.00  0.00    +0.006 A 
ATOM     20  C   UNL     1       5.458   4.101  -3.406  0.00  0.00    +0.003 A 
ATOM     21  C   UNL     1       5.093   4.691  -4.602  0.00  0.00    +0.033 A 
ATOM     22  C   UNL     1       4.682   6.010  -4.625  0.00  0.00    +0.127 A 
ATOM     23  C   UNL     1       4.638   6.741  -3.453  0.00  0.00    +0.038 A 
BRANCH  22  24
ATOM     24  N   UNL     1       4.292   6.641  -5.906  0.00  0.00    +0.056 N 
ATOM     25  O   UNL     1       3.930   7.804  -5.927  0.00  0.00    -0.126 OA
ATOM     26  O   UNL     1       4.331   5.997  -6.939  0.00  0.00    -0.126 OA
ENDBRANCH  22  24
ENDBRANCH   2  18
BRANCH   4  27
ATOM     27  O   UNL     1       6.892   8.540  -2.565  0.00  0.00    -0.506 OA
ATOM     28  H   UNL     1       7.623   9.111  -2.940  0.00  0.00    +0.292 HD
ENDBRANCH   4  27
BRANCH   1  29
ATOM     29  C   UNL     1       3.120   5.483   0.154  0.00  0.00    +0.107 C 
BRANCH  29  30
ATOM     30  C   UNL     1       3.201   4.090  -0.474  0.00  0.00    +0.000 C 
BRANCH  30  31
ATOM     31  C   UNL     1       1.822   3.430  -0.432  0.00  0.00    -0.077 C 
BRANCH  31  32
ATOM     32  N   UNL     1       1.917   2.089  -1.045  0.00  0.00    +0.379 N 
ATOM     33  H   UNL     1       2.736   1.604  -0.659  0.00  0.00    -0.082 HD
BRANCH  32  35
ATOM     34  C   UNL     1       0.923  -0.141  -1.186  0.00  0.00    -0.017 C 
ATOM     35  C   UNL     1       0.704   1.304  -0.735  0.00  0.00    -0.082 C 
ENDBRANCH  32  35
BRANCH  32  36
ATOM     36  C   UNL     1       2.079   2.213  -2.509  0.00  0.00    -0.082 C 
ATOM     37  C   UNL     1       0.881   2.942  -3.121  0.00  0.00    -0.017 C 
ENDBRANCH  32  36
ENDBRANCH  31  32
ENDBRANCH  30  31
ENDBRANCH  29  30
ENDBRANCH   1  29
TORSDOF 11
