REMARK  Name = ZINC06281732
REMARK  10 active torsions:
REMARK  status: ('A' for Active; 'I' for Inactive)
REMARK    1  A    between atoms: C_1  and  C_2
REMARK    2  A    between atoms: C_9  and  C_14
REMARK    3  A    between atoms: C_14  and  C_16
REMARK    4  A    between atoms: C_14  and  N_66
REMARK    5  A    between atoms: N_20  and  C_21
REMARK    6  A    between atoms: C_21  and  C_22
REMARK    7  A    between atoms: C_28  and  C_29
REMARK    8  A    between atoms: C_28  and  N_66
REMARK    9  A    between atoms: C_35  and  C_36
REMARK   10  A    between atoms: C_35  and  N_66
REMARK                            x       y       z     vdW  Elec       q    Type
REMARK                         _______ _______ _______ _____ _____    ______ ____
ROOT
ATOM      1  C   UNL     1       1.977   6.637  -1.649  0.00  0.00    +0.040 C 
ENDROOT
BRANCH   1  10
ATOM      2  C   UNL     1      -1.994   2.126  -6.064  0.00  0.00    +0.044 C 
ATOM      3  C   UNL     1      -1.871   3.378  -5.234  0.00  0.00    -0.050 A 
ATOM      4  C   UNL     1      -2.951   4.244  -5.131  0.00  0.00    +0.005 A 
ATOM      5  C   UNL     1      -2.860   5.395  -4.378  0.00  0.00    +0.026 A 
ATOM      6  C   UNL     1      -1.675   5.693  -3.713  0.00  0.00    +0.049 A 
ATOM      7  C   UNL     1      -0.582   4.813  -3.821  0.00  0.00    -0.001 A 
ATOM      8  C   UNL     1      -0.697   3.651  -4.591  0.00  0.00    +0.013 A 
ATOM      9  C   UNL     1       0.662   5.138  -3.121  0.00  0.00    +0.017 A 
ATOM     10  C   UNL     1       0.713   6.276  -2.385  0.00  0.00    +0.011 A 
ATOM     11  C   UNL     1      -0.412   7.125  -2.310  0.00  0.00    +0.251 A 
ATOM     12  O   UNL     1      -0.343   8.145  -1.647  0.00  0.00    -0.268 OA
ATOM     13  N   UNL     1      -1.557   6.837  -2.953  0.00  0.00    -0.322 N 
ATOM     14  H   UNL     1      -2.311   7.443  -2.880  0.00  0.00    +0.169 HD
ENDBRANCH   1  10
BRANCH   1  15
ATOM     15  C   UNL     1       3.082   5.697  -2.056  0.00  0.00    +0.143 A 
ATOM     16  N   UNL     1       3.535   5.500  -3.270  0.00  0.00    -0.115 NA
ATOM     17  N   UNL     1       4.477   4.623  -3.206  0.00  0.00    -0.023 NA
ATOM     18  N   UNL     1       4.641   4.260  -1.982  0.00  0.00    -0.044 NA
ATOM     19  N   UNL     1       3.795   4.895  -1.243  0.00  0.00    -0.226 N 
BRANCH  19  20
ATOM     20  C   UNL     1       3.644   4.771   0.209  0.00  0.00    +0.182 C 
BRANCH  20  21
ATOM     21  C   UNL     1       2.759   3.593   0.523  0.00  0.00    -0.026 A 
ATOM     22  C   UNL     1       3.300   2.323   0.598  0.00  0.00    +0.005 A 
ATOM     23  C   UNL     1       2.488   1.242   0.886  0.00  0.00    +0.000 A 
ATOM     24  C   UNL     1       1.135   1.430   1.095  0.00  0.00    +0.000 A 
ATOM     25  C   UNL     1       0.595   2.700   1.026  0.00  0.00    +0.000 A 
ATOM     26  C   UNL     1       1.406   3.782   0.738  0.00  0.00    +0.005 A 
ENDBRANCH  20  21
ENDBRANCH  19  20
ENDBRANCH   1  15
BRANCH   1  27
ATOM     27  N   UNL     1       2.337   8.032  -1.980  0.00  0.00    +0.397 N 
ATOM     28  H   UNL     1       1.497   8.619  -1.908  0.00  0.00    -0.079 HD
BRANCH  27  29
ATOM     29  C   UNL     1       3.354   8.531  -1.030  0.00  0.00    -0.039 C 
BRANCH  29  30
ATOM     30  C   UNL     1       2.659   8.969   0.234  0.00  0.00    -0.046 A 
ATOM     31  C   UNL     1       2.090  10.230   0.321  0.00  0.00    +0.005 A 
ATOM     32  C   UNL     1       1.457  10.589   1.501  0.00  0.00    +0.020 A 
ATOM     33  C   UNL     1       1.423   9.687   2.548  0.00  0.00    +0.111 A 
ATOM     34  N   UNL     1       1.980   8.497   2.431  0.00  0.00    -0.263 NA
ATOM     35  C   UNL     1       2.586   8.121   1.322  0.00  0.00    +0.112 A 
ENDBRANCH  29  30
ENDBRANCH  27  29
BRANCH  27  36
ATOM     36  C   UNL     1       2.857   8.106  -3.361  0.00  0.00    -0.001 C 
BRANCH  36  37
ATOM     37  C   UNL     1       1.694   8.054  -4.318  0.00  0.00    +0.089 A 
ATOM     38  C   UNL     1       0.899   9.088  -4.646  0.00  0.00    +0.042 A 
ATOM     39  C   UNL     1      -0.054   8.595  -5.568  0.00  0.00    +0.041 A 
ATOM     40  C   UNL     1       0.217   7.290  -5.747  0.00  0.00    +0.195 A 
ATOM     41  O   UNL     1       1.280   6.969  -4.993  0.00  0.00    -0.470 OA
ENDBRANCH  36  37
ENDBRANCH  27  36
ENDBRANCH   1  27
TORSDOF 9
