REMARK  Name = ZINC17852865
REMARK  9 active torsions:
REMARK  status: ('A' for Active; 'I' for Inactive)
REMARK    1  A    between atoms: C_1  and  C_2
REMARK    2  A    between atoms: C_2  and  C_4
REMARK    3  A    between atoms: C_2  and  N_14
REMARK    4  A    between atoms: C_7  and  S_10
REMARK    5  A    between atoms: S_10  and  N_13
REMARK    6  A    between atoms: C_15  and  C_17
REMARK    7  A    between atoms: C_17  and  C_18
REMARK    8  A    between atoms: C_18  and  C_19
REMARK    9  A    between atoms: C_19  and  N_20
REMARK                            x       y       z     vdW  Elec       q    Type
REMARK                         _______ _______ _______ _____ _____    ______ ____
ROOT
ATOM      1  N   UNL     1      -0.011   0.966   0.007  0.00  0.00    -0.309 N 
ATOM      2  C   UNL     1       1.147   1.655   0.000  0.00  0.00    +0.214 C 
ATOM      3  O   UNL     1       1.130   2.868   0.007  0.00  0.00    -0.276 OA
ATOM      4  H   UNL     1       0.002  -0.004   0.002  0.00  0.00    +0.149 HD
ENDROOT
BRANCH   1   6
ATOM      5  C   UNL     1      -1.667   2.032   1.458  0.00  0.00    +0.033 C 
ATOM      6  C   UNL     1      -1.290   1.681   0.017  0.00  0.00    +0.100 C 
BRANCH   6   7
ATOM      7  C   UNL     1      -2.360   0.806  -0.583  0.00  0.00    -0.027 A 
ATOM      8  C   UNL     1      -2.384  -0.548  -0.302  0.00  0.00    +0.007 A 
ATOM      9  C   UNL     1      -3.368  -1.350  -0.848  0.00  0.00    +0.029 A 
ATOM     10  C   UNL     1      -4.322  -0.800  -1.685  0.00  0.00    +0.105 A 
ATOM     11  C   UNL     1      -4.295   0.552  -1.970  0.00  0.00    +0.029 A 
ATOM     12  C   UNL     1      -3.313   1.355  -1.419  0.00  0.00    +0.007 A 
BRANCH  10  13
ATOM     13  S   UNL     1      -5.572  -1.824  -2.387  0.00  0.00    +0.056 S 
ATOM     14  O   UNL     1      -5.703  -2.951  -1.531  0.00  0.00    -0.153 OA
ATOM     15  O   UNL     1      -6.667  -0.973  -2.698  0.00  0.00    -0.153 OA
BRANCH  13  16
ATOM     16  N   UNL     1      -4.988  -2.390  -3.829  0.00  0.00    -0.204 NA
ATOM     17  H   UNL     1      -4.101  -2.134  -4.128  0.00  0.00    +0.144 HD
ATOM     18  H   UNL     1      -5.533  -2.978  -4.376  0.00  0.00    +0.144 HD
ENDBRANCH  13  16
ENDBRANCH  10  13
ENDBRANCH   6   7
ENDBRANCH   1   6
BRANCH   2  19
ATOM     19  C   UNL     1       2.462   0.920  -0.017  0.00  0.00    +0.097 C 
BRANCH  19  20
ATOM     20  C   UNL     1       3.611   1.930  -0.022  0.00  0.00    +0.029 C 
BRANCH  20  21
ATOM     21  C   UNL     1       4.946   1.183  -0.039  0.00  0.00    +0.117 C 
BRANCH  21  22
ATOM     22  N   UNL     1       6.047   2.150  -0.044  0.00  0.00    -0.234 N 
ATOM     23  C   UNL     1       6.612   2.654  -1.156  0.00  0.00    +0.254 C 
ATOM     24  O   UNL     1       6.295   2.383  -2.297  0.00  0.00    -0.270 OA
ATOM     25  C   UNL     1       7.680   3.594  -0.757  0.00  0.00    +0.049 A 
ATOM     26  C   UNL     1       8.577   4.390  -1.452  0.00  0.00    +0.015 A 
ATOM     27  C   UNL     1       9.481   5.176  -0.754  0.00  0.00    +0.016 A 
ATOM     28  C   UNL     1       9.495   5.169   0.629  0.00  0.00    +0.019 A 
ATOM     29  C   UNL     1       8.603   4.376   1.337  0.00  0.00    +0.029 A 
ATOM     30  C   UNL     1       7.694   3.587   0.652  0.00  0.00    +0.050 A 
ATOM     31  C   UNL     1       6.629   2.647   1.062  0.00  0.00    +0.254 C 
ATOM     32  O   UNL     1       6.330   2.369   2.206  0.00  0.00    -0.270 OA
ATOM     33 BR   UNL     1      10.738   6.247   1.561  0.00  0.00    -0.050 Br
ENDBRANCH  21  22
ENDBRANCH  20  21
ENDBRANCH  19  20
ENDBRANCH   2  19
TORSDOF 8
