REMARK  Name = ZINC45954167
REMARK  3 active torsions:
REMARK  status: ('A' for Active; 'I' for Inactive)
REMARK    1  A    between atoms: C_3  and  N_18
REMARK    2  A    between atoms: C_6  and  C_7
REMARK    3  A    between atoms: C_11  and  N_16
REMARK                            x       y       z     vdW  Elec       q    Type
REMARK                         _______ _______ _______ _____ _____    ______ ____
ROOT
ATOM      1  C   UNL     1      -1.266  -0.761   0.011  0.00  0.00    +0.228 A 
ATOM      2  N   UNL     1      -1.360  -2.067   0.010  0.00  0.00    -0.209 NA
ATOM      3  C   UNL     1      -2.674  -2.410   0.020  0.00  0.00    +0.112 A 
ATOM      4  C   UNL     1      -3.350  -3.632   0.023  0.00  0.00    +0.054 A 
ATOM      5  C   UNL     1      -4.733  -3.649   0.033  0.00  0.00    +0.027 A 
ATOM      6  C   UNL     1      -5.450  -2.455   0.040  0.00  0.00    +0.026 A 
ATOM      7  C   UNL     1      -4.790  -1.244   0.037  0.00  0.00    +0.050 A 
ATOM      8  C   UNL     1      -3.404  -1.211   0.027  0.00  0.00    +0.156 A 
ATOM      9  O   UNL     1      -2.494  -0.210   0.026  0.00  0.00    -0.435 OA
ENDROOT
BRANCH   1  15
ATOM     10  C   UNL     1      -0.017   1.393   0.010  0.00  0.00    +0.015 A 
ATOM     11  C   UNL     1       1.167   2.096   0.002  0.00  0.00    +0.025 A 
ATOM     12  C   UNL     1       2.381   1.418  -0.013  0.00  0.00    +0.043 A 
ATOM     13  C   UNL     1       2.404   0.026  -0.021  0.00  0.00    +0.062 A 
ATOM     14  C   UNL     1       1.223  -0.683  -0.014  0.00  0.00    +0.035 A 
ATOM     15  C   UNL     1       0.002  -0.004   0.002  0.00  0.00    +0.038 A 
ATOM     16 CL   UNL     1       3.922  -0.816  -0.041  0.00  0.00    -0.082 Cl
BRANCH  12  17
ATOM     17  N   UNL     1       3.578   2.134  -0.022  0.00  0.00    -0.357 N 
ATOM     18  H   UNL     1       3.563   3.104  -0.017  0.00  0.00    +0.142 HD
ATOM     19  H   UNL     1       4.425   1.662  -0.033  0.00  0.00    +0.142 HD
ENDBRANCH  12  17
ENDBRANCH   1  15
BRANCH   5  20
ATOM     20  N   UNL     1      -5.415  -4.871   0.037  0.00  0.00    -0.358 N 
ATOM     21  H   UNL     1      -4.918  -5.704   0.032  0.00  0.00    +0.142 HD
ATOM     22  H   UNL     1      -6.385  -4.885   0.044  0.00  0.00    +0.142 HD
ENDBRANCH   5  20
TORSDOF 3
