REMARK  Name = ZINC05638725
REMARK  8 active torsions:
REMARK  status: ('A' for Active; 'I' for Inactive)
REMARK    1  A    between atoms: C_1  and  C_2
REMARK    2  A    between atoms: C_2  and  C_8
REMARK    3  A    between atoms: N_3  and  N_4
REMARK    4  A    between atoms: N_4  and  C_5
REMARK    5  A    between atoms: C_5  and  N_7
REMARK    6  A    between atoms: C_14  and  C_33
REMARK    7  A    between atoms: C_25  and  C_32
REMARK    8  A    between atoms: C_28  and  O_31
REMARK                            x       y       z     vdW  Elec       q    Type
REMARK                         _______ _______ _______ _____ _____    ______ ____
ROOT
ATOM      1  C   UNL     1      -2.061   2.844  -2.406  0.00  0.00    +0.041 C 
ATOM      2  C   UNL     1      -0.669   2.592  -3.044  0.00  0.00    +0.010 C 
ATOM      3  C   UNL     1       0.179   1.854  -1.975  0.00  0.00    +0.005 C 
ATOM      4  C   UNL     1      -0.848   1.453  -0.906  0.00  0.00    -0.001 C 
ATOM      5  C   UNL     1      -1.799   2.665  -0.897  0.00  0.00    -0.021 C 
ATOM      6  C   UNL     1      -3.004   2.428  -0.031  0.00  0.00    +0.008 C 
ATOM      7  C   UNL     1      -2.648   1.580   1.201  0.00  0.00    +0.005 C 
ATOM      8  C   UNL     1      -1.176   1.706   1.559  0.00  0.00    -0.001 C 
ATOM      9  C   UNL     1      -0.307   1.117   0.450  0.00  0.00    -0.004 C 
ATOM     10  C   UNL     1       1.154   1.494   0.653  0.00  0.00    +0.004 C 
ATOM     11  C   UNL     1       1.534   1.264   2.126  0.00  0.00    +0.004 C 
ATOM     12  C   UNL     1       0.511   0.323   2.745  0.00  0.00    -0.002 C 
ATOM     13  C   UNL     1      -0.849   1.009   2.880  0.00  0.00    -0.026 C 
ATOM     14  C   UNL     1      -1.887  -0.036   3.269  0.00  0.00    +0.010 C 
ATOM     15  C   UNL     1      -1.488  -0.686   4.598  0.00  0.00    +0.032 C 
ATOM     16  C   UNL     1      -0.091  -1.293   4.525  0.00  0.00    +0.115 C 
ATOM     17  C   UNL     1       0.946  -0.253   4.085  0.00  0.00    +0.035 C 
ATOM     18  C   UNL     1      -0.791   2.091   3.962  0.00  0.00    +0.012 C 
ATOM     19  C   UNL     1      -1.074   3.946  -0.447  0.00  0.00    +0.012 C 
ENDROOT
BRANCH   1  21
ATOM     20  C   UNL     1      -3.524   1.941  -4.362  0.00  0.00    +0.062 C 
ATOM     21  C   UNL     1      -3.055   1.851  -2.933  0.00  0.00    +0.037 C 
ATOM     22  N   UNL     1      -3.503   0.927  -2.169  0.00  0.00    -0.190 NA
BRANCH  22  23
ATOM     23  N   UNL     1      -4.431  -0.001  -2.661  0.00  0.00    -0.219 N 
ATOM     24  H   UNL     1      -4.733   0.057  -3.581  0.00  0.00    +0.176 HD
BRANCH  23  25
ATOM     25  C   UNL     1      -4.903  -0.973  -1.856  0.00  0.00    +0.147 C 
ATOM     26  S   UNL     1      -6.036  -2.107  -2.458  0.00  0.00    -0.017 S 
BRANCH  25  27
ATOM     27  N   UNL     1      -4.483  -1.054  -0.578  0.00  0.00    -0.339 N 
ATOM     28  H   UNL     1      -3.841  -0.411  -0.237  0.00  0.00    +0.144 HD
ATOM     29  H   UNL     1      -4.823  -1.754   0.001  0.00  0.00    +0.144 HD
ENDBRANCH  25  27
ENDBRANCH  23  25
ENDBRANCH  22  23
ENDBRANCH   1  21
BRANCH  16  30
ATOM     30  O   UNL     1       0.271  -1.797   5.814  0.00  0.00    -0.392 OA
ATOM     31  H   UNL     1      -0.339  -2.462   6.162  0.00  0.00    +0.210 HD
ENDBRANCH  16  30
TORSDOF 5
