REMARK  Name = ZINC64491466
REMARK  10 active torsions:
REMARK  status: ('A' for Active; 'I' for Inactive)
REMARK    1  A    between atoms: C_1  and  C_2
REMARK    2  A    between atoms: C_8  and  C_11
REMARK    3  A    between atoms: C_11  and  C_12
REMARK    4  A    between atoms: C_12  and  N_13
REMARK    5  A    between atoms: C_14  and  C_16
REMARK    6  A    between atoms: C_16  and  S_17
REMARK    7  A    between atoms: S_17  and  C_18
REMARK    8  A    between atoms: C_18  and  C_19
REMARK    9  A    between atoms: C_23  and  C_26
REMARK   10  A    between atoms: N_28  and  C_29
REMARK                            x       y       z     vdW  Elec       q    Type
REMARK                         _______ _______ _______ _____ _____    ______ ____
ROOT
ATOM      1  C   UNL     1      -2.546  -2.329   7.759  0.00  0.00    +0.164 C 
ENDROOT
BRANCH   1   3
ATOM      2  N   UNL     1      -1.396  -2.579   5.583  0.00  0.00    -0.314 N 
ATOM      3  C   UNL     1      -2.554  -2.580   6.273  0.00  0.00    +0.223 C 
ATOM      4  O   UNL     1      -3.602  -2.784   5.698  0.00  0.00    -0.275 OA
ATOM      5  H   UNL     1      -0.557  -2.416   6.043  0.00  0.00    +0.149 HD
BRANCH   2   6
ATOM      6  C   UNL     1      -1.404  -2.823   4.139  0.00  0.00    +0.108 C 
BRANCH   6   7
ATOM      7  C   UNL     1       0.029  -2.768   3.605  0.00  0.00    +0.052 C 
BRANCH   7  15
ATOM      8  C   UNL     1      -0.050   1.558   0.002  0.00  0.00    +0.044 C 
ATOM      9  C   UNL     1      -0.032   0.051  -0.016  0.00  0.00    -0.050 A 
ATOM     10  C   UNL     1      -0.034  -0.617  -1.248  0.00  0.00    +0.005 A 
ATOM     11  C   UNL     1      -0.018  -1.963  -1.348  0.00  0.00    +0.026 A 
ATOM     12  C   UNL     1       0.000  -2.771  -0.177  0.00  0.00    +0.043 A 
ATOM     13  N   UNL     1       0.016  -4.071  -0.014  0.00  0.00    -0.380 N 
ATOM     14  C   UNL     1       0.031  -4.362   1.424  0.00  0.00    +0.144 C 
ATOM     15  C   UNL     1       0.021  -3.019   2.119  0.00  0.00    -0.040 C 
ATOM     16  C   UNL     1       0.003  -2.089   1.137  0.00  0.00    -0.001 A 
ATOM     17  C   UNL     1      -0.009  -0.621   1.157  0.00  0.00    +0.013 A 
ATOM     18  H   UNL     1       0.018  -4.731  -0.725  0.00  0.00    +0.160 HD
ENDBRANCH   7  15
ENDBRANCH   6   7
ENDBRANCH   2   6
ENDBRANCH   1   3
BRANCH   1  19
ATOM     19  S   UNL     1      -4.244  -2.394   8.393  0.00  0.00    -0.148 S 
BRANCH  19  20
ATOM     20  C   UNL     1      -4.063  -2.076  10.169  0.00  0.00    +0.109 C 
BRANCH  20  21
ATOM     21  C   UNL     1      -5.440  -2.104  10.836  0.00  0.00    +0.197 C 
ATOM     22  N   UNL     1      -6.153  -3.369  10.547  0.00  0.00    -0.176 NA
ATOM     23  N   UNL     1      -7.306  -3.357  10.162  0.00  0.00    -0.167 NA
ATOM     24  C   UNL     1      -8.026  -2.077   9.971  0.00  0.00    +0.272 C 
ATOM     25  S   UNL     1      -6.598  -0.903  10.039  0.00  0.00    -0.094 S 
BRANCH  24  26
ATOM     26  C   UNL     1      -8.999  -1.822  11.093  0.00  0.00    +0.254 C 
ATOM     27  O   UNL     1      -8.770  -0.956  11.910  0.00  0.00    -0.272 OA
ATOM     28  N   UNL     1     -10.125  -2.557  11.188  0.00  0.00    -0.283 N 
ATOM     29  H   UNL     1     -10.342  -3.204  10.498  0.00  0.00    +0.155 HD
BRANCH  28  30
ATOM     30  C   UNL     1     -10.981  -2.388  12.282  0.00  0.00    +0.033 A 
ATOM     31  C   UNL     1     -11.656  -3.479  12.813  0.00  0.00    +0.023 A 
ATOM     32  C   UNL     1     -12.500  -3.308  13.893  0.00  0.00    +0.002 A 
ATOM     33  C   UNL     1     -12.673  -2.053  14.445  0.00  0.00    +0.000 A 
ATOM     34  C   UNL     1     -12.002  -0.964  13.919  0.00  0.00    +0.002 A 
ATOM     35  C   UNL     1     -11.152  -1.129  12.843  0.00  0.00    +0.023 A 
ENDBRANCH  28  30
ENDBRANCH  24  26
ENDBRANCH  20  21
ENDBRANCH  19  20
ENDBRANCH   1  19
TORSDOF 9
