REMARK  Name = ZINC09130177
REMARK  6 active torsions:
REMARK  status: ('A' for Active; 'I' for Inactive)
REMARK    1  A    between atoms: C_3  and  C_8
REMARK    2  A    between atoms: C_5  and  O_7
REMARK    3  A    between atoms: C_10  and  C_22
REMARK    4  A    between atoms: C_12  and  C_17
REMARK    5  A    between atoms: C_12  and  O_21
REMARK    6  A    between atoms: C_22  and  C_24
REMARK                            x       y       z     vdW  Elec       q    Type
REMARK                         _______ _______ _______ _____ _____    ______ ____
ROOT
ATOM      1  C   UNL     1       3.668   2.182  -0.024  0.00  0.00    +0.120 C 
ATOM      2  C   UNL     1       4.030   2.572  -1.461  0.00  0.00    +0.144 C 
ATOM      3  C   UNL     1       5.279   3.459  -1.426  0.00  0.00    +0.243 C 
ATOM      4  N   UNL     1       5.030   4.604  -0.549  0.00  0.00    -0.264 N 
ATOM      5  C   UNL     1       4.182   4.519   0.487  0.00  0.00    +0.302 C 
ATOM      6  O   UNL     1       4.019   5.497   1.191  0.00  0.00    -0.253 OA
ATOM      7  N   UNL     1       3.506   3.396   0.778  0.00  0.00    -0.292 N 
ATOM      8  H   UNL     1       5.487   5.442  -0.720  0.00  0.00    +0.153 HD
ATOM      9  H   UNL     1       2.899   3.389   1.534  0.00  0.00    +0.151 HD
ENDROOT
BRANCH   1  12
ATOM     10  C   UNL     1       1.220  -0.691  -0.147  0.00  0.00    +0.004 A 
ATOM     11  C   UNL     1       2.402   0.026  -0.147  0.00  0.00    +0.006 A 
ATOM     12  C   UNL     1       2.378   1.403  -0.024  0.00  0.00    -0.023 A 
ATOM     13  C   UNL     1       1.171   2.065   0.099  0.00  0.00    +0.051 A 
ATOM     14  C   UNL     1      -0.016   1.348   0.100  0.00  0.00    +0.117 A 
ATOM     15  C   UNL     1       0.012  -0.034  -0.024  0.00  0.00    +0.045 A 
BRANCH  14  16
ATOM     16  O   UNL     1      -1.204   1.997   0.221  0.00  0.00    -0.507 OA
ATOM     17  H   UNL     1      -1.594   2.263  -0.623  0.00  0.00    +0.292 HD
ENDBRANCH  14  16
ENDBRANCH   1  12
BRANCH   3  18
ATOM     18  C   UNL     1       6.464   2.653  -0.890  0.00  0.00    +0.436 C 
ATOM     19  F   UNL     1       6.696   1.555  -1.724  0.00  0.00    -0.166 F 
ATOM     20  F   UNL     1       7.603   3.464  -0.858  0.00  0.00    -0.166 F 
ATOM     21  F   UNL     1       6.175   2.203   0.403  0.00  0.00    -0.166 F 
ENDBRANCH   3  18
BRANCH   3  22
ATOM     22  O   UNL     1       5.573   3.923  -2.745  0.00  0.00    -0.364 OA
ATOM     23  H   UNL     1       6.354   4.492  -2.797  0.00  0.00    +0.212 HD
ENDBRANCH   3  22
BRANCH   2  24
ATOM     24  C   UNL     1       2.885   3.328  -2.085  0.00  0.00    +0.173 C 
ATOM     25  O   UNL     1       2.213   4.077  -1.408  0.00  0.00    -0.292 OA
BRANCH  24  26
ATOM     26  C   UNL     1       2.583   3.158  -3.514  0.00  0.00    +0.018 A 
ATOM     27  C   UNL     1       3.352   2.290  -4.296  0.00  0.00    +0.013 A 
ATOM     28  C   UNL     1       3.063   2.135  -5.635  0.00  0.00    +0.020 A 
ATOM     29  C   UNL     1       2.013   2.836  -6.206  0.00  0.00    +0.041 A 
ATOM     30  C   UNL     1       1.247   3.697  -5.437  0.00  0.00    +0.020 A 
ATOM     31  C   UNL     1       1.521   3.858  -4.096  0.00  0.00    +0.013 A 
ATOM     32 CL   UNL     1       1.657   2.635  -7.893  0.00  0.00    -0.084 Cl
ENDBRANCH  24  26
ENDBRANCH   2  24
TORSDOF 6
