REMARK  Name = ZINC02476875
REMARK  10 active torsions:
REMARK  status: ('A' for Active; 'I' for Inactive)
REMARK    1  A    between atoms: C_1  and  O_2
REMARK    2  A    between atoms: O_2  and  C_3
REMARK    3  A    between atoms: C_6  and  O_33
REMARK    4  A    between atoms: C_7  and  C_9
REMARK    5  A    between atoms: C_14  and  C_19
REMARK    6  A    between atoms: C_26  and  N_32
REMARK    7  A    between atoms: C_27  and  C_28
REMARK    8  A    between atoms: C_28  and  O_30
REMARK    9  A    between atoms: O_30  and  C_31
REMARK   10  A    between atoms: O_33  and  C_34
REMARK                            x       y       z     vdW  Elec       q    Type
REMARK                         _______ _______ _______ _____ _____    ______ ____
ROOT
ATOM      1  C   UNL     1      -0.637  -4.392   0.161  0.00  0.00    +0.101 C 
ATOM      2  C   UNL     1      -0.824  -2.907  -0.041  0.00  0.00    +0.045 C 
ATOM      3  C   UNL     1      -0.908  -2.078   1.015  0.00  0.00    +0.115 C 
ATOM      4  C   UNL     1      -1.107  -0.594   0.814  0.00  0.00    +0.083 C 
ATOM      5  C   UNL     1      -0.438  -0.157  -0.491  0.00  0.00    +0.034 C 
ATOM      6  C   UNL     1      -1.059  -0.953  -1.644  0.00  0.00    +0.088 C 
ATOM      7  C   UNL     1      -0.901  -2.422  -1.361  0.00  0.00    +0.164 C 
ATOM      8  O   UNL     1      -0.840  -3.205  -2.288  0.00  0.00    -0.292 OA
ATOM      9  O   UNL     1      -0.817  -2.538   2.277  0.00  0.00    -0.446 OA
ATOM     10  C   UNL     1      -1.079  -3.827   2.538  0.00  0.00    +0.195 C 
ATOM     11  C   UNL     1      -1.009  -4.773   1.566  0.00  0.00    +0.105 C 
ENDROOT
BRANCH   1  16
ATOM     12  C   UNL     1       3.129  -4.514   0.444  0.00  0.00    +0.121 A 
ATOM     13  C   UNL     1       3.454  -5.420  -0.556  0.00  0.00    +0.049 A 
ATOM     14  C   UNL     1       2.455  -5.990  -1.321  0.00  0.00    +0.049 A 
ATOM     15  C   UNL     1       1.129  -5.658  -1.090  0.00  0.00    +0.124 A 
ATOM     16  C   UNL     1       0.804  -4.753  -0.090  0.00  0.00    +0.010 A 
ATOM     17  C   UNL     1       1.803  -4.178   0.671  0.00  0.00    +0.053 A 
BRANCH  12  19
ATOM     18  C   UNL     1       5.456  -4.340   0.905  0.00  0.00    +0.277 C 
ATOM     19  O   UNL     1       4.112  -3.953   1.198  0.00  0.00    -0.495 OA
ENDBRANCH  12  19
BRANCH  15  20
ATOM     20  O   UNL     1       0.146  -6.220  -1.843  0.00  0.00    -0.495 OA
ATOM     21  C   UNL     1       0.552  -7.143  -2.855  0.00  0.00    +0.277 C 
ENDBRANCH  15  20
ENDBRANCH   1  16
BRANCH   5  22
ATOM     22  C   UNL     1      -0.669   1.316  -0.710  0.00  0.00    -0.043 A 
ATOM     23  C   UNL     1      -1.957   1.804  -0.824  0.00  0.00    +0.004 A 
ATOM     24  C   UNL     1      -2.169   3.156  -1.021  0.00  0.00    +0.000 A 
ATOM     25  C   UNL     1      -1.092   4.018  -1.114  0.00  0.00    +0.000 A 
ATOM     26  C   UNL     1       0.196   3.529  -1.005  0.00  0.00    +0.000 A 
ATOM     27  C   UNL     1       0.408   2.178  -0.804  0.00  0.00    +0.004 A 
ENDBRANCH   5  22
BRANCH  10  28
ATOM     28  N   UNL     1      -1.423  -4.196   3.811  0.00  0.00    -0.329 N 
ATOM     29  H   UNL     1      -1.034  -3.737   4.572  0.00  0.00    +0.145 HD
ATOM     30  H   UNL     1      -2.056  -4.918   3.952  0.00  0.00    +0.145 HD
ENDBRANCH  10  28
BRANCH  11  31
ATOM     31  C   UNL     1      -1.285  -6.114   1.876  0.00  0.00    +0.341 C 
ATOM     32  O   UNL     1      -1.476  -6.445   3.033  0.00  0.00    -0.245 OA
BRANCH  31  33
ATOM     33  O   UNL     1      -1.339  -7.037   0.892  0.00  0.00    -0.465 OA
ATOM     34  C   UNL     1      -1.625  -8.382   1.280  0.00  0.00    +0.280 C 
ENDBRANCH  31  33
ENDBRANCH  11  31
TORSDOF 7
