REMARK  Name = ZINC39540947
REMARK  8 active torsions:
REMARK  status: ('A' for Active; 'I' for Inactive)
REMARK    1  A    between atoms: C_1  and  C_2
REMARK    2  A    between atoms: C_2  and  C_3
REMARK    3  A    between atoms: C_2  and  S_4
REMARK    4  A    between atoms: S_4  and  N_7
REMARK    5  A    between atoms: C_9  and  C_19
REMARK    6  A    between atoms: C_10  and  C_12
REMARK    7  A    between atoms: C_17  and  O_18
REMARK    8  A    between atoms: C_24  and  O_25
REMARK                            x       y       z     vdW  Elec       q    Type
REMARK                         _______ _______ _______ _____ _____    ______ ____
ROOT
ATOM      1  N   UNL     1      -2.389  -0.021  -1.361  0.00  0.00    -0.229 N 
ATOM      2  C   UNL     1      -3.038   1.173  -1.444  0.00  0.00    +0.120 A 
ATOM      3  C   UNL     1      -3.470   1.345  -2.721  0.00  0.00    +0.013 A 
ATOM      4  C   UNL     1      -3.043   0.150  -3.465  0.00  0.00    +0.013 A 
ATOM      5  C   UNL     1      -2.384  -0.638  -2.575  0.00  0.00    +0.120 A 
ENDROOT
BRANCH   4   6
ATOM      6  C   UNL     1      -3.279  -0.134  -4.901  0.00  0.00    +0.026 A 
ATOM      7  C   UNL     1      -4.090  -1.202  -5.278  0.00  0.00    +0.012 A 
ATOM      8  C   UNL     1      -4.307  -1.463  -6.616  0.00  0.00    +0.001 A 
ATOM      9  C   UNL     1      -3.722  -0.667  -7.585  0.00  0.00    +0.004 A 
ATOM     10  C   UNL     1      -2.915   0.395  -7.221  0.00  0.00    +0.046 A 
ATOM     11  C   UNL     1      -2.694   0.671  -5.882  0.00  0.00    +0.125 A 
BRANCH  11  12
ATOM     12  O   UNL     1      -1.905   1.718  -5.523  0.00  0.00    -0.506 OA
ATOM     13  H   UNL     1      -0.970   1.493  -5.431  0.00  0.00    +0.292 HD
ENDBRANCH  11  12
ENDBRANCH   4   6
BRANCH   3  14
ATOM     14  C   UNL     1      -4.223   2.505  -3.257  0.00  0.00    +0.026 A 
ATOM     15  C   UNL     1      -3.627   3.762  -3.308  0.00  0.00    +0.012 A 
ATOM     16  C   UNL     1      -4.331   4.839  -3.808  0.00  0.00    +0.001 A 
ATOM     17  C   UNL     1      -5.628   4.673  -4.260  0.00  0.00    +0.004 A 
ATOM     18  C   UNL     1      -6.230   3.429  -4.213  0.00  0.00    +0.046 A 
ATOM     19  C   UNL     1      -5.532   2.339  -3.719  0.00  0.00    +0.125 A 
BRANCH  19  20
ATOM     20  O   UNL     1      -6.120   1.115  -3.678  0.00  0.00    -0.506 OA
ATOM     21  H   UNL     1      -6.598   0.935  -2.857  0.00  0.00    +0.292 HD
ENDBRANCH  19  20
ENDBRANCH   3  14
BRANCH   1  22
ATOM     22  S   UNL     1      -1.700  -0.632   0.015  0.00  0.00    +0.057 S 
ATOM     23  O   UNL     1      -1.703  -2.041  -0.172  0.00  0.00    -0.153 OA
ATOM     24  O   UNL     1      -2.431  -0.041   1.080  0.00  0.00    -0.153 OA
BRANCH  22  26
ATOM     25  C   UNL     1      -0.019   1.526   0.010  0.00  0.00    +0.033 C 
ATOM     26  C   UNL     1       0.002  -0.004   0.002  0.00  0.00    +0.148 C 
ATOM     27  C   UNL     1       0.742  -0.511   1.242  0.00  0.00    +0.033 C 
ENDBRANCH  22  26
ENDBRANCH   1  22
TORSDOF 6
