REMARK  Name = ZINC16934746
REMARK  5 active torsions:
REMARK  status: ('A' for Active; 'I' for Inactive)
REMARK    1  A    between atoms: C_2  and  C_3
REMARK    2  A    between atoms: C_3  and  N_4
REMARK    3  A    between atoms: C_8  and  C_9
REMARK    4  A    between atoms: N_21  and  C_22
REMARK    5  A    between atoms: C_26  and  O_28
REMARK                            x       y       z     vdW  Elec       q    Type
REMARK                         _______ _______ _______ _____ _____    ______ ____
ROOT
ATOM      1  N   UNL     1      -3.910  -0.545  -1.322  0.00  0.00    -0.242 N 
ATOM      2  C   UNL     1      -3.767  -1.661  -2.015  0.00  0.00    +0.259 C 
ATOM      3  O   UNL     1      -4.639  -2.511  -2.016  0.00  0.00    -0.269 OA
ATOM      4  C   UNL     1      -2.567  -1.845  -2.763  0.00  0.00    +0.078 C 
ATOM      5  C   UNL     1      -2.191  -2.894  -3.545  0.00  0.00    +0.030 C 
ATOM      6  S   UNL     1      -1.691  -0.330  -2.406  0.00  0.00    -0.049 S 
ATOM      7  C   UNL     1      -2.912   0.409  -1.332  0.00  0.00    +0.169 C 
ATOM      8  N   UNL     1      -2.874   1.568  -0.713  0.00  0.00    -0.225 NA
ENDROOT
BRANCH   5   9
ATOM      9  C   UNL     1      -0.938  -2.833  -4.298  0.00  0.00    +0.001 A 
ATOM     10  C   UNL     1       0.097  -1.963  -4.096  0.00  0.00    +0.091 A 
ATOM     11  N   UNL     1       1.087  -2.215  -4.991  0.00  0.00    -0.360 N 
ATOM     12  H   UNL     1       1.925  -1.728  -5.041  0.00  0.00    +0.165 HD
ATOM     13  C   UNL     1       0.732  -3.259  -5.821  0.00  0.00    +0.047 A 
ATOM     14  C   UNL     1      -0.545  -3.694  -5.430  0.00  0.00    +0.007 A 
ATOM     15  C   UNL     1      -1.159  -4.747  -6.102  0.00  0.00    +0.010 A 
ATOM     16  C   UNL     1      -0.508  -5.360  -7.151  0.00  0.00    +0.001 A 
ATOM     17  C   UNL     1       0.753  -4.932  -7.538  0.00  0.00    +0.002 A 
ATOM     18  C   UNL     1       1.373  -3.890  -6.882  0.00  0.00    +0.026 A 
ENDBRANCH   5   9
BRANCH   8  19
ATOM     19  C   UNL     1      -1.782   2.381  -0.851  0.00  0.00    +0.070 A 
ATOM     20  C   UNL     1      -0.494   1.848  -0.759  0.00  0.00    +0.028 A 
ATOM     21  C   UNL     1       0.604   2.670  -0.904  0.00  0.00    +0.006 A 
ATOM     22  C   UNL     1       0.435   4.023  -1.135  0.00  0.00    +0.045 A 
ATOM     23  C   UNL     1      -0.841   4.564  -1.223  0.00  0.00    +0.119 A 
ATOM     24  C   UNL     1      -1.951   3.748  -1.079  0.00  0.00    +0.073 A 
BRANCH  23  25
ATOM     25  O   UNL     1      -1.001   5.894  -1.451  0.00  0.00    -0.507 OA
ATOM     26  H   UNL     1      -1.050   6.129  -2.388  0.00  0.00    +0.292 HD
ENDBRANCH  23  25
ENDBRANCH   8  19
BRANCH   1  27
ATOM     27  C   UNL     1      -5.129  -0.320  -0.541  0.00  0.00    +0.142 C 
BRANCH  27  29
ATOM     28  C   UNL     1      -7.345  -0.141  -1.550  0.00  0.00    +0.005 C 
ATOM     29  C   UNL     1      -6.152   0.379  -1.398  0.00  0.00    -0.015 C 
ENDBRANCH  27  29
ENDBRANCH   1  27
TORSDOF 5
