REMARK  Name = ZINC22218232
REMARK  7 active torsions:
REMARK  status: ('A' for Active; 'I' for Inactive)
REMARK    1  A    between atoms: C_1  and  C_2
REMARK    2  A    between atoms: N_11  and  C_15
REMARK    3  A    between atoms: C_15  and  C_16
REMARK    4  A    between atoms: C_16  and  O_18
REMARK    5  A    between atoms: O_18  and  C_19
REMARK    6  A    between atoms: C_19  and  C_20
REMARK    7  A    between atoms: N_25  and  C_26
REMARK                            x       y       z     vdW  Elec       q    Type
REMARK                         _______ _______ _______ _____ _____    ______ ____
ROOT
ATOM      1  C   UNL     1      -2.399   0.321   7.887  0.00  0.00    +0.328 C 
ENDROOT
BRANCH   1   2
ATOM      2  C   UNL     1      -3.073   0.283   9.234  0.00  0.00    +0.258 C 
ATOM      3  O   UNL     1      -4.283   0.254   9.306  0.00  0.00    -0.272 OA
ATOM      4  N   UNL     1      -2.331   0.281  10.359  0.00  0.00    -0.237 N 
ATOM      5  C   UNL     1      -2.934   0.247  11.564  0.00  0.00    +0.306 C 
ATOM      6  O   UNL     1      -4.147   0.217  11.636  0.00  0.00    -0.252 OA
ATOM      7  N   UNL     1      -2.192   0.245  12.689  0.00  0.00    -0.294 N 
ATOM      8  H   UNL     1      -1.234   0.307  10.294  0.00  0.00    +0.159 HD
ATOM      9  H   UNL     1      -1.094   0.271  12.624  0.00  0.00    +0.151 HD
BRANCH   7  10
ATOM     10  C   UNL     1      -2.847   0.208  13.999  0.00  0.00    +0.037 C 
ATOM     11  C   UNL     1      -3.749   1.434  14.153  0.00  0.00    +0.029 C 
ATOM     12  C   UNL     1      -4.433   1.395  15.521  0.00  0.00    -0.008 C 
ATOM     13  C   UNL     1      -3.372   1.401  16.623  0.00  0.00    +0.007 C 
ATOM     14  C   UNL     1      -2.470   0.175  16.469  0.00  0.00    -0.008 C 
ATOM     15  C   UNL     1      -1.786   0.213  15.101  0.00  0.00    +0.029 C 
ATOM     16  C   UNL     1      -3.314  -1.097  16.581  0.00  0.00    +0.007 C 
ATOM     17  C   UNL     1      -4.376  -1.102  15.479  0.00  0.00    -0.008 C 
ATOM     18  C   UNL     1      -5.277   0.124  15.633  0.00  0.00    +0.007 C 
ATOM     19  C   UNL     1      -3.691  -1.064  14.111  0.00  0.00    +0.029 C 
ENDBRANCH   7  10
ENDBRANCH   1   2
BRANCH   1  20
ATOM     20  O   UNL     1      -3.407   0.315   6.841  0.00  0.00    -0.454 OA
BRANCH  20  21
ATOM     21  C   UNL     1      -2.969   0.347   5.573  0.00  0.00    +0.326 C 
ATOM     22  O   UNL     1      -1.783   0.378   5.344  0.00  0.00    -0.249 OA
BRANCH  21  23
ATOM     23  C   UNL     1      -3.956   0.343   4.435  0.00  0.00    +0.238 C 
BRANCH  23  33
ATOM     24  C   UNL     1      -0.002   1.056   2.507  0.00  0.00    +0.010 C 
ATOM     25  C   UNL     1      -0.730   1.580   1.267  0.00  0.00    +0.018 C 
ATOM     26  C   UNL     1      -0.013   1.086   0.008  0.00  0.00    +0.006 C 
ATOM     27  C   UNL     1      -0.753   1.593  -1.231  0.00  0.00    +0.000 C 
ATOM     28  C   UNL     1      -2.186   1.056  -1.227  0.00  0.00    +0.003 C 
ATOM     29  C   UNL     1      -2.911   1.550   0.027  0.00  0.00    +0.035 C 
ATOM     30  C   UNL     1      -2.167   1.069   1.268  0.00  0.00    +0.115 C 
ATOM     31  C   UNL     1      -2.885   1.517   2.521  0.00  0.00    +0.247 C 
ATOM     32  O   UNL     1      -3.102   2.655   2.875  0.00  0.00    -0.273 OA
ATOM     33  N   UNL     1      -3.233   0.381   3.161  0.00  0.00    -0.213 N 
ATOM     34  C   UNL     1      -2.836  -0.706   2.489  0.00  0.00    +0.310 C 
ATOM     35  O   UNL     1      -3.035  -1.844   2.866  0.00  0.00    -0.252 OA
ATOM     36  N   UNL     1      -2.191  -0.397   1.347  0.00  0.00    -0.285 N 
ATOM     37  H   UNL     1      -1.730  -0.998   0.550  0.00  0.00    +0.151 HD
ENDBRANCH  23  33
ENDBRANCH  21  23
ENDBRANCH  20  21
ENDBRANCH   1  20
TORSDOF 6
