REMARK  Name = ZINC01055867
REMARK  6 active torsions:
REMARK  status: ('A' for Active; 'I' for Inactive)
REMARK    1  A    between atoms: C_4  and  O_34
REMARK    2  A    between atoms: C_5  and  C_7
REMARK    3  A    between atoms: N_8  and  C_9
REMARK    4  A    between atoms: C_18  and  N_25
REMARK    5  A    between atoms: C_26  and  C_27
REMARK    6  A    between atoms: C_32  and  O_33
REMARK                            x       y       z     vdW  Elec       q    Type
REMARK                         _______ _______ _______ _____ _____    ______ ____
ROOT
ATOM      1  C   UNL     1       2.396  -4.243  -0.254  0.00  0.00    +0.121 C 
ATOM      2  C   UNL     1       3.042  -4.631  -1.559  0.00  0.00    +0.017 A 
ATOM      3  C   UNL     1       2.728  -3.910  -2.699  0.00  0.00    +0.009 A 
ATOM      4  C   UNL     1       3.299  -4.242  -3.913  0.00  0.00    +0.001 A 
ATOM      5  C   UNL     1       4.187  -5.299  -3.992  0.00  0.00    +0.004 A 
ATOM      6  C   UNL     1       4.504  -6.020  -2.859  0.00  0.00    +0.046 A 
ATOM      7  C   UNL     1       3.933  -5.686  -1.635  0.00  0.00    +0.129 A 
ATOM      8  O   UNL     1       4.281  -6.409  -0.540  0.00  0.00    -0.464 OA
ATOM      9  C   UNL     1       3.451  -6.322   0.621  0.00  0.00    +0.207 C 
ATOM     10  C   UNL     1       3.188  -4.838   0.911  0.00  0.00    +0.083 C 
ATOM     11  C   UNL     1       4.526  -4.111   1.058  0.00  0.00    +0.012 C 
ATOM     12  C   UNL     1       5.304  -4.715   2.229  0.00  0.00    +0.001 C 
ATOM     13  C   UNL     1       5.548  -6.203   1.971  0.00  0.00    +0.006 C 
ATOM     14  C   UNL     1       4.205  -6.925   1.812  0.00  0.00    +0.073 C 
ENDROOT
BRANCH   1  16
ATOM     15  C   UNL     1       1.250  -2.158  -0.022  0.00  0.00    +0.090 C 
ATOM     16  N   UNL     1       2.377  -2.783  -0.135  0.00  0.00    -0.382 N 
ATOM     17  H   UNL     1       3.210  -2.285  -0.140  0.00  0.00    +0.160 HD
BRANCH  15  22
ATOM     18  C   UNL     1      -0.017   1.374  -0.002  0.00  0.00    +0.001 A 
ATOM     19  C   UNL     1       1.170   2.089   0.001  0.00  0.00    +0.004 A 
ATOM     20  C   UNL     1       2.383   1.429  -0.004  0.00  0.00    +0.046 A 
ATOM     21  C   UNL     1       2.421   0.043  -0.011  0.00  0.00    +0.125 A 
ATOM     22  C   UNL     1       1.222  -0.684  -0.014  0.00  0.00    +0.032 A 
ATOM     23  C   UNL     1       0.002  -0.004  -0.009  0.00  0.00    +0.013 A 
BRANCH  21  24
ATOM     24  O   UNL     1       3.612  -0.606  -0.016  0.00  0.00    -0.506 OA
ATOM     25  H   UNL     1       3.959  -0.799   0.866  0.00  0.00    +0.292 HD
ENDBRANCH  21  24
ENDBRANCH  15  22
ENDBRANCH   1  16
BRANCH   9  26
ATOM     26  N   UNL     1       2.195  -7.043   0.400  0.00  0.00    -0.246 NA
ATOM     27  C   UNL     1       2.214  -8.310   0.137  0.00  0.00    +0.120 C 
BRANCH  27  28
ATOM     28  C   UNL     1       0.951  -9.036  -0.085  0.00  0.00    +0.034 A 
ATOM     29  C   UNL     1       0.966 -10.405  -0.364  0.00  0.00    +0.013 A 
ATOM     30  C   UNL     1      -0.219 -11.078  -0.571  0.00  0.00    +0.001 A 
ATOM     31  C   UNL     1      -1.426 -10.402  -0.504  0.00  0.00    +0.004 A 
ATOM     32  C   UNL     1      -1.456  -9.049  -0.229  0.00  0.00    +0.046 A 
ATOM     33  C   UNL     1      -0.274  -8.358  -0.013  0.00  0.00    +0.125 A 
BRANCH  33  34
ATOM     34  O   UNL     1      -0.302  -7.029   0.263  0.00  0.00    -0.506 OA
ATOM     35  H   UNL     1      -0.262  -6.464  -0.520  0.00  0.00    +0.292 HD
ENDBRANCH  33  34
ENDBRANCH  27  28
ENDBRANCH   9  26
TORSDOF 6
