REMARK  Name = ZINC16616473
REMARK  11 active torsions:
REMARK  status: ('A' for Active; 'I' for Inactive)
REMARK    1  A    between atoms: C_1  and  C_2
REMARK    2  A    between atoms: C_2  and  C_4
REMARK    3  A    between atoms: C_2  and  O_18
REMARK    4  A    between atoms: C_7  and  C_9
REMARK    5  A    between atoms: C_12  and  N_15
REMARK    6  A    between atoms: O_18  and  C_19
REMARK    7  A    between atoms: C_19  and  C_21
REMARK    8  A    between atoms: C_26  and  N_27
REMARK    9  A    between atoms: N_27  and  C_28
REMARK   10  A    between atoms: C_29  and  C_30
REMARK   11  A    between atoms: C_30  and  C_32
REMARK                            x       y       z     vdW  Elec       q    Type
REMARK                         _______ _______ _______ _____ _____    ______ ____
ROOT
ATOM      1  C   UNL     1      -0.027  -0.628   2.284  0.00  0.00    +0.342 C 
ATOM      2  O   UNL     1      -1.226  -0.433   2.260  0.00  0.00    -0.245 OA
ENDROOT
BRANCH   1   3
ATOM      3  C   UNL     1       0.613  -1.137   3.510  0.00  0.00    +0.080 A 
ATOM      4  C   UNL     1       1.969  -1.473   3.508  0.00  0.00    +0.017 A 
ATOM      5  C   UNL     1       2.561  -1.949   4.658  0.00  0.00    +0.001 A 
ATOM      6  C   UNL     1       1.818  -2.097   5.818  0.00  0.00    +0.002 A 
ATOM      7  C   UNL     1       0.477  -1.771   5.836  0.00  0.00    +0.024 A 
ATOM      8  C   UNL     1      -0.136  -1.284   4.688  0.00  0.00    +0.045 A 
BRANCH   8   9
ATOM      9  N   UNL     1      -1.485  -0.948   4.706  0.00  0.00    -0.320 N 
ATOM     10  H   UNL     1      -1.931  -0.690   3.884  0.00  0.00    +0.152 HD
BRANCH   9  11
ATOM     11  C   UNL     1      -2.182  -0.983   5.878  0.00  0.00    +0.076 C 
ATOM     12  C   UNL     1      -3.521  -0.772   5.878  0.00  0.00    +0.070 C 
BRANCH  12  13
ATOM     13  C   UNL     1      -4.172  -0.405   4.691  0.00  0.00    +0.260 C 
ATOM     14  O   UNL     1      -3.558  -0.382   3.643  0.00  0.00    -0.283 OA
BRANCH  13  15
ATOM     15  C   UNL     1      -5.635  -0.041   4.715  0.00  0.00    +0.455 C 
ATOM     16  F   UNL     1      -6.346  -0.915   3.886  0.00  0.00    -0.163 F 
ATOM     17  F   UNL     1      -6.118  -0.142   6.024  0.00  0.00    -0.163 F 
ATOM     18  F   UNL     1      -5.796   1.271   4.259  0.00  0.00    -0.163 F 
ENDBRANCH  13  15
ENDBRANCH  12  13
ENDBRANCH   9  11
ENDBRANCH   8   9
ENDBRANCH   1   3
BRANCH   1  19
ATOM     19  O   UNL     1       0.719  -0.377   1.190  0.00  0.00    -0.448 OA
BRANCH  19  21
ATOM     20  C   UNL     1      -0.002   1.644   0.078  0.00  0.00    +0.062 C 
ATOM     21  C   UNL     1       0.033   0.115   0.036  0.00  0.00    +0.261 C 
BRANCH  21  22
ATOM     22  C   UNL     1       0.753  -0.338  -1.208  0.00  0.00    +0.258 A 
ATOM     23  N   UNL     1       2.041  -0.308  -1.405  0.00  0.00    -0.108 NA
ATOM     24  N   UNL     1       2.307  -0.771  -2.576  0.00  0.00    -0.107 NA
ATOM     25  C   UNL     1       1.189  -1.114  -3.170  0.00  0.00    +0.249 A 
ATOM     26  O   UNL     1       0.183  -0.850  -2.312  0.00  0.00    -0.416 OA
BRANCH  25  27
ATOM     27  C   UNL     1       1.056  -1.687  -4.527  0.00  0.00    +0.039 A 
ATOM     28  C   UNL     1      -0.205  -2.000  -5.035  0.00  0.00    +0.015 A 
ATOM     29  C   UNL     1      -0.322  -2.535  -6.301  0.00  0.00    +0.033 A 
ATOM     30  C   UNL     1       0.808  -2.761  -7.067  0.00  0.00    +0.126 A 
ATOM     31  C   UNL     1       2.062  -2.454  -6.569  0.00  0.00    +0.033 A 
ATOM     32  C   UNL     1       2.192  -1.913  -5.306  0.00  0.00    +0.015 A 
BRANCH  30  33
ATOM     33  N   UNL     1       0.676  -3.337  -8.424  0.00  0.00    +0.056 N 
ATOM     34  O   UNL     1      -0.418  -3.607  -8.862  0.00  0.00    -0.126 OA
ATOM     35  O   UNL     1       1.662  -3.536  -9.095  0.00  0.00    -0.126 OA
ENDBRANCH  30  33
ENDBRANCH  25  27
ENDBRANCH  21  22
ENDBRANCH  19  21
ENDBRANCH   1  19
TORSDOF 10
