REMARK  Name = ZINC10964247
REMARK  11 active torsions:
REMARK  status: ('A' for Active; 'I' for Inactive)
REMARK    1  A    between atoms: C_1  and  C_2
REMARK    2  A    between atoms: C_2  and  C_3
REMARK    3  A    between atoms: C_3  and  C_4
REMARK    4  A    between atoms: C_4  and  N_5
REMARK    5  A    between atoms: N_5  and  C_6
REMARK    6  A    between atoms: C_7  and  N_22
REMARK    7  A    between atoms: N_8  and  C_15
REMARK    8  A    between atoms: C_15  and  C_16
REMARK    9  A    between atoms: C_23  and  C_25
REMARK   10  A    between atoms: C_25  and  S_26
REMARK   11  A    between atoms: S_26  and  C_27
REMARK                            x       y       z     vdW  Elec       q    Type
REMARK                         _______ _______ _______ _____ _____    ______ ____
ROOT
ATOM      1  C   UNL     1      -2.157  -0.670  -1.140  0.00  0.00    +0.140 A 
ATOM      2  C   UNL     1      -1.811  -1.586  -2.112  0.00  0.00    +0.128 A 
ATOM      3  N   UNL     1      -2.609  -1.718  -3.225  0.00  0.00    -0.276 N 
ATOM      4  C   UNL     1      -3.709  -0.956  -3.368  0.00  0.00    +0.331 A 
ATOM      5  O   UNL     1      -4.399  -1.085  -4.361  0.00  0.00    -0.246 OA
ATOM      6  N   UNL     1      -4.059  -0.054  -2.434  0.00  0.00    -0.273 N 
ATOM      7  H   UNL     1      -4.881   0.500  -2.564  0.00  0.00    +0.173 HD
ATOM      8  C   UNL     1      -3.314   0.111  -1.323  0.00  0.00    +0.277 A 
ATOM      9  O   UNL     1      -3.640   0.931  -0.482  0.00  0.00    -0.266 OA
ENDROOT
BRANCH   1  10
ATOM     10  N   UNL     1      -1.361  -0.514   0.015  0.00  0.00    -0.264 N 
ATOM     11  C   UNL     1      -1.857  -0.846   1.225  0.00  0.00    +0.230 C 
ATOM     12  O   UNL     1      -2.949  -1.367   1.312  0.00  0.00    -0.274 OA
BRANCH  10  13
ATOM     13  C   UNL     1       0.002   0.008  -0.100  0.00  0.00    +0.114 C 
BRANCH  13  14
ATOM     14  C   UNL     1      -0.035   1.538  -0.095  0.00  0.00    +0.019 C 
BRANCH  14  16
ATOM     15  C   UNL     1       1.353   3.612  -0.210  0.00  0.00    +0.004 C 
ATOM     16  C   UNL     1       1.390   2.083  -0.215  0.00  0.00    -0.002 C 
ENDBRANCH  14  16
ENDBRANCH  13  14
ENDBRANCH  10  13
BRANCH  11  17
ATOM     17  C   UNL     1      -1.054  -0.568   2.470  0.00  0.00    +0.172 C 
BRANCH  17  18
ATOM     18  S   UNL     1      -1.981  -1.123   3.922  0.00  0.00    -0.089 S 
BRANCH  18  19
ATOM     19  C   UNL     1      -0.843  -0.690   5.196  0.00  0.00    +0.136 A 
ATOM     20  N   UNL     1      -0.959  -0.850   6.495  0.00  0.00    -0.233 NA
ATOM     21  C   UNL     1       0.004  -0.468   7.362  0.00  0.00    +0.079 A 
ATOM     22  C   UNL     1       0.005  -0.582   8.771  0.00  0.00    +0.029 A 
ATOM     23  C   UNL     1       1.072  -0.141   9.509  0.00  0.00    +0.002 A 
ATOM     24  C   UNL     1       2.183   0.432   8.906  0.00  0.00    +0.001 A 
ATOM     25  C   UNL     1       2.215   0.560   7.529  0.00  0.00    +0.017 A 
ATOM     26  C   UNL     1       1.151   0.120   6.782  0.00  0.00    +0.040 A 
ATOM     27  S   UNL     1       0.767   0.072   5.048  0.00  0.00    -0.061 S 
ENDBRANCH  18  19
ENDBRANCH  17  18
ENDBRANCH  11  17
ENDBRANCH   1  10
BRANCH   2  28
ATOM     28  N   UNL     1      -0.685  -2.361  -1.968  0.00  0.00    -0.343 N 
ATOM     29  H   UNL     1      -0.090  -2.216  -1.216  0.00  0.00    +0.144 HD
ATOM     30  H   UNL     1      -0.486  -3.052  -2.619  0.00  0.00    +0.144 HD
ENDBRANCH   2  28
BRANCH   3  31
ATOM     31  C   UNL     1      -2.257  -2.690  -4.262  0.00  0.00    +0.163 C 
BRANCH  31  32
ATOM     32  C   UNL     1      -1.363  -2.034  -5.283  0.00  0.00    -0.028 A 
ATOM     33  C   UNL     1      -1.916  -1.411  -6.387  0.00  0.00    +0.005 A 
ATOM     34  C   UNL     1      -1.097  -0.805  -7.321  0.00  0.00    +0.000 A 
ATOM     35  C   UNL     1       0.276  -0.830  -7.157  0.00  0.00    +0.000 A 
ATOM     36  C   UNL     1       0.828  -1.457  -6.056  0.00  0.00    +0.000 A 
ATOM     37  C   UNL     1       0.009  -2.059  -5.119  0.00  0.00    +0.005 A 
ENDBRANCH  31  32
ENDBRANCH   3  31
TORSDOF 10
