REMARK  Name = ZINC66610853
REMARK  11 active torsions:
REMARK  status: ('A' for Active; 'I' for Inactive)
REMARK    1  A    between atoms: C_1  and  C_2
REMARK    2  A    between atoms: C_2  and  C_4
REMARK    3  A    between atoms: C_2  and  N_19
REMARK    4  A    between atoms: C_4  and  C_5
REMARK    5  A    between atoms: N_7  and  C_8
REMARK    6  A    between atoms: C_8  and  C_9
REMARK    7  A    between atoms: C_9  and  C_11
REMARK    8  A    between atoms: C_9  and  N_16
REMARK    9  A    between atoms: N_16  and  C_17
REMARK   10  A    between atoms: N_16  and  C_18
REMARK   11  A    between atoms: C_20  and  C_22
REMARK                            x       y       z     vdW  Elec       q    Type
REMARK                         _______ _______ _______ _____ _____    ______ ____
ROOT
ATOM      1  C   UNL     1       1.385  -1.666  -1.741  0.00  0.00    +0.215 C 
ATOM      2  O   UNL     1       0.618  -2.054  -0.886  0.00  0.00    -0.276 OA
ATOM      3  N   UNL     1       1.840  -2.522  -2.677  0.00  0.00    -0.316 N 
ATOM      4  H   UNL     1       2.453  -2.212  -3.362  0.00  0.00    +0.149 HD
ENDROOT
BRANCH   1   5
ATOM      5  C   UNL     1       1.829  -0.226  -1.758  0.00  0.00    +0.117 C 
BRANCH   5   7
ATOM      6  C   UNL     1       1.523   2.011  -0.687  0.00  0.00    +0.028 C 
ATOM      7  C   UNL     1       1.172   0.524  -0.598  0.00  0.00    +0.079 C 
BRANCH   7   8
ATOM      8  N   UNL     1       1.660  -0.017   0.673  0.00  0.00    -0.312 N 
ATOM      9  C   UNL     1       0.909   0.094   1.786  0.00  0.00    +0.216 C 
ATOM     10  O   UNL     1      -0.171   0.643   1.736  0.00  0.00    -0.276 OA
ATOM     11  H   UNL     1       2.524  -0.457   0.713  0.00  0.00    +0.149 HD
BRANCH   9  12
ATOM     12  C   UNL     1       1.411  -0.463   3.093  0.00  0.00    +0.075 C 
ATOM     13  C   UNL     1       1.640  -1.969   2.952  0.00  0.00    +0.013 C 
ATOM     14  C   UNL     1       2.150  -2.534   4.279  0.00  0.00    +0.001 C 
ATOM     15  C   UNL     1       1.114  -2.277   5.375  0.00  0.00    +0.000 C 
ATOM     16  C   UNL     1       0.886  -0.771   5.516  0.00  0.00    +0.001 C 
ATOM     17  C   UNL     1       0.375  -0.205   4.189  0.00  0.00    +0.013 C 
ENDBRANCH   9  12
ENDBRANCH   7   8
ENDBRANCH   5   7
ENDBRANCH   1   5
BRANCH   3  18
ATOM     18  C   UNL     1       1.408  -3.922  -2.661  0.00  0.00    +0.093 C 
BRANCH  18  19
ATOM     19  C   UNL     1       1.961  -4.640  -3.894  0.00  0.00    -0.021 C 
BRANCH  19  20
ATOM     20  C   UNL     1       1.344  -4.052  -5.137  0.00  0.00    -0.052 A 
ATOM     21  C   UNL     1       2.042  -3.133  -5.898  0.00  0.00    +0.009 A 
ATOM     22  C   UNL     1       1.459  -2.623  -7.010  0.00  0.00    +0.045 A 
ATOM     23  S   UNL     1      -0.125  -3.447  -7.008  0.00  0.00    -0.105 S 
ATOM     24  C   UNL     1       0.100  -4.420  -5.528  0.00  0.00    +0.047 A 
ENDBRANCH  19  20
BRANCH  19  25
ATOM     25  N   UNL     1       1.633  -6.070  -3.815  0.00  0.00    +0.382 N 
ATOM     26  C   UNL     1       2.124  -6.752  -5.020  0.00  0.00    -0.096 C 
ATOM     27  C   UNL     1       2.272  -6.654  -2.628  0.00  0.00    -0.096 C 
ATOM     28  H   UNL     1       0.633  -6.183  -3.748  0.00  0.00    -0.082 HD
ENDBRANCH  19  25
ENDBRANCH  18  19
ENDBRANCH   3  18
TORSDOF 8
