REMARK  Name = ZINC23261990
REMARK  8 active torsions:
REMARK  status: ('A' for Active; 'I' for Inactive)
REMARK    1  A    between atoms: C_1  and  C_2
REMARK    2  A    between atoms: C_2  and  C_3
REMARK    3  A    between atoms: C_3  and  C_29
REMARK    4  A    between atoms: N_6  and  C_10
REMARK    5  A    between atoms: C_10  and  C_11
REMARK    6  A    between atoms: N_13  and  C_14
REMARK    7  A    between atoms: C_14  and  C_16
REMARK    8  A    between atoms: C_14  and  C_22
REMARK                            x       y       z     vdW  Elec       q    Type
REMARK                         _______ _______ _______ _____ _____    ______ ____
ROOT
ATOM      1  C   UNL     1       3.732   1.454  -0.695  0.00  0.00    +0.213 C 
ENDROOT
BRANCH   1   5
ATOM      2  C   UNL     1       5.968  -1.108  -2.190  0.00  0.00    +0.138 C 
ATOM      3  C   UNL     1       5.244  -0.494  -1.008  0.00  0.00    +0.251 C 
ATOM      4  O   UNL     1       5.262  -0.879   0.142  0.00  0.00    -0.272 OA
ATOM      5  N   UNL     1       4.574   0.566  -1.500  0.00  0.00    -0.215 N 
ATOM      6  C   UNL     1       4.778   0.711  -2.815  0.00  0.00    +0.310 C 
ATOM      7  O   UNL     1       4.284   1.599  -3.481  0.00  0.00    -0.252 OA
ATOM      8  N   UNL     1       5.593  -0.235  -3.316  0.00  0.00    -0.281 N 
ATOM      9  H   UNL     1       5.982  -0.441  -4.324  0.00  0.00    +0.152 HD
BRANCH   2  10
ATOM     10  C   UNL     1       5.496  -2.518  -2.432  0.00  0.00    -0.015 A 
ATOM     11  C   UNL     1       6.197  -3.583  -1.897  0.00  0.00    +0.007 A 
ATOM     12  C   UNL     1       5.762  -4.877  -2.115  0.00  0.00    +0.020 A 
ATOM     13  C   UNL     1       4.630  -5.107  -2.877  0.00  0.00    +0.041 A 
ATOM     14  C   UNL     1       3.932  -4.041  -3.416  0.00  0.00    +0.020 A 
ATOM     15  C   UNL     1       4.365  -2.748  -3.194  0.00  0.00    +0.007 A 
ATOM     16 CL   UNL     1       4.087  -6.731  -3.156  0.00  0.00    -0.084 Cl
ENDBRANCH   2  10
BRANCH   2  18
ATOM     17  C   UNL     1       7.922   0.359  -1.667  0.00  0.00    +0.007 C 
ATOM     18  C   UNL     1       7.481  -1.076  -1.965  0.00  0.00    +0.037 C 
ENDBRANCH   2  18
ENDBRANCH   1   5
BRANCH   1  19
ATOM     19  C   UNL     1       2.318   0.933  -0.685  0.00  0.00    +0.232 C 
ATOM     20  O   UNL     1       2.042  -0.081  -1.290  0.00  0.00    -0.274 OA
ATOM     21  N   UNL     1       1.362   1.593  -0.002  0.00  0.00    -0.303 N 
ATOM     22  H   UNL     1       1.613   2.513   0.547  0.00  0.00    +0.150 HD
BRANCH  21  23
ATOM     23  C   UNL     1      -0.013   1.086   0.008  0.00  0.00    +0.134 C 
BRANCH  23  24
ATOM     24  C   UNL     1      -0.718   1.572   1.248  0.00  0.00    -0.023 A 
ATOM     25  C   UNL     1      -0.510   2.861   1.700  0.00  0.00    +0.007 A 
ATOM     26  C   UNL     1      -1.161   3.310   2.834  0.00  0.00    +0.020 A 
ATOM     27  C   UNL     1      -2.012   2.464   3.523  0.00  0.00    +0.041 A 
ATOM     28  C   UNL     1      -2.215   1.171   3.073  0.00  0.00    +0.020 A 
ATOM     29  C   UNL     1      -1.568   0.726   1.936  0.00  0.00    +0.007 A 
ATOM     30 CL   UNL     1      -2.825   3.024   4.951  0.00  0.00    -0.084 Cl
ENDBRANCH  23  24
BRANCH  23  31
ATOM     31  C   UNL     1      -0.742   1.585  -1.213  0.00  0.00    -0.023 A 
ATOM     32  C   UNL     1      -0.551   2.883  -1.649  0.00  0.00    +0.006 A 
ATOM     33  C   UNL     1      -1.216   3.339  -2.772  0.00  0.00    +0.000 A 
ATOM     34  C   UNL     1      -2.079   2.501  -3.453  0.00  0.00    +0.000 A 
ATOM     35  C   UNL     1      -2.273   1.205  -3.013  0.00  0.00    +0.000 A 
ATOM     36  C   UNL     1      -1.605   0.747  -1.893  0.00  0.00    +0.006 A 
ENDBRANCH  23  31
ENDBRANCH  21  23
ENDBRANCH   1  19
TORSDOF 7
