REMARK  Name = ZINC08381887
REMARK  1 active torsions:
REMARK  status: ('A' for Active; 'I' for Inactive)
REMARK    1  A    between atoms: N_10  and  N_11
REMARK                            x       y       z     vdW  Elec       q    Type
REMARK                         _______ _______ _______ _____ _____    ______ ____
ROOT
ATOM      1  C   UNL     1      -0.017   1.363   0.009  0.00  0.00    +0.001 A 
ATOM      2  C   UNL     1       1.167   2.092   0.002  0.00  0.00    +0.001 A 
ATOM      3  C   UNL     1       2.387   1.451  -0.013  0.00  0.00    +0.012 A 
ATOM      4  C   UNL     1       2.431   0.060  -0.021  0.00  0.00    +0.029 A 
ATOM      5  C   UNL     1       1.222  -0.680  -0.013  0.00  0.00    +0.023 A 
ATOM      6  C   UNL     1       0.002  -0.004   0.002  0.00  0.00    +0.012 A 
ATOM      7  C   UNL     1       1.617  -2.089  -0.025  0.00  0.00    +0.103 C 
ATOM      8  N   UNL     1       2.928  -2.171  -0.038  0.00  0.00    -0.326 N 
ATOM      9  C   UNL     1       3.502  -0.943  -0.037  0.00  0.00    +0.162 C 
ATOM     10  N   UNL     1       4.805  -0.692  -0.048  0.00  0.00    -0.128 NA
ATOM     11  N   UNL     1       0.743  -3.169  -0.022  0.00  0.00    -0.344 N 
ATOM     12  H   UNL     1      -0.216  -3.018  -0.012  0.00  0.00    +0.144 HD
ATOM     13  H   UNL     1       1.090  -4.074  -0.031  0.00  0.00    +0.144 HD
ATOM     14  H   UNL     1       3.422  -3.006  -0.048  0.00  0.00    +0.169 HD
ENDROOT
BRANCH  10  15
ATOM     15  N   UNL     1       5.649  -1.667  -0.062  0.00  0.00    -0.122 NA
ATOM     16  C   UNL     1       6.960  -1.415  -0.073  0.00  0.00    +0.192 A 
ATOM     17  N   UNL     1       7.991  -2.301  -0.093  0.00  0.00    -0.336 N 
ATOM     18  C   UNL     1       9.280  -1.842  -0.101  0.00  0.00    +0.028 A 
ATOM     19  C   UNL     1       9.409  -0.505  -0.088  0.00  0.00    +0.012 A 
ATOM     20  S   UNL     1       7.737   0.078  -0.072  0.00  0.00    -0.053 S 
ATOM     21  C   UNL     1      10.677   0.287  -0.091  0.00  0.00    +0.044 C 
ATOM     22  C   UNL     1      11.837  -0.657   0.260  0.00  0.00    +0.006 C 
ATOM     23  C   UNL     1      11.712  -1.927  -0.588  0.00  0.00    +0.006 C 
ATOM     24  C   UNL     1      10.505  -2.746  -0.126  0.00  0.00    +0.054 C 
ATOM     25  H   UNL     1       7.814  -3.255  -0.102  0.00  0.00    +0.168 HD
ENDBRANCH  10  15
TORSDOF 1
