REMARK  Name = ZINC45725649
REMARK  8 active torsions:
REMARK  status: ('A' for Active; 'I' for Inactive)
REMARK    1  A    between atoms: C_4  and  C_7
REMARK    2  A    between atoms: C_7  and  C_8
REMARK    3  A    between atoms: C_7  and  C_24
REMARK    4  A    between atoms: C_8  and  C_9
REMARK    5  A    between atoms: C_9  and  N_10
REMARK    6  A    between atoms: N_13  and  C_14
REMARK    7  A    between atoms: C_19  and  C_20
REMARK    8  A    between atoms: C_20  and  C_21
REMARK                            x       y       z     vdW  Elec       q    Type
REMARK                         _______ _______ _______ _____ _____    ______ ____
ROOT
ATOM      1  N   UNL     1       3.640  -1.090   3.569  0.00  0.00    -0.299 N 
ATOM      2  C   UNL     1       3.654  -0.446   4.752  0.00  0.00    +0.304 C 
ATOM      3  O   UNL     1       3.963   0.730   4.801  0.00  0.00    -0.253 OA
ATOM      4  N   UNL     1       3.326  -1.103   5.882  0.00  0.00    -0.269 N 
ATOM      5  H   UNL     1       3.393  -2.027   3.530  0.00  0.00    +0.150 HD
ATOM      6  H   UNL     1       3.134  -2.053   5.851  0.00  0.00    +0.156 HD
ENDROOT
BRANCH   4   7
ATOM      7  C   UNL     1       3.264  -0.415   7.099  0.00  0.00    +0.038 A 
ATOM      8  C   UNL     1       4.027   0.729   7.292  0.00  0.00    +0.023 A 
ATOM      9  C   UNL     1       3.963   1.405   8.494  0.00  0.00    +0.002 A 
ATOM     10  C   UNL     1       3.140   0.945   9.505  0.00  0.00    +0.000 A 
ATOM     11  C   UNL     1       2.379  -0.194   9.316  0.00  0.00    +0.006 A 
ATOM     12  C   UNL     1       2.434  -0.872   8.114  0.00  0.00    -0.017 A 
BRANCH  12  13
ATOM     13  C   UNL     1       1.599  -2.109   7.907  0.00  0.00    +0.132 C 
BRANCH  13  14
ATOM     14  C   UNL     1       2.423  -3.330   8.229  0.00  0.00    +0.215 C 
ATOM     15  O   UNL     1       3.574  -3.207   8.590  0.00  0.00    -0.276 OA
ATOM     16  N   UNL     1       1.880  -4.558   8.114  0.00  0.00    -0.329 N 
ATOM     17  H   UNL     1       0.959  -4.657   7.825  0.00  0.00    +0.145 HD
ATOM     18  H   UNL     1       2.410  -5.344   8.321  0.00  0.00    +0.145 HD
ENDBRANCH  13  14
ENDBRANCH  12  13
ENDBRANCH   4   7
BRANCH   1  19
ATOM     19  C   UNL     1       3.996  -0.375   2.341  0.00  0.00    +0.106 C 
BRANCH  19  20
ATOM     20  C   UNL     1       3.900  -1.330   1.149  0.00  0.00    +0.031 C 
BRANCH  20  21
ATOM     21  C   UNL     1       4.272  -0.583  -0.134  0.00  0.00    +0.050 C 
BRANCH  21  25
ATOM     22  C   UNL     1       1.383   2.470  -0.896  0.00  0.00    +0.000 A 
ATOM     23  C   UNL     1       2.727   2.788  -0.844  0.00  0.00    +0.000 A 
ATOM     24  C   UNL     1       3.662   1.800  -0.597  0.00  0.00    +0.004 A 
ATOM     25  C   UNL     1       3.253   0.494  -0.402  0.00  0.00    -0.040 A 
ATOM     26  C   UNL     1       1.909   0.176  -0.454  0.00  0.00    +0.004 A 
ATOM     27  C   UNL     1       0.974   1.164  -0.702  0.00  0.00    +0.000 A 
ENDBRANCH  21  25
BRANCH  21  28
ATOM     28  C   UNL     1       4.297  -1.550  -1.289  0.00  0.00    -0.040 A 
ATOM     29  C   UNL     1       3.212  -2.374  -1.524  0.00  0.00    +0.004 A 
ATOM     30  C   UNL     1       3.234  -3.261  -2.584  0.00  0.00    +0.000 A 
ATOM     31  C   UNL     1       4.341  -3.325  -3.409  0.00  0.00    +0.000 A 
ATOM     32  C   UNL     1       5.426  -2.500  -3.175  0.00  0.00    +0.000 A 
ATOM     33  C   UNL     1       5.402  -1.610  -2.118  0.00  0.00    +0.004 A 
ENDBRANCH  21  28
ENDBRANCH  20  21
ENDBRANCH  19  20
ENDBRANCH   1  19
TORSDOF 8
