REMARK  Name = ZINC06244772
REMARK  12 active torsions:
REMARK  status: ('A' for Active; 'I' for Inactive)
REMARK    1  A    between atoms: C_1  and  C_2
REMARK    2  A    between atoms: C_5  and  C_38
REMARK    3  A    between atoms: C_9  and  C_14
REMARK    4  A    between atoms: C_14  and  C_16
REMARK    5  A    between atoms: C_14  and  N_72
REMARK    6  A    between atoms: N_20  and  C_21
REMARK    7  A    between atoms: C_21  and  C_22
REMARK    8  A    between atoms: C_21  and  C_23
REMARK    9  A    between atoms: C_21  and  C_24
REMARK   10  A    between atoms: N_27  and  C_30
REMARK   11  A    between atoms: C_35  and  O_36
REMARK   12  A    between atoms: O_36  and  C_37
REMARK                            x       y       z     vdW  Elec       q    Type
REMARK                         _______ _______ _______ _____ _____    ______ ____
ROOT
ATOM      1  C   UNL     1      -4.186   4.943   0.053  0.00  0.00    +0.039 C 
ENDROOT
BRANCH   1  10
ATOM      2  C   UNL     1      -4.080   9.957  -1.349  0.00  0.00    +0.044 C 
ATOM      3  C   UNL     1      -3.756   9.143  -2.575  0.00  0.00    -0.041 A 
ATOM      4  C   UNL     1      -3.503   9.764  -3.765  0.00  0.00    +0.004 A 
ATOM      5  C   UNL     1      -3.203   9.024  -4.899  0.00  0.00    +0.005 A 
ATOM      6  C   UNL     1      -3.154   7.647  -4.848  0.00  0.00    -0.026 A 
ATOM      7  C   UNL     1      -3.408   6.992  -3.648  0.00  0.00    +0.052 A 
ATOM      8  C   UNL     1      -3.712   7.747  -2.499  0.00  0.00    +0.002 A 
ATOM      9  C   UNL     1      -3.977   7.048  -1.240  0.00  0.00    +0.018 A 
ATOM     10  C   UNL     1      -3.919   5.693  -1.226  0.00  0.00    +0.011 A 
ATOM     11  C   UNL     1      -3.604   4.984  -2.405  0.00  0.00    +0.251 A 
ATOM     12  O   UNL     1      -3.552   3.766  -2.370  0.00  0.00    -0.268 OA
ATOM     13  N   UNL     1      -3.365   5.616  -3.567  0.00  0.00    -0.322 N 
ATOM     14  H   UNL     1      -3.155   5.097  -4.359  0.00  0.00    +0.169 HD
ATOM     15  C   UNL     1      -2.826   6.855  -6.087  0.00  0.00    +0.046 C 
ENDBRANCH   1  10
BRANCH   1  21
ATOM     16  C   UNL     1      -1.796   4.834   0.429  0.00  0.00    -0.058 C 
ATOM     17  C   UNL     1      -0.626   3.877   0.664  0.00  0.00    +0.086 C 
ATOM     18  N   UNL     1      -0.854   3.124   1.905  0.00  0.00    -0.331 N 
ATOM     19  C   UNL     1      -2.104   2.356   1.830  0.00  0.00    +0.086 C 
ATOM     20  C   UNL     1      -3.275   3.313   1.595  0.00  0.00    -0.058 C 
ATOM     21  N   UNL     1      -3.044   4.048   0.333  0.00  0.00    +0.391 N 
ATOM     22  H   UNL     1      -2.954   3.372  -0.435  0.00  0.00    -0.080 HD
BRANCH  18  23
ATOM     23  C   UNL     1       0.232   2.288   2.192  0.00  0.00    +0.072 A 
ATOM     24  C   UNL     1       0.601   1.296   1.296  0.00  0.00    +0.027 A 
ATOM     25  C   UNL     1       1.670   0.468   1.583  0.00  0.00    +0.002 A 
ATOM     26  C   UNL     1       2.373   0.626   2.763  0.00  0.00    +0.004 A 
ATOM     27  C   UNL     1       2.011   1.614   3.661  0.00  0.00    +0.047 A 
ATOM     28  C   UNL     1       0.941   2.447   3.381  0.00  0.00    +0.141 A 
BRANCH  28  29
ATOM     29  O   UNL     1       0.583   3.418   4.263  0.00  0.00    -0.493 OA
ATOM     30  C   UNL     1       1.355   3.522   5.461  0.00  0.00    +0.277 C 
ENDBRANCH  28  29
ENDBRANCH  18  23
ENDBRANCH   1  21
BRANCH   1  31
ATOM     31  C   UNL     1      -5.433   4.111  -0.104  0.00  0.00    +0.143 A 
ATOM     32  N   UNL     1      -5.576   3.050  -0.860  0.00  0.00    -0.115 NA
ATOM     33  N   UNL     1      -6.784   2.623  -0.722  0.00  0.00    -0.023 NA
ATOM     34  N   UNL     1      -7.415   3.383   0.103  0.00  0.00    -0.043 NA
ATOM     35  N   UNL     1      -6.614   4.310   0.510  0.00  0.00    -0.225 N 
BRANCH  35  36
ATOM     36  C   UNL     1      -6.932   5.379   1.460  0.00  0.00    +0.059 C 
ATOM     37  C   UNL     1      -6.684   6.737   0.801  0.00  0.00    +0.036 C 
ATOM     38  C   UNL     1      -8.402   5.273   1.874  0.00  0.00    +0.036 C 
ATOM     39  C   UNL     1      -6.043   5.243   2.698  0.00  0.00    +0.036 C 
ENDBRANCH  35  36
ENDBRANCH   1  31
TORSDOF 6
