REMARK  Name = ZINC43222449
REMARK  10 active torsions:
REMARK  status: ('A' for Active; 'I' for Inactive)
REMARK    1  A    between atoms: C_1  and  C_2
REMARK    2  A    between atoms: C_2  and  C_4
REMARK    3  A    between atoms: C_2  and  C_32
REMARK    4  A    between atoms: C_4  and  N_5
REMARK    5  A    between atoms: C_6  and  C_8
REMARK    6  A    between atoms: C_13  and  C_15
REMARK    7  A    between atoms: N_17  and  C_18
REMARK    8  A    between atoms: C_18  and  C_19
REMARK    9  A    between atoms: C_19  and  C_20
REMARK   10  A    between atoms: C_19  and  C_26
REMARK                            x       y       z     vdW  Elec       q    Type
REMARK                         _______ _______ _______ _____ _____    ______ ____
ROOT
ATOM      1  C   UNL     1      -0.395  -2.689   6.100  0.00  0.00    +0.068 C 
ATOM      2  C   UNL     1      -1.628  -3.505   6.545  0.00  0.00    -0.069 C 
ATOM      3  N   UNL     1      -1.169  -4.254   7.743  0.00  0.00    +0.380 N 
ATOM      4  C   UNL     1      -0.315  -3.284   8.475  0.00  0.00    -0.069 C 
ATOM      5  C   UNL     1       0.470  -2.541   7.369  0.00  0.00    +0.068 C 
ATOM      6  H   UNL     1      -1.957  -4.529   8.310  0.00  0.00    -0.086 HD
ATOM      7  H   UNL     1      -0.630  -5.062   7.469  0.00  0.00    -0.086 HD
ENDROOT
BRANCH   1   9
ATOM      8  N   UNL     1      -0.219  -3.694   3.847  0.00  0.00    -0.315 N 
ATOM      9  C   UNL     1       0.366  -3.431   5.032  0.00  0.00    +0.215 C 
ATOM     10  O   UNL     1       1.506  -3.791   5.239  0.00  0.00    -0.276 OA
ATOM     11  H   UNL     1      -1.131  -3.406   3.682  0.00  0.00    +0.149 HD
BRANCH   8  12
ATOM     12  C   UNL     1       0.521  -4.415   2.809  0.00  0.00    +0.112 C 
BRANCH  12  14
ATOM     13  C   UNL     1      -0.669  -3.207   0.973  0.00  0.00    +0.014 C 
ATOM     14  C   UNL     1      -0.366  -4.582   1.573  0.00  0.00    +0.033 C 
BRANCH  14  15
ATOM     15  C   UNL     1       0.349  -5.429   0.552  0.00  0.00    -0.043 A 
ATOM     16  C   UNL     1       1.566  -5.017   0.042  0.00  0.00    +0.004 A 
ATOM     17  C   UNL     1       2.222  -5.793  -0.894  0.00  0.00    +0.000 A 
ATOM     18  C   UNL     1       1.661  -6.983  -1.321  0.00  0.00    +0.000 A 
ATOM     19  C   UNL     1       0.445  -7.396  -0.810  0.00  0.00    +0.000 A 
ATOM     20  C   UNL     1      -0.209  -6.621   0.129  0.00  0.00    +0.004 A 
ENDBRANCH  14  15
ENDBRANCH  12  14
ENDBRANCH   8  12
ENDBRANCH   1   9
BRANCH   5  21
ATOM     21  C   UNL     1       0.631  -1.086   7.726  0.00  0.00    +0.215 C 
ATOM     22  O   UNL     1       0.110  -0.232   7.041  0.00  0.00    -0.276 OA
ATOM     23  N   UNL     1       1.354  -0.733   8.808  0.00  0.00    -0.314 N 
ATOM     24  H   UNL     1       1.771  -1.416   9.356  0.00  0.00    +0.149 HD
BRANCH  23  25
ATOM     25  C   UNL     1       1.511   0.681   9.155  0.00  0.00    +0.117 C 
BRANCH  25  26
ATOM     26  C   UNL     1       2.370   0.805  10.415  0.00  0.00    +0.066 C 
BRANCH  26  27
ATOM     27  C   UNL     1       3.763   0.310  10.123  0.00  0.00    -0.038 A 
ATOM     28  C   UNL     1       4.340  -0.648  10.936  0.00  0.00    +0.004 A 
ATOM     29  C   UNL     1       5.618  -1.102  10.669  0.00  0.00    +0.000 A 
ATOM     30  C   UNL     1       6.318  -0.600   9.588  0.00  0.00    +0.000 A 
ATOM     31  C   UNL     1       5.741   0.357   8.775  0.00  0.00    +0.000 A 
ATOM     32  C   UNL     1       4.461   0.808   9.039  0.00  0.00    +0.004 A 
ENDBRANCH  26  27
BRANCH  26  33
ATOM     33  C   UNL     1       2.430   2.249  10.842  0.00  0.00    -0.038 A 
ATOM     34  C   UNL     1       2.789   3.225   9.931  0.00  0.00    +0.004 A 
ATOM     35  C   UNL     1       2.844   4.550  10.323  0.00  0.00    +0.000 A 
ATOM     36  C   UNL     1       2.539   4.898  11.626  0.00  0.00    +0.000 A 
ATOM     37  C   UNL     1       2.178   3.922  12.536  0.00  0.00    +0.000 A 
ATOM     38  C   UNL     1       2.119   2.598  12.143  0.00  0.00    +0.004 A 
ENDBRANCH  26  33
ENDBRANCH  25  26
ENDBRANCH  23  25
ENDBRANCH   5  21
TORSDOF 9
