REMARK  Name = ZINC44464806
REMARK  6 active torsions:
REMARK  status: ('A' for Active; 'I' for Inactive)
REMARK    1  A    between atoms: C_6  and  C_7
REMARK    2  A    between atoms: C_10  and  C_12
REMARK    3  A    between atoms: C_12  and  CA_13
REMARK    4  A    between atoms: CA_13  and  C_15
REMARK    5  A    between atoms: CA_13  and  N_17
REMARK    6  A    between atoms: C_15  and  O_16
REMARK                            x       y       z     vdW  Elec       q    Type
REMARK                         _______ _______ _______ _____ _____    ______ ____
ROOT
ATOM      1  C   UNL     1      -1.266  -0.763   0.011  0.00  0.00    +0.135 A 
ATOM      2  C   UNL     1      -1.385  -2.118   0.010  0.00  0.00    +0.050 A 
ATOM      3  C   UNL     1      -2.765  -2.404   0.021  0.00  0.00    +0.045 A 
ATOM      4  C   UNL     1      -3.413  -1.223   0.027  0.00  0.00    +0.104 A 
ATOM      5  O   UNL     1      -2.504  -0.234   0.026  0.00  0.00    -0.460 OA
ENDROOT
BRANCH   1  11
ATOM      6  C   UNL     1      -0.017   1.392   0.010  0.00  0.00    +0.012 A 
ATOM      7  C   UNL     1       1.170   2.095   0.002  0.00  0.00    +0.016 A 
ATOM      8  C   UNL     1       2.378   1.419  -0.013  0.00  0.00    +0.018 A 
ATOM      9  C   UNL     1       2.404   0.035  -0.021  0.00  0.00    +0.016 A 
ATOM     10  C   UNL     1       1.224  -0.680  -0.013  0.00  0.00    +0.012 A 
ATOM     11  C   UNL     1       0.002  -0.004   0.002  0.00  0.00    +0.017 A 
ATOM     12 BR   UNL     1       4.000   2.390  -0.025  0.00  0.00    -0.050 Br
ENDBRANCH   1  11
BRANCH   4  13
ATOM     13  C   UNL     1      -4.909  -1.042   0.039  0.00  0.00    +0.060 C 
BRANCH  13  14
ATOM     14  CA  UNL     1      -5.404  -0.982   1.485  0.00  0.00    -0.042 C 
BRANCH  14  15
ATOM     15  N   UNL     1      -4.863   0.216   2.139  0.00  0.00    +0.382 N 
ATOM     16  H1  UNL     1      -5.189   0.255   3.093  0.00  0.00    -0.090 HD
ATOM     17  H2  UNL     1      -3.854   0.177   2.131  0.00  0.00    -0.090 HD
ATOM     18  H3  UNL     1      -5.172   1.039   1.644  0.00  0.00    -0.090 HD
ENDBRANCH  14  15
BRANCH  14  19
ATOM     19  C   UNL     1      -6.933  -0.924   1.498  0.00  0.00    +0.140 C 
BRANCH  19  20
ATOM     20  O   UNL     1      -7.400  -0.986   2.847  0.00  0.00    -0.397 OA
ATOM     21  H   UNL     1      -8.363  -0.954   2.932  0.00  0.00    +0.209 HD
ENDBRANCH  19  20
ENDBRANCH  14  19
ENDBRANCH  13  14
ENDBRANCH   4  13
TORSDOF 6
