REMARK  Name = ZINC49560638
REMARK  8 active torsions:
REMARK  status: ('A' for Active; 'I' for Inactive)
REMARK    1  A    between atoms: C_1  and  C_2
REMARK    2  A    between atoms: C_5  and  C_8
REMARK    3  A    between atoms: C_8  and  C_10
REMARK    4  A    between atoms: C_8  and  N_11
REMARK    5  A    between atoms: N_11  and  S_12
REMARK    6  A    between atoms: S_12  and  C_15
REMARK    7  A    between atoms: C_20  and  N_21
REMARK    8  A    between atoms: N_21  and  N_22
REMARK                            x       y       z     vdW  Elec       q    Type
REMARK                         _______ _______ _______ _____ _____    ______ ____
ROOT
ATOM      1  S   UNL     1       1.774  -6.212   0.844  0.00  0.00    +0.061 S 
ATOM      2  O   UNL     1       2.487  -6.572   2.020  0.00  0.00    -0.153 OA
ATOM      3  O   UNL     1       0.765  -7.040   0.282  0.00  0.00    -0.153 OA
ENDROOT
BRANCH   1   4
ATOM      4  C   UNL     1       2.978  -5.958  -0.417  0.00  0.00    +0.127 A 
ATOM      5  C   UNL     1       2.827  -6.563  -1.649  0.00  0.00    +0.030 A 
ATOM      6  C   UNL     1       3.771  -6.364  -2.639  0.00  0.00    +0.002 A 
ATOM      7  C   UNL     1       4.870  -5.559  -2.400  0.00  0.00    +0.002 A 
ATOM      8  C   UNL     1       5.026  -4.950  -1.170  0.00  0.00    +0.026 A 
ATOM      9  C   UNL     1       4.077  -5.143  -0.175  0.00  0.00    +0.067 A 
BRANCH   9  10
ATOM     10  N   UNL     1       4.229  -4.525   1.068  0.00  0.00    -0.281 N 
ATOM     11  H   UNL     1       3.529  -4.598   1.736  0.00  0.00    +0.166 HD
BRANCH  10  12
ATOM     12  N   UNL     1       5.364  -3.816   1.343  0.00  0.00    -0.256 NA
ATOM     13  H   UNL     1       5.514  -3.092   0.656  0.00  0.00    +0.140 HD
ATOM     14  H   UNL     1       5.332  -3.429   2.275  0.00  0.00    +0.140 HD
ENDBRANCH  10  12
ENDBRANCH   9  10
ENDBRANCH   1   4
BRANCH   1  15
ATOM     15  N   UNL     1       1.067  -4.746   1.150  0.00  0.00    -0.183 NA
ATOM     16  H   UNL     1       1.176  -4.326   2.018  0.00  0.00    +0.149 HD
BRANCH  15  17
ATOM     17  C   UNL     1       0.278  -4.082   0.109  0.00  0.00    +0.103 C 
ATOM     18  C   UNL     1      -1.204  -4.410   0.306  0.00  0.00    +0.031 C 
BRANCH  17  23
ATOM     19  C   UNL     1       1.045   1.635   0.459  0.00  0.00    +0.044 C 
ATOM     20  C   UNL     1       0.845   0.144   0.367  0.00  0.00    -0.050 A 
ATOM     21  C   UNL     1       0.783  -0.471  -0.869  0.00  0.00    +0.003 A 
ATOM     22  C   UNL     1       0.599  -1.839  -0.953  0.00  0.00    +0.005 A 
ATOM     23  C   UNL     1       0.479  -2.591   0.200  0.00  0.00    -0.029 A 
ATOM     24  C   UNL     1       0.542  -1.977   1.437  0.00  0.00    +0.005 A 
ATOM     25  C   UNL     1       0.730  -0.610   1.521  0.00  0.00    +0.003 A 
ENDBRANCH  17  23
ENDBRANCH  15  17
ENDBRANCH   1  15
TORSDOF 6
