REMARK  Name = ZINC13312476
REMARK  9 active torsions:
REMARK  status: ('A' for Active; 'I' for Inactive)
REMARK    1  A    between atoms: C_1  and  C_2
REMARK    2  A    between atoms: C_2  and  C_3
REMARK    3  A    between atoms: C_2  and  C_4
REMARK    4  A    between atoms: C_2  and  N_5
REMARK    5  A    between atoms: C_6  and  C_8
REMARK    6  A    between atoms: C_8  and  N_9
REMARK    7  A    between atoms: N_9  and  S_10
REMARK    8  A    between atoms: S_10  and  C_13
REMARK    9  A    between atoms: C_15  and  C_21
REMARK                            x       y       z     vdW  Elec       q    Type
REMARK                         _______ _______ _______ _____ _____    ______ ____
ROOT
ATOM      1  S   UNL     1      -1.368  -0.853   0.382  0.00  0.00    +0.060 S 
ATOM      2  O   UNL     1      -1.040  -2.230   0.260  0.00  0.00    -0.153 OA
ATOM      3  O   UNL     1      -1.871  -0.293   1.587  0.00  0.00    -0.153 OA
ENDROOT
BRANCH   1   4
ATOM      4  C   UNL     1      -2.559  -0.506  -0.870  0.00  0.00    +0.124 A 
ATOM      5  C   UNL     1      -2.994  -1.515  -1.703  0.00  0.00    +0.046 A 
ATOM      6  C   UNL     1      -3.938  -1.240  -2.695  0.00  0.00    +0.083 A 
ATOM      7  C   UNL     1      -4.437   0.059  -2.835  0.00  0.00    +0.057 A 
ATOM      8  C   UNL     1      -3.993   1.060  -1.994  0.00  0.00    +0.042 A 
ATOM      9  C   UNL     1      -3.060   0.777  -1.010  0.00  0.00    +0.069 A 
ATOM     10 CL   UNL     1      -2.512   2.040   0.048  0.00  0.00    -0.081 Cl
ATOM     11 CL   UNL     1      -5.611   0.413  -4.065  0.00  0.00    -0.083 Cl
BRANCH   6  12
ATOM     12  C   UNL     1      -4.409  -2.315  -3.590  0.00  0.00    +0.388 C 
ATOM     13  O   UNL     1      -5.230  -2.072  -4.451  0.00  0.00    -0.241 OA
ATOM     14  O   UNL     1      -3.927  -3.565  -3.451  0.00  0.00    -0.241 OA
ENDBRANCH   6  12
ENDBRANCH   1   4
BRANCH   1  15
ATOM     15  N   UNL     1       0.002  -0.004   0.002  0.00  0.00    -0.181 NA
ATOM     16  H   UNL     1       0.818  -0.477  -0.226  0.00  0.00    +0.149 HD
BRANCH  15  17
ATOM     17  C   UNL     1      -0.018   1.461   0.010  0.00  0.00    +0.201 C 
BRANCH  17  19
ATOM     18  N   UNL     1       1.624   3.311   0.004  0.00  0.00    -0.309 N 
ATOM     19  C   UNL     1       1.396   1.982  -0.001  0.00  0.00    +0.229 C 
ATOM     20  O   UNL     1       2.328   1.207  -0.014  0.00  0.00    -0.274 OA
ATOM     21  H   UNL     1       0.879   3.931   0.015  0.00  0.00    +0.149 HD
BRANCH  18  23
ATOM     22  C   UNL     1       3.715   3.324  -1.265  0.00  0.00    +0.031 C 
ATOM     23  C   UNL     1       2.999   3.818  -0.006  0.00  0.00    +0.026 C 
ATOM     24  C   UNL     1       2.978   5.348   0.002  0.00  0.00    +0.031 C 
ATOM     25  C   UNL     1       3.739   3.311   1.234  0.00  0.00    +0.031 C 
ENDBRANCH  18  23
ENDBRANCH  17  19
ENDBRANCH  15  17
ENDBRANCH   1  15
TORSDOF 6
