REMARK  Name = ZINC15086078
REMARK  10 active torsions:
REMARK  status: ('A' for Active; 'I' for Inactive)
REMARK    1  A    between atoms: C_1  and  C_2
REMARK    2  A    between atoms: C_2  and  C_4
REMARK    3  A    between atoms: C_4  and  C_5
REMARK    4  A    between atoms: C_6  and  C_18
REMARK    5  A    between atoms: C_7  and  O_16
REMARK    6  A    between atoms: C_10  and  O_11
REMARK    7  A    between atoms: O_11  and  C_12
REMARK    8  A    between atoms: O_16  and  C_17
REMARK    9  A    between atoms: C_20  and  C_31
REMARK   10  A    between atoms: C_21  and  N_30
REMARK                            x       y       z     vdW  Elec       q    Type
REMARK                         _______ _______ _______ _____ _____    ______ ____
ROOT
ATOM      1  C   UNL     1       5.418   3.534  -0.807  0.00  0.00    +0.007 A 
ATOM      2  C   UNL     1       5.356   2.468  -1.686  0.00  0.00    +0.018 A 
ATOM      3  C   UNL     1       4.277   2.338  -2.546  0.00  0.00    +0.170 A 
ATOM      4  C   UNL     1       3.248   3.274  -2.518  0.00  0.00    +0.211 A 
ATOM      5  C   UNL     1       3.312   4.345  -1.634  0.00  0.00    +0.211 A 
ATOM      6  C   UNL     1       4.400   4.472  -0.778  0.00  0.00    +0.169 A 
ATOM      7  O   UNL     1       2.197   5.117  -1.803  0.00  0.00    -0.449 OA
ATOM      8  C   UNL     1       1.258   4.287  -2.510  0.00  0.00    +0.467 C 
ATOM      9  O   UNL     1       2.095   3.372  -3.243  0.00  0.00    -0.449 OA
ENDROOT
BRANCH   2  10
ATOM     10  C   UNL     1       6.466   1.449  -1.714  0.00  0.00    +0.105 C 
ATOM     11  C   UNL     1       7.566   1.935  -2.615  0.00  0.00    +0.098 C 
ATOM     12  C   UNL     1       7.695   1.439  -3.869  0.00  0.00    +0.198 C 
ATOM     13  O   UNL     1       6.851   0.510  -4.344  0.00  0.00    -0.445 OA
ATOM     14  C   UNL     1       6.146  -0.255  -3.490  0.00  0.00    +0.115 C 
ATOM     15  C   UNL     1       5.925   0.133  -2.220  0.00  0.00    +0.046 C 
ATOM     16  C   UNL     1       5.192  -0.670  -1.326  0.00  0.00    +0.163 C 
ATOM     17  O   UNL     1       4.996  -0.276  -0.194  0.00  0.00    -0.292 OA
ATOM     18  C   UNL     1       4.648  -2.008  -1.747  0.00  0.00    +0.080 C 
ATOM     19  C   UNL     1       5.542  -2.580  -2.853  0.00  0.00    +0.016 C 
ATOM     20  C   UNL     1       5.602  -1.569  -3.999  0.00  0.00    +0.075 C 
BRANCH  12  21
ATOM     21  N   UNL     1       8.712   1.895  -4.671  0.00  0.00    -0.328 N 
ATOM     22  H   UNL     1       9.329   2.566  -4.338  0.00  0.00    +0.145 HD
ATOM     23  H   UNL     1       8.814   1.547  -5.570  0.00  0.00    +0.145 HD
ENDBRANCH  12  21
BRANCH  11  24
ATOM     24  C   UNL     1       8.484   2.929  -2.145  0.00  0.00    +0.101 C 
ATOM     25  N   UNL     1       9.212   3.717  -1.772  0.00  0.00    -0.191 NA
ENDBRANCH  11  24
ENDBRANCH   2  10
BRANCH   6  26
ATOM     26  O   UNL     1       4.465   5.520   0.088  0.00  0.00    -0.491 OA
ATOM     27  C   UNL     1       5.005   6.744  -0.413  0.00  0.00    +0.277 C 
ENDBRANCH   6  26
BRANCH   3  28
ATOM     28  O   UNL     1       4.221   1.292  -3.414  0.00  0.00    -0.491 OA
ATOM     29  C   UNL     1       2.980   0.589  -3.503  0.00  0.00    +0.277 C 
ENDBRANCH   3  28
BRANCH   1  30
ATOM     30  C   UNL     1       6.596   3.673   0.122  0.00  0.00    +0.058 C 
BRANCH  30  32
ATOM     31  C   UNL     1       7.361   3.405   2.486  0.00  0.00    +0.025 C 
ATOM     32  C   UNL     1       6.231   3.111   1.497  0.00  0.00    +0.082 C 
ATOM     33 CL   UNL     1       5.991   1.328   1.373  0.00  0.00    -0.122 Cl
ENDBRANCH  30  32
ENDBRANCH   1  30
TORSDOF 7
