REMARK  Name = ZINC36205358
REMARK  11 active torsions:
REMARK  status: ('A' for Active; 'I' for Inactive)
REMARK    1  A    between atoms: C_1  and  C_2
REMARK    2  A    between atoms: C_5  and  C_9
REMARK    3  A    between atoms: C_7  and  C_8
REMARK    4  A    between atoms: C_18  and  C_20
REMARK    5  A    between atoms: C_20  and  N_21
REMARK    6  A    between atoms: N_21  and  C_22
REMARK    7  A    between atoms: N_21  and  C_33
REMARK    8  A    between atoms: C_22  and  C_23
REMARK    9  A    between atoms: C_23  and  C_25
REMARK   10  A    between atoms: C_23  and  O_32
REMARK   11  A    between atoms: C_25  and  C_26
REMARK                            x       y       z     vdW  Elec       q    Type
REMARK                         _______ _______ _______ _____ _____    ______ ____
ROOT
ATOM      1  C   UNL     1      -3.624  -7.646  -2.841  0.00  0.00    -0.003 C 
ENDROOT
BRANCH   1  11
ATOM      2  C   UNL     1      -3.029  -4.541   1.901  0.00  0.00    +0.004 A 
ATOM      3  C   UNL     1      -2.638  -5.285   2.964  0.00  0.00    +0.056 A 
ATOM      4  S   UNL     1      -2.501  -6.929   2.287  0.00  0.00    -0.076 S 
ATOM      5  C   UNL     1      -2.967  -6.581   0.611  0.00  0.00    +0.116 A 
ATOM      6  C   UNL     1      -3.224  -5.200   0.616  0.00  0.00    +0.080 A 
ATOM      7  C   UNL     1      -3.634  -4.641  -0.636  0.00  0.00    +0.260 A 
ATOM      8  O   UNL     1      -3.875  -3.450  -0.733  0.00  0.00    -0.267 OA
ATOM      9  N   UNL     1      -3.748  -5.450  -1.706  0.00  0.00    -0.312 N 
ATOM     10  H   UNL     1      -4.025  -5.077  -2.557  0.00  0.00    +0.170 HD
ATOM     11  C   UNL     1      -3.483  -6.779  -1.617  0.00  0.00    +0.094 A 
ATOM     12  N   UNL     1      -3.097  -7.316  -0.490  0.00  0.00    -0.229 NA
BRANCH   2  17
ATOM     13  C   UNL     1      -3.929   1.119   2.459  0.00  0.00    +0.044 C 
ATOM     14  C   UNL     1      -3.694  -0.362   2.313  0.00  0.00    -0.048 A 
ATOM     15  C   UNL     1      -2.898  -0.835   1.285  0.00  0.00    +0.004 A 
ATOM     16  C   UNL     1      -2.679  -2.190   1.146  0.00  0.00    +0.009 A 
ATOM     17  C   UNL     1      -3.261  -3.083   2.045  0.00  0.00    -0.016 A 
ATOM     18  C   UNL     1      -4.061  -2.601   3.079  0.00  0.00    +0.012 A 
ATOM     19  C   UNL     1      -4.269  -1.243   3.211  0.00  0.00    -0.047 A 
ATOM     20  C   UNL     1      -5.129  -0.719   4.332  0.00  0.00    +0.044 C 
ENDBRANCH   2  17
ENDBRANCH   1  11
BRANCH   1  21
ATOM     21  N   UNL     1      -3.110  -8.991  -2.550  0.00  0.00    +0.388 N 
ATOM     22  H   UNL     1      -3.331  -9.237  -1.597  0.00  0.00    -0.081 HD
BRANCH  21  23
ATOM     23  C   UNL     1      -1.653  -9.009  -2.736  0.00  0.00    -0.068 C 
ATOM     24  C   UNL     1      -1.007  -7.986  -1.799  0.00  0.00    -0.015 C 
ATOM     25  C   UNL     1       0.511  -8.004  -1.992  0.00  0.00    -0.002 C 
ATOM     26  C   UNL     1       0.845  -7.650  -3.442  0.00  0.00    -0.000 C 
ATOM     27  C   UNL     1       0.200  -8.674  -4.379  0.00  0.00    -0.002 C 
ATOM     28  C   UNL     1      -1.318  -8.655  -4.186  0.00  0.00    -0.015 C 
ENDBRANCH  21  23
BRANCH  21  29
ATOM     29  C   UNL     1      -3.731  -9.960  -3.463  0.00  0.00    -0.046 C 
BRANCH  29  30
ATOM     30  C   UNL     1      -3.276 -11.373  -3.093  0.00  0.00    +0.102 C 
BRANCH  30  31
ATOM     31  O   UNL     1      -3.653 -11.658  -1.744  0.00  0.00    -0.393 OA
ATOM     32  H   UNL     1      -4.606 -11.614  -1.585  0.00  0.00    +0.210 HD
ENDBRANCH  30  31
BRANCH  30  33
ATOM     33  C   UNL     1      -3.937 -12.384  -4.032  0.00  0.00    +0.064 C 
BRANCH  33  34
ATOM     34  C   UNL     1      -3.395 -13.762  -3.748  0.00  0.00    -0.045 A 
ATOM     35  C   UNL     1      -2.273 -14.215  -4.417  0.00  0.00    +0.004 A 
ATOM     36  C   UNL     1      -1.777 -15.478  -4.157  0.00  0.00    +0.000 A 
ATOM     37  C   UNL     1      -2.401 -16.289  -3.228  0.00  0.00    +0.000 A 
ATOM     38  C   UNL     1      -3.522 -15.836  -2.558  0.00  0.00    +0.000 A 
ATOM     39  C   UNL     1      -4.017 -14.570  -2.815  0.00  0.00    +0.004 A 
ENDBRANCH  33  34
ENDBRANCH  30  33
ENDBRANCH  29  30
ENDBRANCH  21  29
ENDBRANCH   1  21
TORSDOF 9
