REMARK  Name = ZINC39622667
REMARK  7 active torsions:
REMARK  status: ('A' for Active; 'I' for Inactive)
REMARK    1  A    between atoms: C_10  and  C_12
REMARK    2  A    between atoms: C_18  and  C_20
REMARK    3  A    between atoms: C_20  and  O_22
REMARK    4  A    between atoms: O_22  and  C_23
REMARK    5  A    between atoms: C_23  and  C_24
REMARK    6  A    between atoms: N_26  and  C_27
REMARK    7  A    between atoms: C_28  and  C_32
REMARK                            x       y       z     vdW  Elec       q    Type
REMARK                         _______ _______ _______ _____ _____    ______ ____
ROOT
ATOM      1  C   UNL     1       7.143   0.437  -1.502  0.00  0.00    +0.311 C 
ATOM      2  O   UNL     1       6.359  -0.147  -2.212  0.00  0.00    -0.251 OA
ENDROOT
BRANCH   1   8
ATOM      3  C   UNL     1       5.137   1.002  -0.158  0.00  0.00    +0.089 C 
ATOM      4  C   UNL     1       4.641   1.737   1.088  0.00  0.00    +0.013 C 
ATOM      5  C   UNL     1       5.312   1.147   2.330  0.00  0.00    +0.001 C 
ATOM      6  C   UNL     1       6.830   1.306   2.214  0.00  0.00    +0.001 C 
ATOM      7  C   UNL     1       7.326   0.571   0.967  0.00  0.00    +0.015 C 
ATOM      8  C   UNL     1       6.654   1.161  -0.275  0.00  0.00    +0.110 C 
BRANCH   3  18
ATOM      9  C   UNL     1       1.866  -4.690  -0.311  0.00  0.00    +0.000 A 
ATOM     10  C   UNL     1       3.235  -4.601  -0.136  0.00  0.00    +0.002 A 
ATOM     11  C   UNL     1       3.850  -3.368  -0.091  0.00  0.00    +0.024 A 
ATOM     12  C   UNL     1       3.096  -2.200  -0.221  0.00  0.00    +0.039 A 
ATOM     13  C   UNL     1       1.725  -2.300  -0.396  0.00  0.00    -0.024 A 
ATOM     14  C   UNL     1       1.113  -3.538  -0.441  0.00  0.00    +0.005 A 
ATOM     15  C   UNL     1       1.151  -0.906  -0.510  0.00  0.00    +0.056 C 
ATOM     16  C   UNL     1       2.367   0.025  -0.378  0.00  0.00    +0.118 C 
ATOM     17  N   UNL     1       3.517  -0.867  -0.204  0.00  0.00    -0.271 N 
ATOM     18  C   UNL     1       4.793  -0.461  -0.049  0.00  0.00    +0.224 C 
ATOM     19  O   UNL     1       5.664  -1.274   0.179  0.00  0.00    -0.275 OA
ENDBRANCH   3  18
ENDBRANCH   1   8
BRANCH   1  20
ATOM     20  O   UNL     1       8.450   0.440  -1.808  0.00  0.00    -0.455 OA
BRANCH  20  21
ATOM     21  C   UNL     1       8.843  -0.267  -2.986  0.00  0.00    +0.328 C 
BRANCH  21  22
ATOM     22  C   UNL     1      10.335  -0.153  -3.166  0.00  0.00    +0.255 C 
ATOM     23  O   UNL     1      10.997   0.472  -2.365  0.00  0.00    -0.272 OA
ATOM     24  N   UNL     1      10.934  -0.746  -4.218  0.00  0.00    -0.277 N 
ATOM     25  H   UNL     1      10.404  -1.246  -4.859  0.00  0.00    +0.155 HD
BRANCH  24  26
ATOM     26  C   UNL     1      12.306  -0.641  -4.384  0.00  0.00    +0.084 A 
ATOM     27  C   UNL     1      13.086  -1.175  -5.400  0.00  0.00    +0.065 A 
ATOM     28  C   UNL     1      14.505  -0.913  -5.331  0.00  0.00    +0.022 A 
ATOM     29  C   UNL     1      14.915  -0.174  -4.283  0.00  0.00    +0.048 A 
ATOM     30  S   UNL     1      13.405   0.167  -3.406  0.00  0.00    -0.081 S 
BRANCH  27  31
ATOM     31  C   UNL     1      12.500  -1.966  -6.486  0.00  0.00    +0.244 C 
ATOM     32  O   UNL     1      11.300  -2.169  -6.513  0.00  0.00    -0.270 OA
ATOM     33  N   UNL     1      13.290  -2.469  -7.455  0.00  0.00    -0.325 N 
ATOM     34  H   UNL     1      14.246  -2.308  -7.434  0.00  0.00    +0.145 HD
ATOM     35  H   UNL     1      12.902  -2.993  -8.174  0.00  0.00    +0.145 HD
ENDBRANCH  27  31
ENDBRANCH  24  26
ENDBRANCH  21  22
ENDBRANCH  20  21
ENDBRANCH   1  20
TORSDOF 7
