REMARK  Name = ZINC45606003
REMARK  11 active torsions:
REMARK  status: ('A' for Active; 'I' for Inactive)
REMARK    1  A    between atoms: C_1  and  C_2
REMARK    2  A    between atoms: C_2  and  C_3
REMARK    3  A    between atoms: C_2  and  C_4
REMARK    4  A    between atoms: C_2  and  C_5
REMARK    5  A    between atoms: C_8  and  S_11
REMARK    6  A    between atoms: S_11  and  N_14
REMARK    7  A    between atoms: N_17  and  C_20
REMARK    8  A    between atoms: C_20  and  C_21
REMARK    9  A    between atoms: C_21  and  C_23
REMARK   10  A    between atoms: C_24  and  N_35
REMARK   11  A    between atoms: N_25  and  C_32
REMARK                            x       y       z     vdW  Elec       q    Type
REMARK                         _______ _______ _______ _____ _____    ______ ____
ROOT
ATOM      1  N   UNL     1       3.357   0.306  -4.350  0.00  0.00    -0.174 NA
ATOM      2  C   UNL     1       2.054  -0.039  -4.938  0.00  0.00    +0.125 C 
ATOM      3  C   UNL     1       1.287   1.258  -5.218  0.00  0.00    +0.102 C 
ATOM      4  N   UNL     1       2.121   2.149  -6.036  0.00  0.00    -0.293 NA
ATOM      5  C   UNL     1       3.341   2.543  -5.319  0.00  0.00    +0.102 C 
ATOM      6  C   UNL     1       4.189   1.303  -5.040  0.00  0.00    +0.125 C 
ENDROOT
BRANCH   1   7
ATOM      7  S   UNL     1       3.870  -0.405  -2.945  0.00  0.00    +0.061 S 
ATOM      8  O   UNL     1       5.288  -0.316  -2.939  0.00  0.00    -0.153 OA
ATOM      9  O   UNL     1       3.184  -1.645  -2.843  0.00  0.00    -0.153 OA
BRANCH   7  13
ATOM     10  C   UNL     1       2.400   2.172   0.475  0.00  0.00    -0.042 A 
ATOM     11  C   UNL     1       1.613   1.140  -0.002  0.00  0.00    +0.006 A 
ATOM     12  C   UNL     1       2.061   0.354  -1.046  0.00  0.00    +0.029 A 
ATOM     13  C   UNL     1       3.297   0.599  -1.614  0.00  0.00    +0.105 A 
ATOM     14  C   UNL     1       4.084   1.631  -1.139  0.00  0.00    +0.029 A 
ATOM     15  C   UNL     1       3.634   2.420  -0.097  0.00  0.00    +0.006 A 
BRANCH  10  17
ATOM     16  C   UNL     1       1.818   4.485   1.152  0.00  0.00    +0.015 C 
ATOM     17  C   UNL     1       1.911   3.029   1.613  0.00  0.00    -0.013 C 
ATOM     18  C   UNL     1       2.889   2.927   2.785  0.00  0.00    +0.015 C 
ATOM     19  C   UNL     1       0.529   2.546   2.058  0.00  0.00    +0.015 C 
ENDBRANCH  10  17
ENDBRANCH   7  13
ENDBRANCH   1   7
BRANCH   4  20
ATOM     20  C   UNL     1       1.362   3.329  -6.470  0.00  0.00    +0.164 C 
BRANCH  20  21
ATOM     21  C   UNL     1       2.160   4.090  -7.497  0.00  0.00    +0.185 C 
ATOM     22  O   UNL     1       3.255   3.688  -7.834  0.00  0.00    -0.290 OA
BRANCH  21  23
ATOM     23  C   UNL     1       1.635   5.269  -8.067  0.00  0.00    +0.121 A 
ATOM     24  C   UNL     1       2.411   6.069  -8.923  0.00  0.00    +0.116 A 
ATOM     25  N   UNL     1       1.858   7.201  -9.451  0.00  0.00    -0.278 N 
ATOM     26  C   UNL     1       0.596   7.559  -9.167  0.00  0.00    +0.331 A 
ATOM     27  O   UNL     1       0.151   8.576  -9.662  0.00  0.00    -0.246 OA
ATOM     28  N   UNL     1      -0.193   6.835  -8.356  0.00  0.00    -0.274 N 
ATOM     29  H   UNL     1      -1.099   7.133  -8.179  0.00  0.00    +0.173 HD
ATOM     30  C   UNL     1       0.257   5.697  -7.789  0.00  0.00    +0.266 A 
ATOM     31  O   UNL     1      -0.462   5.040  -7.059  0.00  0.00    -0.267 OA
BRANCH  25  32
ATOM     32  C   UNL     1       2.659   8.042 -10.345  0.00  0.00    +0.094 C 
ATOM     33  C   UNL     1       2.012   8.497 -11.655  0.00  0.00    +0.027 C 
ATOM     34  C   UNL     1       3.110   7.431 -11.673  0.00  0.00    +0.027 C 
ENDBRANCH  25  32
BRANCH  24  35
ATOM     35  N   UNL     1       3.692   5.722  -9.222  0.00  0.00    -0.344 N 
ATOM     36  H   UNL     1       3.958   4.789  -9.202  0.00  0.00    +0.144 HD
ATOM     37  H   UNL     1       4.339   6.407  -9.453  0.00  0.00    +0.144 HD
ENDBRANCH  24  35
ENDBRANCH  21  23
ENDBRANCH  20  21
ENDBRANCH   4  20
TORSDOF 8
