REMARK  Name = ZINC12562228
REMARK  11 active torsions:
REMARK  status: ('A' for Active; 'I' for Inactive)
REMARK    1  A    between atoms: C_1  and  C_2
REMARK    2  A    between atoms: C_2  and  O_3
REMARK    3  A    between atoms: O_3  and  C_4
REMARK    4  A    between atoms: C_9  and  N_10
REMARK    5  A    between atoms: N_10  and  C_11
REMARK    6  A    between atoms: C_11  and  C_13
REMARK    7  A    between atoms: C_11  and  C_14
REMARK    8  A    between atoms: N_16  and  C_17
REMARK    9  A    between atoms: C_20  and  S_23
REMARK   10  A    between atoms: S_23  and  N_26
REMARK   11  A    between atoms: C_28  and  C_31
REMARK                            x       y       z     vdW  Elec       q    Type
REMARK                         _______ _______ _______ _____ _____    ______ ____
ROOT
ATOM      1  C   UNL     1      -0.057   1.227  -0.057  0.00  0.00    +0.154 C 
ATOM      2  C   UNL     1      -0.893   1.552  -1.297  0.00  0.00    +0.038 C 
ENDROOT
BRANCH   1   3
ATOM      3  C   UNL     1      -0.778   1.709   1.175  0.00  0.00    +0.237 C 
ATOM      4  O   UNL     1      -0.258   2.530   1.900  0.00  0.00    -0.273 OA
ATOM      5  N   UNL     1      -2.002   1.228   1.472  0.00  0.00    -0.284 N 
ATOM      6  H   UNL     1      -2.451   0.630   0.854  0.00  0.00    +0.155 HD
BRANCH   5   7
ATOM      7  C   UNL     1      -2.625   1.590   2.671  0.00  0.00    +0.034 A 
ATOM      8  C   UNL     1      -1.863   1.814   3.811  0.00  0.00    +0.025 A 
ATOM      9  C   UNL     1      -2.480   2.178   4.991  0.00  0.00    +0.030 A 
ATOM     10  C   UNL     1      -3.856   2.308   5.042  0.00  0.00    +0.105 A 
ATOM     11  C   UNL     1      -4.618   2.080   3.911  0.00  0.00    +0.030 A 
ATOM     12  C   UNL     1      -4.006   1.722   2.726  0.00  0.00    +0.025 A 
BRANCH  10  13
ATOM     13  S   UNL     1      -4.640   2.766   6.552  0.00  0.00    +0.056 S 
ATOM     14  O   UNL     1      -3.666   3.453   7.324  0.00  0.00    -0.153 OA
ATOM     15  O   UNL     1      -5.886   3.352   6.202  0.00  0.00    -0.153 OA
BRANCH  13  16
ATOM     16  N   UNL     1      -4.988   1.366   7.367  0.00  0.00    -0.204 NA
ATOM     17  H   UNL     1      -4.753   0.509   6.980  0.00  0.00    +0.144 HD
ATOM     18  H   UNL     1      -5.427   1.405   8.231  0.00  0.00    +0.144 HD
ENDBRANCH  13  16
ENDBRANCH  10  13
ENDBRANCH   5   7
ENDBRANCH   1   3
BRANCH   1  19
ATOM     19  N   UNL     1       1.243   1.895  -0.155  0.00  0.00    -0.330 N 
ATOM     20  H   UNL     1       1.377   2.759   0.266  0.00  0.00    +0.147 HD
BRANCH  19  26
ATOM     21  C   UNL     1       3.524   1.927  -0.953  0.00  0.00    +0.142 A 
ATOM     22  C   UNL     1       4.558   1.319  -1.647  0.00  0.00    +0.055 A 
ATOM     23  C   UNL     1       4.359   0.094  -2.246  0.00  0.00    +0.001 A 
ATOM     24  C   UNL     1       3.135  -0.555  -2.155  0.00  0.00    +0.126 A 
ATOM     25  C   UNL     1       2.097   0.055  -1.456  0.00  0.00    +0.072 A 
ATOM     26  C   UNL     1       2.291   1.288  -0.856  0.00  0.00    +0.073 A 
ATOM     27  O   UNL     1       3.165  -1.757  -2.798  0.00  0.00    -0.488 OA
ATOM     28  C   UNL     1       4.263  -1.769  -3.725  0.00  0.00    +0.175 C 
ATOM     29  C   UNL     1       5.271  -0.791  -3.076  0.00  0.00    +0.083 C 
ATOM     30  C   UNL     1       4.864  -3.172  -3.835  0.00  0.00    +0.052 C 
BRANCH  21  31
ATOM     31  O   UNL     1       3.715   3.140  -0.365  0.00  0.00    -0.490 OA
BRANCH  31  33
ATOM     32  C   UNL     1       5.030   5.083   0.214  0.00  0.00    +0.048 C 
ATOM     33  C   UNL     1       5.007   3.734  -0.508  0.00  0.00    +0.226 C 
ENDBRANCH  31  33
ENDBRANCH  21  31
ENDBRANCH  19  26
ENDBRANCH   1  19
TORSDOF 8
