REMARK  Name = ZINC20607851
REMARK  7 active torsions:
REMARK  status: ('A' for Active; 'I' for Inactive)
REMARK    1  A    between atoms: C_1  and  O_2
REMARK    2  A    between atoms: O_2  and  C_3
REMARK    3  A    between atoms: C_3  and  C_5
REMARK    4  A    between atoms: C_9  and  N_10
REMARK    5  A    between atoms: C_11  and  C_13
REMARK    6  A    between atoms: C_13  and  C_14
REMARK    7  A    between atoms: C_14  and  N_15
REMARK                            x       y       z     vdW  Elec       q    Type
REMARK                         _______ _______ _______ _____ _____    ______ ____
ROOT
ATOM      1  N   UNL     1      -1.283  -2.317  -2.479  0.00  0.00    -0.279 N 
ATOM      2  C   UNL     1      -1.326  -3.165  -3.525  0.00  0.00    +0.219 C 
ATOM      3  O   UNL     1      -1.370  -4.362  -3.334  0.00  0.00    -0.275 OA
ATOM      4  H   UNL     1      -1.248  -1.359  -2.632  0.00  0.00    +0.155 HD
ENDROOT
BRANCH   1   9
ATOM      5  C   UNL     1      -1.248  -2.096   0.003  0.00  0.00    +0.091 A 
ATOM      6  C   UNL     1      -1.271  -2.859   1.239  0.00  0.00    -0.021 A 
ATOM      7  C   UNL     1      -1.323  -4.197   1.062  0.00  0.00    -0.004 A 
ATOM      8  S   UNL     1      -1.342  -4.417  -0.693  0.00  0.00    -0.077 S 
ATOM      9  C   UNL     1      -1.288  -2.812  -1.185  0.00  0.00    +0.086 A 
ATOM     10  C   UNL     1      -1.357  -5.245   2.130  0.00  0.00    +0.043 C 
ATOM     11  C   UNL     1      -0.943  -4.594   3.458  0.00  0.00    +0.005 C 
ATOM     12  C   UNL     1      -1.728  -3.292   3.638  0.00  0.00    +0.005 C 
ATOM     13  C   UNL     1      -1.241  -2.246   2.631  0.00  0.00    +0.037 C 
BRANCH   5  14
ATOM     14  C   UNL     1      -1.191  -0.633   0.010  0.00  0.00    +0.342 C 
ATOM     15  O   UNL     1      -2.220   0.016   0.023  0.00  0.00    -0.245 OA
BRANCH  14  17
ATOM     16  C   UNL     1      -0.017   1.425   0.010  0.00  0.00    +0.280 C 
ATOM     17  O   UNL     1       0.002  -0.004   0.002  0.00  0.00    -0.464 OA
ENDBRANCH  14  17
ENDBRANCH   5  14
ENDBRANCH   1   9
BRANCH   2  18
ATOM     18  C   UNL     1      -1.320  -2.626  -4.933  0.00  0.00    +0.115 C 
BRANCH  18  19
ATOM     19  C   UNL     1      -1.375  -3.790  -5.925  0.00  0.00    +0.125 C 
BRANCH  19  20
ATOM     20  N   UNL     1      -1.369  -3.267  -7.293  0.00  0.00    -0.241 N 
ATOM     21  C   UNL     1      -2.493  -2.957  -7.963  0.00  0.00    +0.226 C 
ATOM     22  O   UNL     1      -3.613  -2.922  -7.501  0.00  0.00    -0.275 OA
ATOM     23  C   UNL     1      -2.106  -2.655  -9.410  0.00  0.00    +0.087 C 
ATOM     24  C   UNL     1      -2.433  -3.878 -10.245  0.00  0.00    +0.013 C 
ATOM     25  C   UNL     1      -1.572  -3.976 -11.497  0.00  0.00    +0.001 C 
ATOM     26  C   UNL     1      -0.101  -4.039 -11.071  0.00  0.00    +0.001 C 
ATOM     27  C   UNL     1       0.265  -2.707 -10.428  0.00  0.00    +0.013 C 
ATOM     28  C   UNL     1      -0.625  -2.333  -9.266  0.00  0.00    +0.087 C 
ATOM     29  C   UNL     1      -0.238  -3.048  -7.990  0.00  0.00    +0.226 C 
ATOM     30  O   UNL     1       0.883  -3.366  -7.657  0.00  0.00    -0.275 OA
ENDBRANCH  19  20
ENDBRANCH  18  19
ENDBRANCH   2  18
TORSDOF 6
