REMARK  Name = ZINC11424519
REMARK  8 active torsions:
REMARK  status: ('A' for Active; 'I' for Inactive)
REMARK    1  A    between atoms: C_1  and  C_2
REMARK    2  A    between atoms: C_2  and  C_3
REMARK    3  A    between atoms: C_3  and  C_5
REMARK    4  A    between atoms: C_3  and  N_6
REMARK    5  A    between atoms: C_15  and  S_16
REMARK    6  A    between atoms: S_16  and  C_17
REMARK    7  A    between atoms: C_17  and  C_19
REMARK    8  A    between atoms: C_17  and  C_25
REMARK                            x       y       z     vdW  Elec       q    Type
REMARK                         _______ _______ _______ _____ _____    ______ ____
ROOT
ATOM      1  N   UNL     1      -2.790  -0.872  -1.264  0.00  0.00    -0.284 N 
ATOM      2  C   UNL     1      -2.207  -1.227  -2.424  0.00  0.00    +0.263 A 
ATOM      3  O   UNL     1      -1.482  -2.206  -2.477  0.00  0.00    -0.267 OA
ATOM      4  C   UNL     1      -2.450  -0.440  -3.594  0.00  0.00    +0.076 A 
ATOM      5  C   UNL     1      -1.922  -0.645  -4.947  0.00  0.00    -0.023 A 
ATOM      6  C   UNL     1      -2.299   0.246  -5.886  0.00  0.00    -0.004 A 
ATOM      7  S   UNL     1      -3.369   1.383  -5.044  0.00  0.00    -0.073 S 
ATOM      8  C   UNL     1      -3.300   0.664  -3.423  0.00  0.00    +0.117 A 
ATOM      9  N   UNL     1      -3.845   0.962  -2.249  0.00  0.00    -0.216 NA
ATOM     10  C   UNL     1      -3.609   0.217  -1.188  0.00  0.00    +0.174 A 
ATOM     11  C   UNL     1      -1.897   0.286  -7.328  0.00  0.00    +0.043 C 
ATOM     12  C   UNL     1      -2.084  -1.106  -7.945  0.00  0.00    +0.005 C 
ATOM     13  C   UNL     1      -0.790  -1.892  -7.761  0.00  0.00    +0.001 C 
ATOM     14  C   UNL     1      -0.113  -1.484  -6.454  0.00  0.00    +0.005 C 
ATOM     15  C   UNL     1      -1.001  -1.821  -5.263  0.00  0.00    +0.037 C 
ENDROOT
BRANCH   1  16
ATOM     16  C   UNL     1      -2.545  -1.673  -0.062  0.00  0.00    +0.089 C 
ATOM     17  C   UNL     1      -3.014  -3.109  -0.302  0.00  0.00    +0.031 C 
BRANCH  16  19
ATOM     18  C   UNL     1      -0.606  -0.251   0.619  0.00  0.00    +0.006 C 
ATOM     19  C   UNL     1      -1.049  -1.671   0.257  0.00  0.00    +0.021 C 
ENDBRANCH  16  19
ENDBRANCH   1  16
BRANCH  10  20
ATOM     20  S   UNL     1      -4.354   0.638   0.352  0.00  0.00    -0.070 S 
BRANCH  20  21
ATOM     21  C   UNL     1      -5.332   2.119  -0.024  0.00  0.00    +0.169 C 
BRANCH  21  22
ATOM     22  C   UNL     1      -6.127   2.518   1.193  0.00  0.00    -0.025 A 
ATOM     23  C   UNL     1      -7.485   2.755   1.084  0.00  0.00    +0.005 A 
ATOM     24  C   UNL     1      -8.214   3.121   2.200  0.00  0.00    +0.000 A 
ATOM     25  C   UNL     1      -7.586   3.250   3.425  0.00  0.00    +0.000 A 
ATOM     26  C   UNL     1      -6.228   3.012   3.533  0.00  0.00    +0.000 A 
ATOM     27  C   UNL     1      -5.500   2.642   2.418  0.00  0.00    +0.005 A 
ENDBRANCH  21  22
BRANCH  21  28
ATOM     28  C   UNL     1      -4.409   3.245  -0.412  0.00  0.00    +0.228 C 
ATOM     29  O   UNL     1      -4.470   3.723  -1.525  0.00  0.00    -0.274 OA
ATOM     30  N   UNL     1      -3.516   3.722   0.478  0.00  0.00    -0.328 N 
ATOM     31  H   UNL     1      -3.415   3.292   1.342  0.00  0.00    +0.145 HD
ATOM     32  H   UNL     1      -2.973   4.494   0.254  0.00  0.00    +0.145 HD
ENDBRANCH  21  28
ENDBRANCH  20  21
ENDBRANCH  10  20
TORSDOF 6
