REMARK  Name = ZINC11859240
REMARK  6 active torsions:
REMARK  status: ('A' for Active; 'I' for Inactive)
REMARK    1  A    between atoms: C_4  and  C_7
REMARK    2  A    between atoms: C_7  and  C_9
REMARK    3  A    between atoms: C_11  and  C_23
REMARK    4  A    between atoms: C_17  and  C_18
REMARK    5  A    between atoms: C_17  and  O_22
REMARK    6  A    between atoms: C_28  and  O_29
REMARK                            x       y       z     vdW  Elec       q    Type
REMARK                         _______ _______ _______ _____ _____    ______ ____
ROOT
ATOM      1  C   UNL     1      -1.704   2.465   1.470  0.00  0.00    +0.144 C 
ATOM      2  C   UNL     1      -1.218   1.963   0.106  0.00  0.00    +0.123 C 
ATOM      3  N   UNL     1      -2.254   1.121  -0.493  0.00  0.00    -0.292 N 
ATOM      4  C   UNL     1      -3.553   1.314  -0.221  0.00  0.00    +0.302 C 
ATOM      5  O   UNL     1      -4.375   0.592  -0.753  0.00  0.00    -0.253 OA
ATOM      6  N   UNL     1      -3.982   2.272   0.614  0.00  0.00    -0.264 N 
ATOM      7  C   UNL     1      -3.045   3.180   1.276  0.00  0.00    +0.243 C 
ATOM      8  H   UNL     1      -1.996   0.408  -1.098  0.00  0.00    +0.151 HD
ATOM      9  H   UNL     1      -4.933   2.364   0.783  0.00  0.00    +0.153 HD
ENDROOT
BRANCH   2  10
ATOM     10  C   UNL     1       0.044   1.159   0.286  0.00  0.00    +0.015 A 
ATOM     11  C   UNL     1       1.262   1.689  -0.092  0.00  0.00    +0.009 A 
ATOM     12  C   UNL     1       2.420   0.954   0.078  0.00  0.00    +0.001 A 
ATOM     13  C   UNL     1       2.363  -0.315   0.626  0.00  0.00    +0.004 A 
ATOM     14  C   UNL     1       1.147  -0.850   1.005  0.00  0.00    +0.046 A 
ATOM     15  C   UNL     1      -0.017  -0.113   0.836  0.00  0.00    +0.122 A 
BRANCH  15  16
ATOM     16  O   UNL     1      -1.214  -0.637   1.209  0.00  0.00    -0.506 OA
ATOM     17  H   UNL     1      -1.624  -1.199   0.537  0.00  0.00    +0.292 HD
ENDBRANCH  15  16
ENDBRANCH   2  10
BRANCH   7  18
ATOM     18  C   UNL     1      -3.607   3.591   2.639  0.00  0.00    +0.436 C 
ATOM     19  F   UNL     1      -3.789   2.452   3.431  0.00  0.00    -0.166 F 
ATOM     20  F   UNL     1      -2.711   4.459   3.271  0.00  0.00    -0.166 F 
ATOM     21  F   UNL     1      -4.835   4.237   2.462  0.00  0.00    -0.166 F 
ENDBRANCH   7  18
BRANCH   1  22
ATOM     22  C   UNL     1      -0.696   3.428   2.043  0.00  0.00    +0.173 C 
ATOM     23  O   UNL     1      -0.189   4.270   1.333  0.00  0.00    -0.292 OA
BRANCH  22  27
ATOM     24  C   UNL     1       0.369   3.190   6.143  0.00  0.00    +0.000 A 
ATOM     25  C   UNL     1       0.950   4.153   5.335  0.00  0.00    +0.001 A 
ATOM     26  C   UNL     1       0.609   4.236   4.002  0.00  0.00    +0.011 A 
ATOM     27  C   UNL     1      -0.326   3.345   3.466  0.00  0.00    +0.018 A 
ATOM     28  C   UNL     1      -0.912   2.379   4.289  0.00  0.00    +0.011 A 
ATOM     29  C   UNL     1      -0.557   2.304   5.620  0.00  0.00    +0.001 A 
ENDBRANCH  22  27
ENDBRANCH   1  22
BRANCH   7  30
ATOM     30  O   UNL     1      -2.855   4.343   0.467  0.00  0.00    -0.364 OA
ATOM     31  H   UNL     1      -3.666   4.842   0.299  0.00  0.00    +0.212 HD
ENDBRANCH   7  30
TORSDOF 6
