REMARK  Name = ZINC19445829
REMARK  6 active torsions:
REMARK  status: ('A' for Active; 'I' for Inactive)
REMARK    1  A    between atoms: C_1  and  C_2
REMARK    2  A    between atoms: C_2  and  C_3
REMARK    3  A    between atoms: C_2  and  C_4
REMARK    4  A    between atoms: C_4  and  C_6
REMARK    5  A    between atoms: C_4  and  N_17
REMARK    6  A    between atoms: C_18  and  C_20
REMARK                            x       y       z     vdW  Elec       q    Type
REMARK                         _______ _______ _______ _____ _____    ______ ____
ROOT
ATOM      1  C   UNL     1      -1.290   1.682   0.008  0.00  0.00    +0.106 C 
ENDROOT
BRANCH   1   2
ATOM      2  C   UNL     1      -2.356   0.811   0.620  0.00  0.00    -0.023 A 
ATOM      3  C   UNL     1      -2.384  -0.543   0.341  0.00  0.00    +0.009 A 
ATOM      4  C   UNL     1      -3.359  -1.349   0.900  0.00  0.00    +0.050 A 
ATOM      5  C   UNL     1      -4.309  -0.794   1.741  0.00  0.00    +0.162 A 
ATOM      6  C   UNL     1      -4.282   0.565   2.019  0.00  0.00    +0.162 A 
ATOM      7  C   UNL     1      -3.301   1.368   1.463  0.00  0.00    +0.055 A 
ATOM      8  O   UNL     1      -5.224   1.102   2.849  0.00  0.00    -0.488 OA
ATOM      9  C   UNL     1      -6.561   1.124   2.345  0.00  0.00    +0.232 C 
ATOM     10  C   UNL     1      -7.256  -0.204   2.599  0.00  0.00    +0.082 C 
ATOM     11  C   UNL     1      -6.609  -1.351   1.838  0.00  0.00    +0.232 C 
ATOM     12  O   UNL     1      -5.276  -1.579   2.300  0.00  0.00    -0.488 OA
ENDBRANCH   1   2
BRANCH   1  13
ATOM     13  N   UNL     1      -0.011   0.966   0.015  0.00  0.00    -0.304 N 
ATOM     14  C   UNL     1       1.147   1.655   0.000  0.00  0.00    +0.250 C 
ATOM     15  O   UNL     1       1.132   2.868  -0.092  0.00  0.00    -0.270 OA
ATOM     16  H   UNL     1       0.003  -0.133   0.032  0.00  0.00    +0.150 HD
BRANCH  14  17
ATOM     17  C   UNL     1       2.429   0.941   0.095  0.00  0.00    +0.101 A 
ATOM     18  C   UNL     1       3.627   1.642   0.193  0.00  0.00    +0.023 A 
ATOM     19  C   UNL     1       4.829   0.934   0.281  0.00  0.00    -0.027 A 
ATOM     20  C   UNL     1       4.822  -0.424   0.271  0.00  0.00    +0.022 A 
ATOM     21  N   UNL     1       3.652  -1.110   0.176  0.00  0.00    -0.325 N 
ATOM     22  H   UNL     1       3.659  -2.210   0.163  0.00  0.00    +0.169 HD
ATOM     23  C   UNL     1       2.469  -0.477   0.095  0.00  0.00    +0.261 A 
ATOM     24  O   UNL     1       1.436  -1.119   0.016  0.00  0.00    -0.267 OA
ATOM     25  C   UNL     1       6.239  -0.950   0.378  0.00  0.00    +0.054 C 
ATOM     26  C   UNL     1       7.074   0.242   0.892  0.00  0.00    +0.011 C 
ATOM     27  C   UNL     1       6.249   1.449   0.396  0.00  0.00    +0.037 C 
ENDBRANCH  14  17
ENDBRANCH   1  13
BRANCH   1  29
ATOM     28  C   UNL     1      -3.010   2.771  -1.440  0.00  0.00    +0.009 C 
ATOM     29  C   UNL     1      -1.675   2.024  -1.433  0.00  0.00    +0.008 C 
ATOM     30  C   UNL     1      -0.592   2.908  -2.054  0.00  0.00    +0.009 C 
ENDBRANCH   1  29
TORSDOF 4
