REMARK  Name = ZINC59167512
REMARK  12 active torsions:
REMARK  status: ('A' for Active; 'I' for Inactive)
REMARK    1  A    between atoms: C_1  and  C_2
REMARK    2  A    between atoms: C_2  and  C_3
REMARK    3  A    between atoms: C_2  and  C_4
REMARK    4  A    between atoms: C_4  and  C_5
REMARK    5  A    between atoms: C_5  and  C_7
REMARK    6  A    between atoms: C_5  and  N_31
REMARK    7  A    between atoms: N_9  and  N_10
REMARK    8  A    between atoms: C_11  and  C_12
REMARK    9  A    between atoms: C_15  and  O_18
REMARK   10  A    between atoms: O_18  and  C_19
REMARK   11  A    between atoms: C_22  and  N_28
REMARK   12  A    between atoms: C_24  and  N_25
REMARK                            x       y       z     vdW  Elec       q    Type
REMARK                         _______ _______ _______ _____ _____    ______ ____
ROOT
ATOM      1  C   UNL     1      -6.563  -3.921   2.736  0.00  0.00    -0.005 A 
ATOM      2  C   UNL     1      -7.300  -4.192   1.580  0.00  0.00    +0.013 A 
ATOM      3  C   UNL     1      -8.588  -4.671   1.683  0.00  0.00    +0.047 A 
ATOM      4  C   UNL     1      -9.154  -4.883   2.934  0.00  0.00    +0.129 A 
ATOM      5  C   UNL     1      -8.425  -4.615   4.086  0.00  0.00    +0.047 A 
ATOM      6  C   UNL     1      -7.135  -4.141   3.992  0.00  0.00    +0.013 A 
ENDROOT
BRANCH   1   8
ATOM      7  N   UNL     1      -4.656  -3.205   1.464  0.00  0.00    -0.188 NA
ATOM      8  C   UNL     1      -5.185  -3.409   2.631  0.00  0.00    +0.138 C 
BRANCH   7  11
ATOM      9  C   UNL     1      -2.796  -2.507   0.151  0.00  0.00    +0.218 C 
ATOM     10  O   UNL     1      -3.436  -2.737  -0.853  0.00  0.00    -0.276 OA
ATOM     11  N   UNL     1      -3.345  -2.719   1.364  0.00  0.00    -0.208 N 
ATOM     12  H   UNL     1      -2.834  -2.534   2.167  0.00  0.00    +0.177 HD
BRANCH   9  13
ATOM     13  C   UNL     1      -1.387  -1.984   0.044  0.00  0.00    +0.015 C 
BRANCH  13  14
ATOM     14  N   UNL     1      -0.854  -2.283  -1.292  0.00  0.00    +0.386 N 
ATOM     15  H   UNL     1      -1.432  -1.840  -1.991  0.00  0.00    -0.089 HD
ATOM     16  H   UNL     1       0.089  -1.932  -1.364  0.00  0.00    -0.089 HD
ATOM     17  H   UNL     1      -0.855  -3.281  -1.439  0.00  0.00    -0.089 HD
ENDBRANCH  13  14
BRANCH  13  18
ATOM     18  C   UNL     1      -1.386  -0.470   0.266  0.00  0.00    -0.004 C 
BRANCH  18  20
ATOM     19  C   UNL     1       0.052   1.570   0.378  0.00  0.00    +0.007 C 
ATOM     20  C   UNL     1       0.055   0.043   0.281  0.00  0.00    -0.018 C 
ATOM     21  C   UNL     1       0.793  -0.544   1.486  0.00  0.00    +0.007 C 
ENDBRANCH  18  20
ENDBRANCH  13  18
ENDBRANCH   9  13
ENDBRANCH   7  11
ENDBRANCH   1   8
BRANCH   4  22
ATOM     22  O   UNL     1     -10.425  -5.355   3.031  0.00  0.00    -0.454 OA
BRANCH  22  23
ATOM     23  C   UNL     1     -11.376  -4.525   3.534  0.00  0.00    +0.159 A 
ATOM     24  C   UNL     1     -11.069  -3.200   3.809  0.00  0.00    +0.051 A 
ATOM     25  C   UNL     1     -12.038  -2.359   4.320  0.00  0.00    +0.036 A 
ATOM     26  C   UNL     1     -13.314  -2.837   4.558  0.00  0.00    +0.129 A 
ATOM     27  C   UNL     1     -13.623  -4.156   4.285  0.00  0.00    +0.069 A 
ATOM     28  C   UNL     1     -12.659  -5.000   3.767  0.00  0.00    +0.170 A 
BRANCH  28  29
ATOM     29  N   UNL     1     -12.992  -6.411   3.469  0.00  0.00    +0.060 N 
ATOM     30  O   UNL     1     -14.110  -6.824   3.672  0.00  0.00    -0.126 OA
ATOM     31  O   UNL     1     -12.147  -7.150   3.021  0.00  0.00    -0.126 OA
ENDBRANCH  28  29
BRANCH  26  32
ATOM     32  N   UNL     1     -14.350  -1.933   5.106  0.00  0.00    +0.057 N 
ATOM     33  O   UNL     1     -14.081  -0.779   5.345  0.00  0.00    -0.126 OA
ATOM     34  O   UNL     1     -15.466  -2.349   5.314  0.00  0.00    -0.126 OA
ENDBRANCH  26  32
ENDBRANCH  22  23
ENDBRANCH   4  22
TORSDOF 10
