REMARK  Name = ZINC32911846
REMARK  10 active torsions:
REMARK  status: ('A' for Active; 'I' for Inactive)
REMARK    1  A    between atoms: C_1  and  N_2
REMARK    2  A    between atoms: N_2  and  C_3
REMARK    3  A    between atoms: N_2  and  C_19
REMARK    4  A    between atoms: C_3  and  C_4
REMARK    5  A    between atoms: N_6  and  C_7
REMARK    6  A    between atoms: N_6  and  C_12
REMARK    7  A    between atoms: C_7  and  C_8
REMARK    8  A    between atoms: C_8  and  C_9
REMARK    9  A    between atoms: C_12  and  C_13
REMARK   10  A    between atoms: C_28  and  O_30
REMARK                            x       y       z     vdW  Elec       q    Type
REMARK                         _______ _______ _______ _____ _____    ______ ____
ROOT
ATOM      1  C   UNL     1      -2.821   0.640   0.541  0.00  0.00    +0.019 C 
ENDROOT
BRANCH   1   3
ATOM      2  C   UNL     1      -3.165   3.009   0.904  0.00  0.00    -0.095 C 
ATOM      3  N   UNL     1      -2.205   1.900   0.977  0.00  0.00    +0.390 N 
ATOM      4  H   UNL     1      -1.903   1.783   2.028  0.00  0.00    -0.081 HD
BRANCH   3   5
ATOM      5  C   UNL     1      -0.999   2.196   0.192  0.00  0.00    -0.008 C 
ATOM      6  C   UNL     1      -1.221   1.846  -1.264  0.00  0.00    -0.052 A 
ATOM      7  C   UNL     1      -2.307   2.087  -2.089  0.00  0.00    +0.022 A 
ATOM      8  C   UNL     1      -2.284   1.675  -3.408  0.00  0.00    +0.043 A 
ATOM      9  C   UNL     1      -1.172   1.019  -3.907  0.00  0.00    +0.040 A 
ATOM     10  C   UNL     1      -0.088   0.777  -3.084  0.00  0.00    +0.046 A 
ATOM     11  C   UNL     1      -0.111   1.190  -1.762  0.00  0.00    -0.025 A 
ATOM     12  C   UNL     1       0.931   1.049  -0.672  0.00  0.00    +0.066 C 
ATOM     13  C   UNL     1       0.171   1.295   0.648  0.00  0.00    +0.110 C 
ATOM     14 CL   UNL     1       1.306  -0.047  -3.711  0.00  0.00    -0.083 Cl
ATOM     15 CL   UNL     1      -3.647   1.982  -4.438  0.00  0.00    -0.083 Cl
BRANCH  13  16
ATOM     16  O   UNL     1      -0.311   0.066   1.194  0.00  0.00    -0.393 OA
ATOM     17  H   UNL     1       0.400  -0.687   1.565  0.00  0.00    +0.210 HD
ENDBRANCH  13  16
ENDBRANCH   3   5
ENDBRANCH   1   3
BRANCH   1  18
ATOM     18  C   UNL     1      -3.772   0.152   1.603  0.00  0.00    +0.199 C 
ATOM     19  O   UNL     1      -3.921   0.791   2.623  0.00  0.00    -0.278 OA
ATOM     20  N   UNL     1      -4.456  -0.995   1.420  0.00  0.00    -0.298 N 
BRANCH  20  21
ATOM     21  C   UNL     1      -4.275  -1.767   0.188  0.00  0.00    +0.117 C 
BRANCH  21  22
ATOM     22  C   UNL     1      -3.140  -2.774   0.380  0.00  0.00    +0.114 C 
BRANCH  22  23
ATOM     23  C   UNL     1      -2.954  -3.568  -0.888  0.00  0.00    +0.212 C 
ATOM     24  O   UNL     1      -3.660  -3.350  -1.849  0.00  0.00    -0.276 OA
ATOM     25  N   UNL     1      -2.003  -4.521  -0.953  0.00  0.00    -0.329 N 
ATOM     26  H   UNL     1      -1.868  -5.101  -1.877  0.00  0.00    +0.145 HD
ATOM     27  H   UNL     1      -1.363  -4.720  -0.080  0.00  0.00    +0.145 HD
ENDBRANCH  22  23
ENDBRANCH  21  22
ENDBRANCH  20  21
BRANCH  20  28
ATOM     28  C   UNL     1      -5.380  -1.469   2.453  0.00  0.00    +0.142 C 
BRANCH  28  29
ATOM     29  C   UNL     1      -6.754  -0.904   2.196  0.00  0.00    -0.030 A 
ATOM     30  C   UNL     1      -7.120   0.305   2.758  0.00  0.00    +0.005 A 
ATOM     31  C   UNL     1      -8.378   0.825   2.519  0.00  0.00    +0.000 A 
ATOM     32  C   UNL     1      -9.273   0.133   1.725  0.00  0.00    +0.000 A 
ATOM     33  C   UNL     1      -8.909  -1.078   1.167  0.00  0.00    +0.000 A 
ATOM     34  C   UNL     1      -7.649  -1.597   1.403  0.00  0.00    +0.005 A 
ENDBRANCH  28  29
ENDBRANCH  20  28
ENDBRANCH   1  18
TORSDOF 9
