REMARK  Name = ZINC61962425
REMARK  8 active torsions:
REMARK  status: ('A' for Active; 'I' for Inactive)
REMARK    1  A    between atoms: C_1  and  C_2
REMARK    2  A    between atoms: C_2  and  C_3
REMARK    3  A    between atoms: C_2  and  N_19
REMARK    4  A    between atoms: C_3  and  N_4
REMARK    5  A    between atoms: N_7  and  C_8
REMARK    6  A    between atoms: C_8  and  C_9
REMARK    7  A    between atoms: C_9  and  C_10
REMARK    8  A    between atoms: C_9  and  O_18
REMARK                            x       y       z     vdW  Elec       q    Type
REMARK                         _______ _______ _______ _____ _____    ______ ____
ROOT
ATOM      1  N   UNL     1       0.821  -1.729   1.532  0.00  0.00    -0.301 N 
ATOM      2  C   UNL     1       1.541  -2.220   2.560  0.00  0.00    +0.300 C 
ATOM      3  O   UNL     1       2.158  -1.464   3.286  0.00  0.00    -0.253 OA
ATOM      4  N   UNL     1       1.578  -3.549   2.783  0.00  0.00    -0.297 N 
ATOM      5  H   UNL     1       0.329  -2.332   0.953  0.00  0.00    +0.150 HD
ATOM      6  H   UNL     1       1.087  -4.151   2.203  0.00  0.00    +0.150 HD
ENDROOT
BRANCH   1   7
ATOM      7  C   UNL     1       0.780  -0.284   1.290  0.00  0.00    +0.090 C 
BRANCH   7   9
ATOM      8  C   UNL     1      -0.144   1.507  -0.186  0.00  0.00    -0.012 C 
ATOM      9  C   UNL     1      -0.006  -0.004   0.008  0.00  0.00    -0.054 C 
BRANCH   9  10
ATOM     10  N   UNL     1      -1.341  -0.609   0.109  0.00  0.00    +0.385 N 
ATOM     11  C   UNL     1      -2.107  -0.320  -1.113  0.00  0.00    -0.073 C 
ATOM     12  C   UNL     1      -3.357  -1.201  -1.125  0.00  0.00    +0.017 C 
ATOM     13  C   UNL     1      -4.086  -1.069   0.188  0.00  0.00    -0.048 A 
ATOM     14  C   UNL     1      -5.401  -1.500   0.264  0.00  0.00    +0.004 A 
ATOM     15  C   UNL     1      -6.100  -1.398   1.450  0.00  0.00    +0.000 A 
ATOM     16  C   UNL     1      -5.485  -0.864   2.567  0.00  0.00    +0.000 A 
ATOM     17  C   UNL     1      -4.176  -0.433   2.492  0.00  0.00    +0.002 A 
ATOM     18  C   UNL     1      -3.473  -0.533   1.300  0.00  0.00    -0.061 A 
ATOM     19  C   UNL     1      -2.049  -0.044   1.261  0.00  0.00    -0.042 C 
ATOM     20  H   UNL     1      -1.251  -1.608   0.225  0.00  0.00    -0.081 HD
ENDBRANCH   9  10
ENDBRANCH   7   9
ENDBRANCH   1   7
BRANCH   4  21
ATOM     21  C   UNL     1       2.362  -4.082   3.900  0.00  0.00    +0.141 C 
BRANCH  21  22
ATOM     22  C   UNL     1       2.235  -5.607   3.929  0.00  0.00    +0.162 C 
BRANCH  22  23
ATOM     23  C   UNL     1       2.938  -6.146   5.148  0.00  0.00    -0.015 A 
ATOM     24  C   UNL     1       4.314  -6.289   5.144  0.00  0.00    +0.009 A 
ATOM     25  C   UNL     1       4.961  -6.783   6.261  0.00  0.00    +0.041 A 
ATOM     26  C   UNL     1       4.233  -7.135   7.384  0.00  0.00    +0.158 A 
ATOM     27  C   UNL     1       2.854  -6.992   7.388  0.00  0.00    +0.159 A 
ATOM     28  C   UNL     1       2.209  -6.492   6.269  0.00  0.00    +0.047 A 
ATOM     29  F   UNL     1       2.141  -7.335   8.482  0.00  0.00    -0.202 F 
ATOM     30  F   UNL     1       4.865  -7.619   8.476  0.00  0.00    -0.202 F 
ENDBRANCH  22  23
BRANCH  22  31
ATOM     31  O   UNL     1       2.831  -6.157   2.752  0.00  0.00    -0.386 OA
ATOM     32  H   UNL     1       3.771  -5.950   2.654  0.00  0.00    +0.210 HD
ENDBRANCH  22  31
ENDBRANCH  21  22
ENDBRANCH   4  21
TORSDOF 7
