REMARK  Name = ZINC39676338
REMARK  6 active torsions:
REMARK  status: ('A' for Active; 'I' for Inactive)
REMARK    1  A    between atoms: C_1  and  C_2
REMARK    2  A    between atoms: C_3  and  C_14
REMARK    3  A    between atoms: C_4  and  C_8
REMARK    4  A    between atoms: C_18  and  C_27
REMARK    5  A    between atoms: N_29  and  C_30
REMARK    6  A    between atoms: C_30  and  C_31
REMARK                            x       y       z     vdW  Elec       q    Type
REMARK                         _______ _______ _______ _____ _____    ______ ____
ROOT
ATOM      1  C   UNL     1      -2.207   0.075   0.351  0.00  0.00    +0.248 C 
ATOM      2  O   UNL     1      -1.023  -0.192   0.257  0.00  0.00    -0.270 OA
ATOM      3  N   UNL     1      -3.057  -0.813   0.903  0.00  0.00    -0.296 N 
ATOM      4  C   UNL     1      -2.737  -2.146   1.467  0.00  0.00    +0.121 C 
ATOM      5  C   UNL     1      -3.630  -2.262   2.723  0.00  0.00    +0.100 C 
ATOM      6  C   UNL     1      -4.800  -1.298   2.463  0.00  0.00    -0.004 C 
ATOM      7  C   UNL     1      -4.521  -0.676   1.087  0.00  0.00    +0.115 C 
ATOM      8  C   UNL     1      -4.835  -0.209   3.531  0.00  0.00    -0.010 C 
ATOM      9  C   UNL     1      -6.040   0.703   3.284  0.00  0.00    -0.082 C 
ATOM     10  N   UNL     1      -7.273  -0.091   3.326  0.00  0.00    +0.379 N 
ATOM     11  C   UNL     1      -7.273  -1.076   2.238  0.00  0.00    -0.082 C 
ATOM     12  C   UNL     1      -6.120  -2.063   2.441  0.00  0.00    -0.010 C 
ATOM     13  H   UNL     1      -7.332  -0.571   4.212  0.00  0.00    -0.086 HD
ATOM     14  H   UNL     1      -8.069   0.520   3.224  0.00  0.00    -0.086 HD
ENDROOT
BRANCH   1  17
ATOM     15  C   UNL     1      -0.737   2.705   0.666  0.00  0.00    +0.089 C 
ATOM     16  C   UNL     1      -2.072   2.510  -0.005  0.00  0.00    +0.132 C 
ATOM     17  C   UNL     1      -2.691   1.322  -0.119  0.00  0.00    +0.078 C 
ATOM     18  C   UNL     1      -4.003   1.560  -0.843  0.00  0.00    +0.161 C 
ATOM     19  N   UNL     1      -4.174   3.032  -0.729  0.00  0.00    -0.144 NA
ATOM     20  O   UNL     1      -2.791   3.505  -0.558  0.00  0.00    -0.410 OA
ATOM     21  H   UNL     1      -4.588   3.414  -1.567  0.00  0.00    +0.168 HD
BRANCH  18  22
ATOM     22  C   UNL     1      -3.901   1.140  -2.287  0.00  0.00    -0.023 A 
ATOM     23  C   UNL     1      -3.030   1.794  -3.137  0.00  0.00    +0.005 A 
ATOM     24  C   UNL     1      -2.936   1.409  -4.461  0.00  0.00    +0.000 A 
ATOM     25  C   UNL     1      -3.713   0.368  -4.935  0.00  0.00    +0.000 A 
ATOM     26  C   UNL     1      -4.584  -0.287  -4.084  0.00  0.00    +0.000 A 
ATOM     27  C   UNL     1      -4.674   0.096  -2.759  0.00  0.00    +0.005 A 
ENDBRANCH  18  22
ENDBRANCH   1  17
BRANCH   5  28
ATOM     28  C   UNL     1      -2.864  -1.842   3.951  0.00  0.00    +0.219 C 
ATOM     29  O   UNL     1      -1.938  -1.065   3.853  0.00  0.00    -0.275 OA
ATOM     30  N   UNL     1      -3.209  -2.330   5.160  0.00  0.00    -0.308 N 
ATOM     31  H   UNL     1      -3.903  -3.003   5.231  0.00  0.00    +0.149 HD
BRANCH  30  32
ATOM     32  C   UNL     1      -2.534  -1.843   6.365  0.00  0.00    +0.178 C 
BRANCH  32  33
ATOM     33  C   UNL     1      -3.009  -2.631   7.559  0.00  0.00    +0.128 A 
ATOM     34  N   UNL     1      -2.584  -2.251   8.793  0.00  0.00    -0.309 N 
ATOM     35  H   UNL     1      -1.989  -1.490   8.883  0.00  0.00    +0.170 HD
ATOM     36  C   UNL     1      -2.982  -2.925   9.896  0.00  0.00    +0.259 A 
ATOM     37  O   UNL     1      -2.610  -2.596  11.007  0.00  0.00    -0.267 OA
ATOM     38  C   UNL     1      -3.884  -4.071   9.702  0.00  0.00    +0.065 A 
ATOM     39  C   UNL     1      -4.351  -4.831  10.772  0.00  0.00    +0.015 A 
ATOM     40  C   UNL     1      -5.194  -5.894  10.532  0.00  0.00    +0.001 A 
ATOM     41  C   UNL     1      -5.578  -6.212   9.236  0.00  0.00    +0.002 A 
ATOM     42  C   UNL     1      -5.127  -5.474   8.165  0.00  0.00    +0.028 A 
ATOM     43  C   UNL     1      -4.273  -4.391   8.382  0.00  0.00    +0.078 A 
ATOM     44  N   UNL     1      -3.809  -3.634   7.357  0.00  0.00    -0.232 NA
ENDBRANCH  32  33
ENDBRANCH  30  32
ENDBRANCH   5  28
TORSDOF 5
