REMARK  Name = ZINC40066217
REMARK  9 active torsions:
REMARK  status: ('A' for Active; 'I' for Inactive)
REMARK    1  A    between atoms: C_1  and  C_2
REMARK    2  A    between atoms: C_9  and  C_26
REMARK    3  A    between atoms: C_17  and  C_25
REMARK    4  A    between atoms: C_18  and  C_24
REMARK    5  A    between atoms: C_29  and  O_34
REMARK    6  A    between atoms: C_30  and  O_32
REMARK    7  A    between atoms: O_32  and  C_33
REMARK    8  A    between atoms: O_34  and  C_35
REMARK    9  A    between atoms: C_35  and  C_36
REMARK                            x       y       z     vdW  Elec       q    Type
REMARK                         _______ _______ _______ _____ _____    ______ ____
ROOT
ATOM      1  C   UNL     1      -0.018   1.503   0.010  0.00  0.00    +0.045 C 
ATOM      2  C   UNL     1       0.002  -0.004   0.002  0.00  0.00    -0.032 A 
ATOM      3  C   UNL     1       0.006  -0.699  -1.200  0.00  0.00    +0.008 A 
ATOM      4  C   UNL     1       0.025  -2.082  -1.163  0.00  0.00    +0.044 A 
ATOM      5  C   UNL     1       0.039  -2.725   0.070  0.00  0.00    +0.129 A 
ATOM      6  N   UNL     1       0.035  -2.027   1.194  0.00  0.00    -0.240 NA
ATOM      7  C   UNL     1       0.023  -0.708   1.190  0.00  0.00    +0.116 A 
ATOM      8  N   UNL     1       0.058  -4.117   0.121  0.00  0.00    -0.238 N 
ATOM      9  C   UNL     1      -0.035  -4.938   1.339  0.00  0.00    +0.151 C 
ATOM     10  C   UNL     1       0.031  -6.358   0.879  0.00  0.00    +0.072 A 
ATOM     11  C   UNL     1      -0.003  -7.619   1.627  0.00  0.00    +0.199 A 
ATOM     12  O   UNL     1      -0.274  -7.684   2.813  0.00  0.00    -0.287 OA
ATOM     13  C   UNL     1       0.324  -8.809   0.801  0.00  0.00    +0.065 A 
ATOM     14  C   UNL     1       0.528 -10.051   1.401  0.00  0.00    +0.015 A 
ATOM     15  C   UNL     1       0.833 -11.136   0.628  0.00  0.00    +0.004 A 
ATOM     16  C   UNL     1       0.941 -11.003  -0.750  0.00  0.00    -0.044 A 
ATOM     17  C   UNL     1       0.741  -9.785  -1.359  0.00  0.00    -0.005 A 
ATOM     18  C   UNL     1       0.425  -8.664  -0.592  0.00  0.00    +0.143 A 
ATOM     19  O   UNL     1       0.223  -7.479  -1.212  0.00  0.00    -0.449 OA
ATOM     20  C   UNL     1       0.146  -6.349  -0.482  0.00  0.00    +0.199 A 
ATOM     21  C   UNL     1       0.158  -4.948  -0.936  0.00  0.00    +0.288 C 
ATOM     22  O   UNL     1       0.249  -4.592  -2.094  0.00  0.00    -0.266 OA
ATOM     23  C   UNL     1       0.863  -9.663  -2.856  0.00  0.00    +0.048 C 
ATOM     24  C   UNL     1       1.280 -12.208  -1.589  0.00  0.00    +0.044 C 
ENDROOT
BRANCH   9  25
ATOM     25  C   UNL     1      -1.342  -4.679   2.043  0.00  0.00    -0.018 A 
ATOM     26  C   UNL     1      -2.498  -4.497   1.306  0.00  0.00    +0.009 A 
ATOM     27  C   UNL     1      -3.699  -4.258   1.947  0.00  0.00    +0.050 A 
ATOM     28  C   UNL     1      -3.747  -4.202   3.331  0.00  0.00    +0.162 A 
ATOM     29  C   UNL     1      -2.584  -4.386   4.072  0.00  0.00    +0.162 A 
ATOM     30  C   UNL     1      -1.384  -4.629   3.424  0.00  0.00    +0.055 A 
BRANCH  29  31
ATOM     31  O   UNL     1      -2.626  -4.331   5.431  0.00  0.00    -0.491 OA
ATOM     32  C   UNL     1      -1.394  -4.529   6.126  0.00  0.00    +0.277 C 
ENDBRANCH  29  31
BRANCH  28  33
ATOM     33  O   UNL     1      -4.928  -3.967   3.963  0.00  0.00    -0.484 OA
BRANCH  33  34
ATOM     34  C   UNL     1      -6.081  -3.787   3.138  0.00  0.00    +0.256 C 
BRANCH  34  35
ATOM     35  C   UNL     1      -7.287  -3.540   4.006  0.00  0.00    +0.006 C 
ATOM     36  C   UNL     1      -8.129  -2.583   3.702  0.00  0.00    +0.007 C 
ENDBRANCH  34  35
ENDBRANCH  33  34
ENDBRANCH  28  33
ENDBRANCH   9  25
TORSDOF 5
