REMARK  Name = ZINC36527329
REMARK  15 active torsions:
REMARK  status: ('A' for Active; 'I' for Inactive)
REMARK    1  A    between atoms: C_1  and  C_2
REMARK    2  A    between atoms: C_2  and  C_3
REMARK    3  A    between atoms: C_3  and  C_5
REMARK    4  A    between atoms: C_3  and  C_11
REMARK    5  A    between atoms: N_13  and  C_14
REMARK    6  A    between atoms: N_13  and  C_15
REMARK    7  A    between atoms: C_15  and  C_17
REMARK    8  A    between atoms: C_15  and  C_26
REMARK    9  A    between atoms: C_18  and  O_25
REMARK   10  A    between atoms: C_20  and  O_24
REMARK   11  A    between atoms: C_22  and  O_23
REMARK   12  A    between atoms: N_28  and  C_29
REMARK   13  A    between atoms: C_29  and  C_30
REMARK   14  A    between atoms: C_29  and  C_31
REMARK   15  A    between atoms: C_29  and  C_32
REMARK                            x       y       z     vdW  Elec       q    Type
REMARK                         _______ _______ _______ _____ _____    ______ ____
ROOT
ATOM      1  C   UNL     1      -3.125   1.788  -2.635  0.00  0.00    +0.199 C 
ENDROOT
BRANCH   1   2
ATOM      2  C   UNL     1      -3.322   2.861  -1.595  0.00  0.00    +0.065 A 
ATOM      3  C   UNL     1      -3.028   4.182  -1.898  0.00  0.00    +0.129 A 
ATOM      4  C   UNL     1      -3.210   5.170  -0.941  0.00  0.00    +0.091 A 
ATOM      5  C   UNL     1      -3.686   4.836   0.318  0.00  0.00    +0.124 A 
ATOM      6  C   UNL     1      -3.980   3.515   0.620  0.00  0.00    +0.091 A 
ATOM      7  C   UNL     1      -3.803   2.528  -0.338  0.00  0.00    +0.129 A 
BRANCH   7   8
ATOM      8  O   UNL     1      -4.096   1.234  -0.043  0.00  0.00    -0.506 OA
ATOM      9  H   UNL     1      -3.353   0.737   0.326  0.00  0.00    +0.292 HD
ENDBRANCH   7   8
BRANCH   5  10
ATOM     10  O   UNL     1      -3.863   5.803   1.256  0.00  0.00    -0.507 OA
ATOM     11  H   UNL     1      -4.743   6.204   1.247  0.00  0.00    +0.292 HD
ENDBRANCH   5  10
BRANCH   3  12
ATOM     12  O   UNL     1      -2.562   4.510  -3.131  0.00  0.00    -0.506 OA
ATOM     13  H   UNL     1      -3.255   4.740  -3.765  0.00  0.00    +0.292 HD
ENDBRANCH   3  12
ENDBRANCH   1   2
BRANCH   1  16
ATOM     14  C   UNL     1      -3.121  -0.593  -2.121  0.00  0.00    +0.224 C 
ATOM     15  O   UNL     1      -4.208  -0.682  -2.651  0.00  0.00    -0.275 OA
ATOM     16  N   UNL     1      -2.521   0.609  -2.011  0.00  0.00    -0.288 N 
ATOM     17  C   UNL     1      -1.265   0.735  -1.267  0.00  0.00    +0.133 C 
BRANCH  14  18
ATOM     18  C   UNL     1      -2.441  -1.827  -1.584  0.00  0.00    +0.105 C 
BRANCH  18  19
ATOM     19  C   UNL     1      -2.940  -2.110  -0.191  0.00  0.00    -0.036 A 
ATOM     20  C   UNL     1      -4.284  -2.354   0.025  0.00  0.00    +0.004 A 
ATOM     21  C   UNL     1      -4.742  -2.613   1.303  0.00  0.00    +0.000 A 
ATOM     22  C   UNL     1      -3.857  -2.629   2.365  0.00  0.00    +0.000 A 
ATOM     23  C   UNL     1      -2.513  -2.386   2.149  0.00  0.00    +0.000 A 
ATOM     24  C   UNL     1      -2.054  -2.131   0.870  0.00  0.00    +0.004 A 
ENDBRANCH  18  19
BRANCH  18  26
ATOM     25  C   UNL     1      -2.106  -2.804  -3.859  0.00  0.00    +0.005 C 
ATOM     26  C   UNL     1      -2.756  -3.018  -2.491  0.00  0.00    +0.014 C 
ENDBRANCH  18  26
ENDBRANCH  14  18
ENDBRANCH   1  16
BRANCH   1  27
ATOM     27  C   UNL     1      -2.216   2.303  -3.721  0.00  0.00    +0.239 C 
ATOM     28  O   UNL     1      -1.016   2.154  -3.629  0.00  0.00    -0.273 OA
ATOM     29  N   UNL     1      -2.736   2.929  -4.796  0.00  0.00    -0.309 N 
ATOM     30  H   UNL     1      -3.688   3.108  -4.838  0.00  0.00    +0.149 HD
BRANCH  29  31
ATOM     31  C   UNL     1      -1.864   3.338  -5.899  0.00  0.00    +0.026 C 
ATOM     32  C   UNL     1      -1.174   2.106  -6.487  0.00  0.00    +0.031 C 
ATOM     33  C   UNL     1      -2.699   4.021  -6.984  0.00  0.00    +0.031 C 
ATOM     34  C   UNL     1      -0.807   4.314  -5.378  0.00  0.00    +0.031 C 
ENDBRANCH  29  31
ENDBRANCH   1  27
TORSDOF 10
