REMARK  Name = ZINC27664407
REMARK  7 active torsions:
REMARK  status: ('A' for Active; 'I' for Inactive)
REMARK    1  A    between atoms: C_1  and  C_2
REMARK    2  A    between atoms: C_5  and  C_8
REMARK    3  A    between atoms: C_8  and  C_10
REMARK    4  A    between atoms: C_12  and  C_24
REMARK    5  A    between atoms: C_18  and  C_19
REMARK    6  A    between atoms: C_18  and  O_23
REMARK    7  A    between atoms: C_27  and  O_30
REMARK                            x       y       z     vdW  Elec       q    Type
REMARK                         _______ _______ _______ _____ _____    ______ ____
ROOT
ATOM      1  C   UNL     1      -0.160   1.826  -0.139  0.00  0.00    +0.144 C 
ATOM      2  C   UNL     1       1.356   2.015  -0.259  0.00  0.00    +0.120 C 
ATOM      3  N   UNL     1       2.011   1.376   0.883  0.00  0.00    -0.292 N 
ATOM      4  C   UNL     1       1.394   1.264   2.069  0.00  0.00    +0.302 C 
ATOM      5  O   UNL     1       1.988   0.734   2.989  0.00  0.00    -0.253 OA
ATOM      6  N   UNL     1       0.148   1.714   2.281  0.00  0.00    -0.264 N 
ATOM      7  C   UNL     1      -0.614   2.373   1.219  0.00  0.00    +0.243 C 
ATOM      8  H   UNL     1       3.030   0.975   0.779  0.00  0.00    +0.151 HD
ATOM      9  H   UNL     1      -0.299   1.580   3.277  0.00  0.00    +0.153 HD
ENDROOT
BRANCH   2  10
ATOM     10  C   UNL     1       1.842   1.384  -1.538  0.00  0.00    -0.026 A 
ATOM     11  C   UNL     1       2.243   0.061  -1.546  0.00  0.00    +0.009 A 
ATOM     12  C   UNL     1       2.684  -0.521  -2.719  0.00  0.00    +0.046 A 
ATOM     13  C   UNL     1       2.734   0.226  -3.887  0.00  0.00    +0.117 A 
ATOM     14  C   UNL     1       2.337   1.555  -3.875  0.00  0.00    +0.046 A 
ATOM     15  C   UNL     1       1.892   2.131  -2.701  0.00  0.00    +0.009 A 
BRANCH  13  16
ATOM     16  O   UNL     1       3.173  -0.343  -5.040  0.00  0.00    -0.507 OA
ATOM     17  H   UNL     1       3.212   0.251  -5.966  0.00  0.00    +0.292 HD
ENDBRANCH  13  16
ENDBRANCH   2  10
BRANCH   7  18
ATOM     18  C   UNL     1      -0.365   3.882   1.272  0.00  0.00    +0.436 C 
ATOM     19  F   UNL     1      -1.089   4.509   0.252  0.00  0.00    -0.166 F 
ATOM     20  F   UNL     1      -0.780   4.380   2.512  0.00  0.00    -0.166 F 
ATOM     21  F   UNL     1       1.000   4.136   1.100  0.00  0.00    -0.166 F 
ENDBRANCH   7  18
BRANCH   1  22
ATOM     22  C   UNL     1      -0.497   0.360  -0.232  0.00  0.00    +0.173 C 
ATOM     23  O   UNL     1       0.254  -0.465   0.242  0.00  0.00    -0.292 OA
BRANCH  22  28
ATOM     24  C   UNL     1      -5.339  -1.317  -2.837  0.00  0.00    +0.044 C 
ATOM     25  C   UNL     1      -4.069  -0.877  -2.155  0.00  0.00    -0.050 A 
ATOM     26  C   UNL     1      -3.215  -1.823  -1.615  0.00  0.00    +0.004 A 
ATOM     27  C   UNL     1      -2.052  -1.429  -0.988  0.00  0.00    +0.011 A 
ATOM     28  C   UNL     1      -1.736  -0.069  -0.899  0.00  0.00    +0.018 A 
ATOM     29  C   UNL     1      -2.607   0.881  -1.443  0.00  0.00    +0.011 A 
ATOM     30  C   UNL     1      -3.764   0.470  -2.071  0.00  0.00    +0.004 A 
ENDBRANCH  22  28
ENDBRANCH   1  22
BRANCH   7  31
ATOM     31  O   UNL     1      -2.007   2.111   1.398  0.00  0.00    -0.364 OA
ATOM     32  H   UNL     1      -2.513   2.432   2.320  0.00  0.00    +0.212 HD
ENDBRANCH   7  31
TORSDOF 6
