REMARK  Name = ZINC39609847
REMARK  10 active torsions:
REMARK  status: ('A' for Active; 'I' for Inactive)
REMARK    1  A    between atoms: C_1  and  O_2
REMARK    2  A    between atoms: O_2  and  C_3
REMARK    3  A    between atoms: C_6  and  C_9
REMARK    4  A    between atoms: C_9  and  N_10
REMARK    5  A    between atoms: C_11  and  C_13
REMARK    6  A    between atoms: C_24  and  C_26
REMARK    7  A    between atoms: C_28  and  O_34
REMARK    8  A    between atoms: C_30  and  O_32
REMARK    9  A    between atoms: O_32  and  C_33
REMARK   10  A    between atoms: O_34  and  C_35
REMARK                            x       y       z     vdW  Elec       q    Type
REMARK                         _______ _______ _______ _____ _____    ______ ____
ROOT
ATOM      1  C   UNL     1      -7.037  -3.674  -3.689  0.00  0.00    +0.100 C 
ATOM      2  C   UNL     1      -5.878  -4.596  -4.130  0.00  0.00    +0.121 C 
ATOM      3  N   UNL     1      -6.397  -5.970  -3.934  0.00  0.00    -0.296 N 
ATOM      4  C   UNL     1      -7.813  -5.895  -4.369  0.00  0.00    +0.115 C 
ATOM      5  C   UNL     1      -8.305  -4.529  -3.851  0.00  0.00    -0.004 C 
ATOM      6  C   UNL     1      -9.004  -4.698  -2.505  0.00  0.00    -0.010 C 
ATOM      7  C   UNL     1     -10.292  -5.503  -2.702  0.00  0.00    -0.082 C 
ATOM      8  N   UNL     1     -11.169  -4.803  -3.647  0.00  0.00    +0.379 N 
ATOM      9  C   UNL     1     -10.527  -4.726  -4.965  0.00  0.00    -0.082 C 
ATOM     10  C   UNL     1      -9.249  -3.889  -4.864  0.00  0.00    -0.010 C 
ATOM     11  C   UNL     1      -5.733  -7.045  -3.466  0.00  0.00    +0.247 C 
ATOM     12  O   UNL     1      -4.606  -6.921  -3.029  0.00  0.00    -0.270 OA
ATOM     13  H   UNL     1     -12.041  -5.303  -3.728  0.00  0.00    -0.086 HD
ATOM     14  H   UNL     1     -11.350  -3.870  -3.308  0.00  0.00    -0.086 HD
ENDROOT
BRANCH  11  15
ATOM     15  C   UNL     1      -6.376  -8.377  -3.485  0.00  0.00    +0.044 A 
ATOM     16  C   UNL     1      -7.444  -8.626  -4.347  0.00  0.00    +0.059 A 
ATOM     17  C   UNL     1      -8.043  -9.875  -4.361  0.00  0.00    +0.124 A 
ATOM     18  C   UNL     1      -7.582 -10.877  -3.520  0.00  0.00    +0.091 A 
ATOM     19  C   UNL     1      -6.520 -10.634  -2.661  0.00  0.00    +0.124 A 
ATOM     20  C   UNL     1      -5.912  -9.389  -2.644  0.00  0.00    +0.059 A 
BRANCH  19  21
ATOM     21  O   UNL     1      -6.073 -11.619  -1.838  0.00  0.00    -0.495 OA
ATOM     22  C   UNL     1      -6.742 -12.879  -1.911  0.00  0.00    +0.277 C 
ENDBRANCH  19  21
BRANCH  17  23
ATOM     23  O   UNL     1      -9.083 -10.119  -5.201  0.00  0.00    -0.495 OA
ATOM     24  C   UNL     1      -9.653 -11.429  -5.164  0.00  0.00    +0.277 C 
ENDBRANCH  17  23
ENDBRANCH  11  15
BRANCH   1  26
ATOM     25  N   UNL     1      -7.439  -2.132  -1.797  0.00  0.00    -0.311 N 
ATOM     26  C   UNL     1      -6.862  -3.263  -2.250  0.00  0.00    +0.218 C 
ATOM     27  O   UNL     1      -6.201  -3.949  -1.499  0.00  0.00    -0.275 OA
ATOM     28  H   UNL     1      -7.968  -1.583  -2.397  0.00  0.00    +0.149 HD
BRANCH  25  29
ATOM     29  C   UNL     1      -7.269  -1.732  -0.398  0.00  0.00    +0.139 C 
BRANCH  29  33
ATOM     30  C   UNL     1      -9.368   1.924   0.304  0.00  0.00    +0.120 A 
ATOM     31  C   UNL     1     -10.010   0.708   0.488  0.00  0.00    +0.046 A 
ATOM     32  C   UNL     1      -9.329  -0.473   0.260  0.00  0.00    +0.009 A 
ATOM     33  C   UNL     1      -8.009  -0.443  -0.150  0.00  0.00    -0.030 A 
ATOM     34  C   UNL     1      -7.367   0.768  -0.333  0.00  0.00    +0.009 A 
ATOM     35  C   UNL     1      -8.045   1.951  -0.113  0.00  0.00    +0.046 A 
BRANCH  30  37
ATOM     36  C   UNL     1     -11.395   2.982   0.955  0.00  0.00    +0.277 C 
ATOM     37  O   UNL     1     -10.035   3.086   0.528  0.00  0.00    -0.495 OA
ENDBRANCH  30  37
ENDBRANCH  29  33
ENDBRANCH  25  29
ENDBRANCH   1  26
TORSDOF 7
