REMARK  Name = ZINC09309970
REMARK  7 active torsions:
REMARK  status: ('A' for Active; 'I' for Inactive)
REMARK    1  A    between atoms: C_4  and  S_7
REMARK    2  A    between atoms: S_7  and  C_10
REMARK    3  A    between atoms: N_21  and  C_24
REMARK    4  A    between atoms: C_22  and  N_23
REMARK    5  A    between atoms: C_24  and  C_25
REMARK    6  A    between atoms: C_25  and  N_26
REMARK    7  A    between atoms: C_27  and  C_29
REMARK                            x       y       z     vdW  Elec       q    Type
REMARK                         _______ _______ _______ _____ _____    ______ ____
ROOT
ATOM      1  C   UNL     1      -5.559   2.417  -0.731  0.00  0.00    +0.160 A 
ATOM      2  C   UNL     1      -5.623   2.449   0.682  0.00  0.00    +0.135 A 
ATOM      3  C   UNL     1      -4.413   1.765   1.156  0.00  0.00    +0.163 A 
ATOM      4  N   UNL     1      -4.195   1.647   2.446  0.00  0.00    -0.226 NA
ATOM      5  C   UNL     1      -5.082   2.140   3.320  0.00  0.00    +0.092 A 
ATOM      6  C   UNL     1      -4.860   2.011   4.704  0.00  0.00    +0.030 A 
ATOM      7  C   UNL     1      -5.765   2.515   5.585  0.00  0.00    +0.002 A 
ATOM      8  C   UNL     1      -6.918   3.160   5.139  0.00  0.00    +0.002 A 
ATOM      9  C   UNL     1      -7.168   3.303   3.809  0.00  0.00    +0.030 A 
ATOM     10  C   UNL     1      -6.254   2.795   2.866  0.00  0.00    +0.090 A 
ATOM     11  N   UNL     1      -6.491   2.932   1.557  0.00  0.00    -0.240 NA
ATOM     12  N   UNL     1      -3.717   1.386   0.027  0.00  0.00    -0.310 N 
ATOM     13  C   UNL     1      -4.418   1.781  -1.085  0.00  0.00    +0.126 A 
ENDROOT
BRANCH   1  14
ATOM     14  S   UNL     1      -6.755   3.090  -1.837  0.00  0.00    +0.030 S 
ATOM     15  O   UNL     1      -7.445   4.104  -1.121  0.00  0.00    -0.164 OA
ATOM     16  O   UNL     1      -6.078   3.347  -3.060  0.00  0.00    -0.164 OA
BRANCH  14  20
ATOM     17  C   UNL     1      -9.773  -0.174  -2.691  0.00  0.00    +0.000 A 
ATOM     18  C   UNL     1      -9.969   0.688  -1.629  0.00  0.00    +0.002 A 
ATOM     19  C   UNL     1      -9.047   1.685  -1.368  0.00  0.00    +0.027 A 
ATOM     20  C   UNL     1      -7.929   1.819  -2.169  0.00  0.00    +0.094 A 
ATOM     21  C   UNL     1      -7.736   0.960  -3.235  0.00  0.00    +0.027 A 
ATOM     22  C   UNL     1      -8.655  -0.040  -3.493  0.00  0.00    +0.002 A 
ENDBRANCH  14  20
ENDBRANCH   1  14
BRANCH  13  23
ATOM     23  N   UNL     1      -4.013   1.558  -2.389  0.00  0.00    -0.343 N 
ATOM     24  H   UNL     1      -3.180   1.093  -2.566  0.00  0.00    +0.144 HD
ATOM     25  H   UNL     1      -4.562   1.868  -3.127  0.00  0.00    +0.144 HD
ENDBRANCH  13  23
BRANCH  12  26
ATOM     26  C   UNL     1      -2.439   0.671   0.017  0.00  0.00    +0.144 C 
BRANCH  26  27
ATOM     27  C   UNL     1      -1.290   1.681   0.017  0.00  0.00    +0.126 C 
BRANCH  27  28
ATOM     28  N   UNL     1      -0.011   0.966   0.007  0.00  0.00    -0.307 N 
ATOM     29  C   UNL     1       1.147   1.655   0.000  0.00  0.00    +0.279 C 
ATOM     30  O   UNL     1       1.130   2.872   0.007  0.00  0.00    -0.267 OA
ATOM     31  H   UNL     1       0.002  -0.004   0.002  0.00  0.00    +0.149 HD
BRANCH  29  32
ATOM     32  C   UNL     1       2.427   0.940  -0.016  0.00  0.00    +0.189 A 
ATOM     33  C   UNL     1       3.666   1.512  -0.025  0.00  0.00    +0.054 A 
ATOM     34  C   UNL     1       4.596   0.461  -0.039  0.00  0.00    +0.042 A 
ATOM     35  C   UNL     1       3.893  -0.693  -0.038  0.00  0.00    +0.196 A 
ATOM     36  O   UNL     1       2.586  -0.400  -0.019  0.00  0.00    -0.458 OA
ENDBRANCH  29  32
ENDBRANCH  27  28
ENDBRANCH  26  27
ENDBRANCH  12  26
TORSDOF 7
