REMARK  Name = ZINC17448367
REMARK  10 active torsions:
REMARK  status: ('A' for Active; 'I' for Inactive)
REMARK    1  A    between atoms: C_1  and  C_2
REMARK    2  A    between atoms: C_10  and  C_11
REMARK    3  A    between atoms: N_13  and  N_14
REMARK    4  A    between atoms: C_15  and  C_17
REMARK    5  A    between atoms: C_17  and  C_19
REMARK    6  A    between atoms: C_17  and  N_22
REMARK    7  A    between atoms: C_19  and  C_20
REMARK    8  A    between atoms: C_19  and  C_21
REMARK    9  A    between atoms: N_22  and  S_23
REMARK   10  A    between atoms: S_23  and  C_26
REMARK                            x       y       z     vdW  Elec       q    Type
REMARK                         _______ _______ _______ _____ _____    ______ ____
ROOT
ATOM      1  N   UNL     1      -0.806   5.088  -3.321  0.00  0.00    -0.233 N 
ATOM      2  C   UNL     1      -0.686   3.826  -2.865  0.00  0.00    +0.248 C 
ATOM      3  O   UNL     1      -0.278   2.952  -3.600  0.00  0.00    -0.273 OA
ATOM      4  H   UNL     1      -1.067   5.800  -2.716  0.00  0.00    +0.173 HD
ENDROOT
BRANCH   1   7
ATOM      5  C   UNL     1      -0.674   6.636  -5.126  0.00  0.00    +0.296 C 
ATOM      6  O   UNL     1      -1.001   7.528  -4.367  0.00  0.00    -0.265 OA
ATOM      7  N   UNL     1      -0.554   5.373  -4.670  0.00  0.00    -0.228 N 
ATOM      8  H   UNL     1      -0.293   4.661  -5.275  0.00  0.00    +0.173 HD
BRANCH   5  18
ATOM      9  C   UNL     1      -0.891   9.450  -6.430  0.00  0.00    +0.048 C 
ATOM     10  C   UNL     1      -0.504   8.163  -7.111  0.00  0.00    +0.008 A 
ATOM     11  C   UNL     1      -0.151   7.984  -8.519  0.00  0.00    +0.024 A 
ATOM     12  C   UNL     1      -0.057   8.844  -9.616  0.00  0.00    +0.012 A 
ATOM     13  C   UNL     1       0.304   8.348 -10.836  0.00  0.00    +0.001 A 
ATOM     14  C   UNL     1       0.577   6.996 -10.993  0.00  0.00    +0.004 A 
ATOM     15  C   UNL     1       0.489   6.131  -9.924  0.00  0.00    +0.047 A 
ATOM     16  C   UNL     1       0.124   6.613  -8.672  0.00  0.00    +0.136 A 
ATOM     17  O   UNL     1      -0.043   6.027  -7.470  0.00  0.00    -0.450 OA
ATOM     18  C   UNL     1      -0.410   6.934  -6.540  0.00  0.00    +0.195 A 
ENDBRANCH   5  18
ENDBRANCH   1   7
BRANCH   2  19
ATOM     19  C   UNL     1      -1.058   3.500  -1.442  0.00  0.00    +0.166 C 
BRANCH  19  20
ATOM     20  C   UNL     1      -2.562   3.227  -1.358  0.00  0.00    +0.010 C 
ATOM     21  C   UNL     1      -3.332   4.497  -1.726  0.00  0.00    +0.009 C 
ATOM     22  C   UNL     1      -2.931   2.106  -2.331  0.00  0.00    +0.009 C 
ENDBRANCH  19  20
BRANCH  19  23
ATOM     23  N   UNL     1      -0.321   2.313  -1.003  0.00  0.00    -0.177 NA
ATOM     24  H   UNL     1      -0.132   1.599  -1.633  0.00  0.00    +0.149 HD
BRANCH  23  25
ATOM     25  S   UNL     1       0.190   2.189   0.567  0.00  0.00    +0.065 S 
ATOM     26  O   UNL     1       0.841   0.931   0.684  0.00  0.00    -0.153 OA
ATOM     27  O   UNL     1       0.838   3.414   0.881  0.00  0.00    -0.153 OA
BRANCH  25  28
ATOM     28  C   UNL     1      -1.250   2.107   1.579  0.00  0.00    +0.142 A 
ATOM     29  C   UNL     1      -1.946   1.017   1.986  0.00  0.00    +0.036 A 
ATOM     30  C   UNL     1      -3.059   1.193   2.787  0.00  0.00    +0.010 A 
ATOM     31  C   UNL     1      -3.420   2.450   3.142  0.00  0.00    +0.047 A 
ATOM     32  S   UNL     1      -2.166   3.436   2.341  0.00  0.00    -0.077 S 
ENDBRANCH  25  28
ENDBRANCH  23  25
ENDBRANCH  19  23
ENDBRANCH   2  19
TORSDOF 7
