REMARK  Name = ZINC25180272
REMARK  8 active torsions:
REMARK  status: ('A' for Active; 'I' for Inactive)
REMARK    1  A    between atoms: C_1  and  C_2
REMARK    2  A    between atoms: C_5  and  C_8
REMARK    3  A    between atoms: N_10  and  C_11
REMARK    4  A    between atoms: C_11  and  C_12
REMARK    5  A    between atoms: N_14  and  C_15
REMARK    6  A    between atoms: C_15  and  C_16
REMARK    7  A    between atoms: C_16  and  C_18
REMARK    8  A    between atoms: C_16  and  C_25
REMARK                            x       y       z     vdW  Elec       q    Type
REMARK                         _______ _______ _______ _____ _____    ______ ____
ROOT
ATOM      1  C   UNL     1       3.676   3.969  -0.011  0.00  0.00    +0.069 C 
ENDROOT
BRANCH   1   2
ATOM      2  C   UNL     1       2.186   4.197   0.004  0.00  0.00    -0.013 A 
ATOM      3  C   UNL     1       1.560   5.385   0.016  0.00  0.00    +0.088 A 
ATOM      4  N   UNL     1       0.205   5.198   0.028  0.00  0.00    -0.360 N 
ATOM      5  H   UNL     1      -0.470   6.067   0.039  0.00  0.00    +0.165 HD
ATOM      6  C   UNL     1      -0.082   3.852   0.024  0.00  0.00    +0.047 A 
ATOM      7  C   UNL     1       1.147   3.166   0.008  0.00  0.00    +0.003 A 
ATOM      8  C   UNL     1       1.165   1.770   0.000  0.00  0.00    +0.010 A 
ATOM      9  C   UNL     1      -0.013   1.076   0.008  0.00  0.00    +0.001 A 
ATOM     10  C   UNL     1      -1.227   1.748   0.017  0.00  0.00    +0.002 A 
ATOM     11  C   UNL     1      -1.268   3.125   0.031  0.00  0.00    +0.026 A 
ENDBRANCH   1   2
BRANCH   1  12
ATOM     12  C   UNL     1       4.291   4.589   1.217  0.00  0.00    -0.020 A 
ATOM     13  C   UNL     1       4.164   5.947   1.444  0.00  0.00    +0.006 A 
ATOM     14  C   UNL     1       4.729   6.515   2.570  0.00  0.00    +0.000 A 
ATOM     15  C   UNL     1       5.421   5.727   3.470  0.00  0.00    +0.001 A 
ATOM     16  C   UNL     1       5.549   4.369   3.244  0.00  0.00    +0.020 A 
ATOM     17  C   UNL     1       4.979   3.799   2.120  0.00  0.00    +0.045 A 
ATOM     18 CL   UNL     1       5.133   2.092   1.839  0.00  0.00    -0.083 Cl
ENDBRANCH   1  12
BRANCH   1  19
ATOM     19  C   UNL     1       4.277   4.611  -1.263  0.00  0.00    +0.117 C 
BRANCH  19  22
ATOM     20  C   UNL     1       6.446   4.750  -2.366  0.00  0.00    +0.230 C 
ATOM     21  O   UNL     1       5.931   5.433  -3.226  0.00  0.00    -0.274 OA
ATOM     22  N   UNL     1       5.704   4.288  -1.339  0.00  0.00    -0.313 N 
ATOM     23  H   UNL     1       6.171   3.669  -0.559  0.00  0.00    +0.149 HD
BRANCH  20  24
ATOM     24  C   UNL     1       7.913   4.418  -2.445  0.00  0.00    +0.200 C 
BRANCH  24  27
ATOM     25  C   UNL     1       9.798   4.869  -3.922  0.00  0.00    +0.244 C 
ATOM     26  O   UNL     1      10.500   4.212  -3.178  0.00  0.00    -0.270 OA
ATOM     27  N   UNL     1       8.490   5.033  -3.643  0.00  0.00    -0.303 N 
ATOM     28  H   UNL     1       7.854   5.628  -4.316  0.00  0.00    +0.150 HD
BRANCH  25  33
ATOM     29  C   UNL     1      12.061   7.283  -8.630  0.00  0.00    +0.044 C 
ATOM     30  C   UNL     1      11.469   6.651  -7.397  0.00  0.00    -0.050 A 
ATOM     31  C   UNL     1      12.271   5.904  -6.553  0.00  0.00    +0.004 A 
ATOM     32  C   UNL     1      11.734   5.322  -5.422  0.00  0.00    +0.013 A 
ATOM     33  C   UNL     1      10.380   5.490  -5.131  0.00  0.00    +0.037 A 
ATOM     34  C   UNL     1       9.575   6.240  -5.990  0.00  0.00    +0.013 A 
ATOM     35  C   UNL     1      10.125   6.820  -7.114  0.00  0.00    +0.004 A 
ENDBRANCH  25  33
ENDBRANCH  24  27
ENDBRANCH  20  24
ENDBRANCH  19  22
ENDBRANCH   1  19
TORSDOF 7
