REMARK  Name = ZINC63375677
REMARK  12 active torsions:
REMARK  status: ('A' for Active; 'I' for Inactive)
REMARK    1  A    between atoms: C_1  and  C_2
REMARK    2  A    between atoms: C_2  and  C_3
REMARK    3  A    between atoms: C_2  and  C_4
REMARK    4  A    between atoms: C_4  and  N_5
REMARK    5  A    between atoms: C_6  and  O_36
REMARK    6  A    between atoms: C_8  and  C_19
REMARK    7  A    between atoms: N_12  and  C_15
REMARK    8  A    between atoms: C_15  and  C_16
REMARK    9  A    between atoms: C_16  and  C_17
REMARK   10  A    between atoms: C_16  and  C_18
REMARK   11  A    between atoms: C_26  and  O_31
REMARK   12  A    between atoms: O_31  and  C_32
REMARK                            x       y       z     vdW  Elec       q    Type
REMARK                         _______ _______ _______ _____ _____    ______ ____
ROOT
ATOM      1  N   UNL     1      -1.946   0.041  -0.998  0.00  0.00    -0.258 N 
ATOM      2  C   UNL     1      -2.461   1.396  -1.201  0.00  0.00    +0.219 C 
ATOM      3  C   UNL     1      -2.173   1.843  -2.636  0.00  0.00    +0.142 C 
ATOM      4  C   UNL     1      -2.560   0.738  -3.587  0.00  0.00    +0.232 C 
ATOM      5  O   UNL     1      -3.010   1.007  -4.680  0.00  0.00    -0.275 OA
ATOM      6  N   UNL     1      -2.405  -0.548  -3.221  0.00  0.00    -0.225 N 
ATOM      7  C   UNL     1      -1.988  -0.869  -1.985  0.00  0.00    +0.313 C 
ATOM      8  O   UNL     1      -1.644  -2.011  -1.754  0.00  0.00    -0.252 OA
ENDROOT
BRANCH   3   9
ATOM      9  C   UNL     1      -0.681   2.149  -2.787  0.00  0.00    +0.096 C 
ATOM     10  C   UNL     1      -0.408   2.710  -4.184  0.00  0.00    +0.124 C 
ATOM     11  C   UNL     1       1.107   2.825  -4.309  0.00  0.00    -0.036 C 
ATOM     12  C   UNL     1       1.361   4.078  -4.656  0.00  0.00    +0.003 A 
ATOM     13  C   UNL     1       2.612   4.769  -5.003  0.00  0.00    +0.055 A 
ATOM     14  C   UNL     1       2.515   6.094  -5.304  0.00  0.00    +0.121 A 
ATOM     15  C   UNL     1       1.311   6.813  -5.299  0.00  0.00    +0.047 A 
ATOM     16  C   UNL     1       0.101   6.275  -5.000  0.00  0.00    +0.029 A 
ATOM     17  C   UNL     1       0.076   4.845  -4.663  0.00  0.00    +0.043 A 
ATOM     18  N   UNL     1      -0.939   4.061  -4.362  0.00  0.00    -0.376 N 
ATOM     19  C   UNL     1       2.018   1.671  -3.969  0.00  0.00    +0.048 C 
ATOM     20  C   UNL     1       1.546   1.138  -2.604  0.00  0.00    +0.085 C 
ATOM     21  N   UNL     1       0.098   0.912  -2.623  0.00  0.00    -0.310 NA
ATOM     22  H   UNL     1      -0.200   0.402  -1.805  0.00  0.00    +0.122 HD
ATOM     23  H   UNL     1      -1.869   4.322  -4.269  0.00  0.00    +0.160 HD
BRANCH  14  24
ATOM     24  O   UNL     1       3.655   6.760  -5.628  0.00  0.00    -0.495 OA
ATOM     25  C   UNL     1       3.529   8.149  -5.939  0.00  0.00    +0.277 C 
ENDBRANCH  14  24
ENDBRANCH   3   9
BRANCH   2  26
ATOM     26  O   UNL     1      -3.871   1.409  -0.973  0.00  0.00    -0.373 OA
ATOM     27  H   UNL     1      -4.128   1.136  -0.081  0.00  0.00    +0.212 HD
ENDBRANCH   2  26
BRANCH   1  28
ATOM     28  C   UNL     1      -1.371  -0.327   0.298  0.00  0.00    +0.115 C 
BRANCH  28  30
ATOM     29  C   UNL     1      -3.193  -1.989   0.697  0.00  0.00    +0.009 C 
ATOM     30  C   UNL     1      -2.491  -0.748   1.252  0.00  0.00    +0.000 C 
ATOM     31  C   UNL     1      -1.897  -1.070   2.625  0.00  0.00    +0.009 C 
ENDBRANCH  28  30
ENDBRANCH   1  28
BRANCH   6  32
ATOM     32  C   UNL     1      -2.692  -1.612  -4.186  0.00  0.00    +0.121 C 
BRANCH  32  33
ATOM     33  C   UNL     1      -1.421  -1.946  -4.970  0.00  0.00    +0.001 C 
ATOM     34  C   UNL     1      -0.375  -2.532  -4.020  0.00  0.00    +0.009 C 
ATOM     35  C   UNL     1      -1.748  -2.967  -6.061  0.00  0.00    +0.009 C 
ENDBRANCH  32  33
ENDBRANCH   6  32
TORSDOF 7
