REMARK  Name = ZINC35743752
REMARK  14 active torsions:
REMARK  status: ('A' for Active; 'I' for Inactive)
REMARK    1  A    between atoms: C_1  and  C_2
REMARK    2  A    between atoms: C_2  and  C_4
REMARK    3  A    between atoms: C_2  and  N_17
REMARK    4  A    between atoms: N_14  and  C_15
REMARK    5  A    between atoms: N_17  and  C_18
REMARK    6  A    between atoms: C_18  and  C_19
REMARK    7  A    between atoms: C_19  and  C_20
REMARK    8  A    between atoms: C_20  and  C_21
REMARK    9  A    between atoms: C_21  and  C_22
REMARK   10  A    between atoms: C_22  and  C_23
REMARK   11  A    between atoms: C_23  and  N_24
REMARK   12  A    between atoms: C_25  and  C_27
REMARK   13  A    between atoms: C_31  and  O_33
REMARK   14  A    between atoms: O_33  and  C_34
REMARK                            x       y       z     vdW  Elec       q    Type
REMARK                         _______ _______ _______ _____ _____    ______ ____
ROOT
ATOM      1  N   UNL     1      -0.610  -1.281   0.390  0.00  0.00    -0.288 N 
ATOM      2  C   UNL     1      -1.450  -1.220   1.442  0.00  0.00    +0.247 C 
ATOM      3  O   UNL     1      -2.294  -2.081   1.596  0.00  0.00    -0.270 OA
ENDROOT
BRANCH   2   4
ATOM      4  C   UNL     1      -1.346  -0.105   2.408  0.00  0.00    +0.040 A 
ATOM      5  C   UNL     1      -0.402   0.904   2.213  0.00  0.00    +0.013 A 
ATOM      6  C   UNL     1      -0.307   1.943   3.117  0.00  0.00    +0.004 A 
ATOM      7  C   UNL     1      -1.145   1.987   4.216  0.00  0.00    +0.045 A 
ATOM      8  C   UNL     1      -2.086   0.987   4.418  0.00  0.00    +0.121 A 
ATOM      9  C   UNL     1      -2.194  -0.057   3.514  0.00  0.00    +0.058 A 
BRANCH   8  10
ATOM     10  O   UNL     1      -2.906   1.035   5.501  0.00  0.00    -0.495 OA
ATOM     11  C   UNL     1      -2.744   2.143   6.389  0.00  0.00    +0.277 C 
ENDBRANCH   8  10
ENDBRANCH   2   4
BRANCH   1  13
ATOM     12  C   UNL     1       0.383   0.890  -0.145  0.00  0.00    +0.036 C 
ATOM     13  C   UNL     1       0.639  -0.515   0.405  0.00  0.00    +0.139 C 
BRANCH  13  14
ATOM     14  C   UNL     1       1.150  -0.415   1.819  0.00  0.00    +0.133 A 
ATOM     15  N   UNL     1       0.472  -0.995   2.761  0.00  0.00    -0.232 NA
ATOM     16  C   UNL     1       0.871  -0.948   4.057  0.00  0.00    +0.080 A 
ATOM     17  C   UNL     1       0.144  -1.572   5.072  0.00  0.00    +0.048 A 
ATOM     18  C   UNL     1       0.591  -1.496   6.374  0.00  0.00    +0.043 A 
ATOM     19  C   UNL     1       1.756  -0.805   6.686  0.00  0.00    +0.021 A 
ATOM     20  C   UNL     1       2.485  -0.186   5.709  0.00  0.00    +0.017 A 
ATOM     21  C   UNL     1       2.055  -0.249   4.385  0.00  0.00    +0.065 A 
ATOM     22  C   UNL     1       2.799   0.397   3.294  0.00  0.00    +0.262 A 
ATOM     23  O   UNL     1       3.826   1.014   3.507  0.00  0.00    -0.267 OA
ATOM     24  N   UNL     1       2.300   0.274   2.041  0.00  0.00    -0.298 N 
ATOM     25  C   UNL     1       3.005   0.893   0.916  0.00  0.00    +0.154 C 
ATOM     26 CL   UNL     1      -0.312  -2.271   7.638  0.00  0.00    -0.083 Cl
ENDBRANCH  13  14
ENDBRANCH   1  13
BRANCH   1  27
ATOM     27  C   UNL     1      -0.945  -2.113  -0.769  0.00  0.00    +0.109 C 
BRANCH  27  28
ATOM     28  C   UNL     1      -0.383  -3.521  -0.565  0.00  0.00    +0.019 C 
BRANCH  28  29
ATOM     29  C   UNL     1      -0.733  -4.390  -1.774  0.00  0.00    +0.001 C 
BRANCH  29  30
ATOM     30  C   UNL     1      -0.170  -5.798  -1.571  0.00  0.00    -0.002 C 
BRANCH  30  31
ATOM     31  C   UNL     1      -0.520  -6.667  -2.780  0.00  0.00    -0.020 C 
BRANCH  31  32
ATOM     32  C   UNL     1       0.042  -8.075  -2.576  0.00  0.00    -0.086 C 
BRANCH  32  33
ATOM     33  N   UNL     1      -0.294  -8.910  -3.738  0.00  0.00    +0.378 N 
ATOM     34  H   UNL     1      -1.297  -8.959  -3.837  0.00  0.00    -0.090 HD
ATOM     35  H   UNL     1       0.107  -8.505  -4.570  0.00  0.00    -0.090 HD
ATOM     36  H   UNL     1       0.077  -9.838  -3.603  0.00  0.00    -0.090 HD
ENDBRANCH  32  33
ENDBRANCH  31  32
ENDBRANCH  30  31
ENDBRANCH  29  30
ENDBRANCH  28  29
ENDBRANCH  27  28
ENDBRANCH   1  27
TORSDOF 11
