REMARK  Name = ZINC45713398
REMARK  5 active torsions:
REMARK  status: ('A' for Active; 'I' for Inactive)
REMARK    1  A    between atoms: C_1  and  C_2
REMARK    2  A    between atoms: C_5  and  C_7
REMARK    3  A    between atoms: C_9  and  C_12
REMARK    4  A    between atoms: C_12  and  C_13
REMARK    5  A    between atoms: N_15  and  C_16
REMARK                            x       y       z     vdW  Elec       q    Type
REMARK                         _______ _______ _______ _____ _____    ______ ____
ROOT
ATOM      1  C   UNL     1       5.160  -4.348  -0.029  0.00  0.00    +0.152 C 
ENDROOT
BRANCH   1   4
ATOM      2  C   UNL     1       1.665  -3.195  -0.018  0.00  0.00    +0.144 A 
ATOM      3  N   UNL     1       2.993  -3.218  -0.021  0.00  0.00    -0.240 NA
ATOM      4  C   UNL     1       3.653  -4.352  -0.025  0.00  0.00    +0.058 A 
ATOM      5  C   UNL     1       2.976  -5.530  -0.025  0.00  0.00    +0.071 A 
ATOM      6  S   UNL     1       1.287  -4.942  -0.013  0.00  0.00    -0.072 S 
BRANCH   2  11
ATOM      7  C   UNL     1      -0.001   1.534  -0.013  0.00  0.00    +0.086 C 
ATOM      8  C   UNL     1       0.015   0.027  -0.011  0.00  0.00    +0.103 A 
ATOM      9  C   UNL     1      -1.073  -0.770  -0.002  0.00  0.00    +0.045 A 
ATOM     10  C   UNL     1      -0.611  -2.100  -0.004  0.00  0.00    +0.052 A 
ATOM     11  C   UNL     1       0.751  -2.042  -0.013  0.00  0.00    +0.160 A 
ATOM     12  O   UNL     1       1.114  -0.744  -0.022  0.00  0.00    -0.458 OA
ENDBRANCH   2  11
ENDBRANCH   1   4
BRANCH   1  13
ATOM     13  C   UNL     1       5.657  -3.529  -1.193  0.00  0.00    +0.223 C 
ATOM     14  O   UNL     1       4.865  -3.001  -1.944  0.00  0.00    -0.275 OA
ATOM     15  N   UNL     1       6.981  -3.384  -1.398  0.00  0.00    -0.284 N 
ATOM     16  H   UNL     1       7.613  -3.751  -0.761  0.00  0.00    +0.155 HD
BRANCH  15  17
ATOM     17  C   UNL     1       7.443  -2.703  -2.530  0.00  0.00    +0.053 A 
ATOM     18  C   UNL     1       6.730  -1.622  -3.031  0.00  0.00    +0.044 A 
ATOM     19  C   UNL     1       7.189  -0.951  -4.149  0.00  0.00    +0.043 A 
ATOM     20  C   UNL     1       8.359  -1.356  -4.769  0.00  0.00    +0.021 A 
ATOM     21  C   UNL     1       9.071  -2.432  -4.272  0.00  0.00    +0.023 A 
ATOM     22  C   UNL     1       8.620  -3.103  -3.151  0.00  0.00    +0.062 A 
ATOM     23 CL   UNL     1       9.518  -4.450  -2.525  0.00  0.00    -0.082 Cl
ATOM     24 CL   UNL     1       6.298   0.400  -4.777  0.00  0.00    -0.083 Cl
ENDBRANCH  15  17
ENDBRANCH   1  13
TORSDOF 4
