REMARK  Name = ZINC65675968
REMARK  7 active torsions:
REMARK  status: ('A' for Active; 'I' for Inactive)
REMARK    1  A    between atoms: C_4  and  O_7
REMARK    2  A    between atoms: O_7  and  C_8
REMARK    3  A    between atoms: C_8  and  C_9
REMARK    4  A    between atoms: C_15  and  C_17
REMARK    5  A    between atoms: C_17  and  C_18
REMARK    6  A    between atoms: C_18  and  C_19
REMARK    7  A    between atoms: C_18  and  N_24
REMARK                            x       y       z     vdW  Elec       q    Type
REMARK                         _______ _______ _______ _____ _____    ______ ____
ROOT
ATOM      1  C   UNL     1       4.954  -2.624  -0.061  0.00  0.00    +0.030 C 
ATOM      2  C   UNL     1       5.666  -2.251   1.240  0.00  0.00    +0.026 C 
ATOM      3  C   UNL     1       7.101  -2.787   1.204  0.00  0.00    +0.108 C 
ATOM      4  N   UNL     1       7.059  -4.230   0.932  0.00  0.00    -0.301 N 
ATOM      5  C   UNL     1       6.322  -4.706  -0.247  0.00  0.00    +0.108 C 
ATOM      6  C   UNL     1       4.896  -4.147  -0.195  0.00  0.00    +0.026 C 
ATOM      7  C   UNL     1       7.686  -5.102   1.747  0.00  0.00    +0.218 C 
ATOM      8  O   UNL     1       8.291  -4.697   2.717  0.00  0.00    -0.276 OA
ENDROOT
BRANCH   1   9
ATOM      9  C   UNL     1       3.531  -2.060  -0.044  0.00  0.00    +0.232 C 
BRANCH   9  10
ATOM     10  O   UNL     1       3.586  -0.632  -0.037  0.00  0.00    -0.492 OA
BRANCH  10  14
ATOM     11  C   UNL     1      -0.017   1.378   0.010  0.00  0.00    +0.000 A 
ATOM     12  C   UNL     1       1.170   2.088   0.002  0.00  0.00    +0.004 A 
ATOM     13  C   UNL     1       2.377   1.417  -0.013  0.00  0.00    +0.045 A 
ATOM     14  C   UNL     1       2.399   0.030  -0.021  0.00  0.00    +0.121 A 
ATOM     15  C   UNL     1       1.207  -0.680  -0.013  0.00  0.00    +0.045 A 
ATOM     16  C   UNL     1       0.002  -0.004   0.002  0.00  0.00    +0.004 A 
ENDBRANCH  10  14
ENDBRANCH   9  10
ENDBRANCH   1   9
BRANCH   7  17
ATOM     17  C   UNL     1       7.634  -6.579   1.454  0.00  0.00    +0.123 C 
BRANCH  17  18
ATOM     18  C   UNL     1       8.419  -7.339   2.524  0.00  0.00    +0.120 C 
BRANCH  18  19
ATOM     19  N   UNL     1       9.836  -6.977   2.440  0.00  0.00    -0.292 N 
ATOM     20  C   UNL     1      10.627  -7.091   3.526  0.00  0.00    +0.298 C 
ATOM     21  O   UNL     1      10.164  -7.494   4.575  0.00  0.00    -0.253 OA
ATOM     22  N   UNL     1      11.930  -6.758   3.448  0.00  0.00    -0.313 N 
ATOM     23  H   UNL     1      10.205  -6.655   1.603  0.00  0.00    +0.151 HD
ATOM     24  H   UNL     1      12.300  -6.436   2.611  0.00  0.00    +0.146 HD
ATOM     25  H   UNL     1      12.499  -6.839   4.229  0.00  0.00    +0.146 HD
ENDBRANCH  18  19
BRANCH  18  26
ATOM     26  C   UNL     1       8.266  -8.822   2.302  0.00  0.00    +0.010 A 
ATOM     27  C   UNL     1       7.443  -9.698   2.929  0.00  0.00    +0.013 A 
ATOM     28  C   UNL     1       7.472 -11.029   2.555  0.00  0.00    +0.008 A 
ATOM     29  C   UNL     1       8.322 -11.418   1.574  0.00  0.00    +0.045 A 
ATOM     30  S   UNL     1       9.114  -9.878   1.139  0.00  0.00    -0.100 S 
ENDBRANCH  18  26
ENDBRANCH  17  18
ENDBRANCH   7  17
TORSDOF 7
