REMARK  Name = ZINC12417444
REMARK  10 active torsions:
REMARK  status: ('A' for Active; 'I' for Inactive)
REMARK    1  A    between atoms: C_1  and  O_2
REMARK    2  A    between atoms: O_2  and  C_3
REMARK    3  A    between atoms: C_3  and  C_5
REMARK    4  A    between atoms: C_6  and  C_28
REMARK    5  A    between atoms: N_7  and  C_22
REMARK    6  A    between atoms: C_8  and  N_21
REMARK    7  A    between atoms: C_9  and  C_19
REMARK    8  A    between atoms: C_10  and  C_12
REMARK    9  A    between atoms: C_28  and  O_30
REMARK   10  A    between atoms: O_30  and  C_31
REMARK                            x       y       z     vdW  Elec       q    Type
REMARK                         _______ _______ _______ _____ _____    ______ ____
ROOT
ATOM      1  C   UNL     1      -3.581   2.842  -0.442  0.00  0.00    +0.078 C 
ATOM      2  C   UNL     1      -3.441   1.498  -0.383  0.00  0.00    +0.135 C 
ATOM      3  N   UNL     1      -2.263   0.930   0.054  0.00  0.00    -0.250 N 
ATOM      4  C   UNL     1      -1.109   1.680   0.092  0.00  0.00    +0.107 C 
ATOM      5  C   UNL     1      -1.164   3.037   0.056  0.00  0.00    +0.077 C 
ATOM      6  C   UNL     1      -2.473   3.767  -0.029  0.00  0.00    +0.101 C 
ENDROOT
BRANCH   6   7
ATOM      7  C   UNL     1      -2.794   4.352   1.322  0.00  0.00    -0.034 A 
ATOM      8  C   UNL     1      -2.970   3.519   2.412  0.00  0.00    +0.006 A 
ATOM      9  C   UNL     1      -3.259   4.056   3.652  0.00  0.00    +0.020 A 
ATOM     10  C   UNL     1      -3.385   5.426   3.801  0.00  0.00    +0.041 A 
ATOM     11  C   UNL     1      -3.214   6.258   2.709  0.00  0.00    +0.020 A 
ATOM     12  C   UNL     1      -2.919   5.721   1.470  0.00  0.00    +0.006 A 
ATOM     13 CL   UNL     1      -3.756   6.099   5.357  0.00  0.00    -0.084 Cl
ENDBRANCH   6   7
BRANCH   3  14
ATOM     14  C   UNL     1      -2.240  -0.408   0.459  0.00  0.00    +0.040 A 
ATOM     15  C   UNL     1      -2.191  -0.726   1.810  0.00  0.00    +0.024 A 
ATOM     16  C   UNL     1      -2.173  -2.049   2.206  0.00  0.00    +0.002 A 
ATOM     17  C   UNL     1      -2.195  -3.057   1.259  0.00  0.00    +0.000 A 
ATOM     18  C   UNL     1      -2.239  -2.744  -0.087  0.00  0.00    +0.002 A 
ATOM     19  C   UNL     1      -2.262  -1.423  -0.490  0.00  0.00    +0.024 A 
ENDBRANCH   3  14
BRANCH   4  20
ATOM     20  N   UNL     1       0.110   1.050   0.174  0.00  0.00    -0.345 N 
ATOM     21  H   UNL     1       0.152   0.086   0.277  0.00  0.00    +0.144 HD
ATOM     22  H   UNL     1       0.928   1.569   0.124  0.00  0.00    +0.144 HD
ENDBRANCH   4  20
BRANCH   1  23
ATOM     23  C   UNL     1      -4.843   3.408  -0.921  0.00  0.00    +0.338 C 
ATOM     24  O   UNL     1      -5.784   2.677  -1.163  0.00  0.00    -0.245 OA
BRANCH  23  26
ATOM     25  C   UNL     1      -6.221   5.224  -1.565  0.00  0.00    +0.280 C 
ATOM     26  O   UNL     1      -4.961   4.740  -1.095  0.00  0.00    -0.465 OA
ENDBRANCH  23  26
ENDBRANCH   1  23
BRANCH   5  27
ATOM     27  C   UNL     1       0.055   3.787   0.095  0.00  0.00    +0.099 C 
ATOM     28  N   UNL     1       1.022   4.383   0.125  0.00  0.00    -0.191 NA
ENDBRANCH   5  27
BRANCH   2  29
ATOM     29  C   UNL     1      -4.567   0.626  -0.793  0.00  0.00    +0.354 C 
ATOM     30  O   UNL     1      -5.280   0.120   0.049  0.00  0.00    -0.244 OA
BRANCH  29  31
ATOM     31  O   UNL     1      -4.798   0.395  -2.100  0.00  0.00    -0.464 OA
ATOM     32  C   UNL     1      -5.981  -0.378  -2.433  0.00  0.00    +0.280 C 
ENDBRANCH  29  31
ENDBRANCH   2  29
TORSDOF 8
