REMARK  Name = ZINC40952852
REMARK  9 active torsions:
REMARK  status: ('A' for Active; 'I' for Inactive)
REMARK    1  A    between atoms: C_1  and  C_2
REMARK    2  A    between atoms: C_2  and  N_3
REMARK    3  A    between atoms: C_5  and  O_24
REMARK    4  A    between atoms: C_8  and  C_18
REMARK    5  A    between atoms: C_11  and  C_12
REMARK    6  A    between atoms: O_24  and  C_25
REMARK    7  A    between atoms: C_25  and  C_26
REMARK    8  A    between atoms: C_26  and  C_27
REMARK    9  A    between atoms: C_27  and  N_28
REMARK                            x       y       z     vdW  Elec       q    Type
REMARK                         _______ _______ _______ _____ _____    ______ ____
ROOT
ATOM      1  N   UNL     1       0.711  -0.489   1.189  0.00  0.00    -0.320 N 
ATOM      2  C   UNL     1       2.060  -0.739   1.291  0.00  0.00    +0.115 A 
ATOM      3  C   UNL     1       3.150  -0.644   0.425  0.00  0.00    +0.164 A 
ATOM      4  C   UNL     1       4.406  -0.993   0.889  0.00  0.00    +0.159 A 
ATOM      5  N   UNL     1       4.590  -1.410   2.129  0.00  0.00    -0.249 NA
ATOM      6  C   UNL     1       3.593  -1.519   2.994  0.00  0.00    +0.099 A 
ATOM      7  C   UNL     1       2.280  -1.186   2.607  0.00  0.00    +0.119 A 
ATOM      8  N   UNL     1       1.089  -1.189   3.232  0.00  0.00    -0.223 NA
ATOM      9  C   UNL     1       0.156  -0.775   2.408  0.00  0.00    +0.167 A 
ENDROOT
BRANCH   9  10
ATOM     10  C   UNL     1      -1.278  -0.640   2.744  0.00  0.00    +0.190 A 
ATOM     11  C   UNL     1      -1.889  -0.935   4.047  0.00  0.00    +0.191 A 
ATOM     12  N   UNL     1      -3.169  -0.699   3.963  0.00  0.00    -0.033 NA
ATOM     13  O   UNL     1      -3.445  -0.253   2.647  0.00  0.00    -0.240 OA
ATOM     14  N   UNL     1      -2.221  -0.232   1.934  0.00  0.00    -0.044 NA
ATOM     15  N   UNL     1      -1.218  -1.390   5.175  0.00  0.00    -0.339 N 
ATOM     16  H   UNL     1      -0.260  -1.538   5.143  0.00  0.00    +0.144 HD
ATOM     17  H   UNL     1      -1.707  -1.558   5.995  0.00  0.00    +0.144 HD
ENDBRANCH   9  10
BRANCH   6  18
ATOM     18  C   UNL     1       3.859  -1.994   4.372  0.00  0.00    +0.002 A 
ATOM     19  C   UNL     1       3.126  -1.481   5.442  0.00  0.00    +0.010 A 
ATOM     20  C   UNL     1       3.378  -1.927   6.723  0.00  0.00    +0.001 A 
ATOM     21  C   UNL     1       4.356  -2.880   6.947  0.00  0.00    +0.000 A 
ATOM     22  C   UNL     1       5.087  -3.392   5.890  0.00  0.00    +0.001 A 
ATOM     23  C   UNL     1       4.840  -2.958   4.603  0.00  0.00    +0.010 A 
ENDBRANCH   6  18
BRANCH   1  25
ATOM     24  C   UNL     1      -0.019   1.526   0.010  0.00  0.00    +0.027 C 
ATOM     25  C   UNL     1       0.002  -0.004   0.002  0.00  0.00    +0.120 C 
ENDBRANCH   1  25
BRANCH   3  26
ATOM     26  O   UNL     1       2.980  -0.218  -0.854  0.00  0.00    -0.488 OA
BRANCH  26  27
ATOM     27  C   UNL     1       4.147  -0.149  -1.676  0.00  0.00    +0.227 C 
BRANCH  27  28
ATOM     28  C   UNL     1       3.762   0.348  -3.070  0.00  0.00    +0.021 C 
BRANCH  28  29
ATOM     29  C   UNL     1       5.012   0.421  -3.949  0.00  0.00    -0.083 C 
BRANCH  29  30
ATOM     30  N   UNL     1       4.641   0.899  -5.288  0.00  0.00    +0.378 N 
ATOM     31  H   UNL     1       5.465   0.947  -5.868  0.00  0.00    -0.090 HD
ATOM     32  H   UNL     1       3.977   0.262  -5.701  0.00  0.00    -0.090 HD
ATOM     33  H   UNL     1       4.227   1.816  -5.215  0.00  0.00    -0.090 HD
ENDBRANCH  29  30
ENDBRANCH  28  29
ENDBRANCH  27  28
ENDBRANCH  26  27
ENDBRANCH   3  26
TORSDOF 8
