REMARK  Name = ZINC34829642
REMARK  7 active torsions:
REMARK  status: ('A' for Active; 'I' for Inactive)
REMARK    1  A    between atoms: C_1  and  C_2
REMARK    2  A    between atoms: C_9  and  C_11
REMARK    3  A    between atoms: C_18  and  C_20
REMARK    4  A    between atoms: C_20  and  N_21
REMARK    5  A    between atoms: C_29  and  C_31
REMARK    6  A    between atoms: C_34  and  O_37
REMARK    7  A    between atoms: O_37  and  C_38
REMARK                            x       y       z     vdW  Elec       q    Type
REMARK                         _______ _______ _______ _____ _____    ______ ____
ROOT
ATOM      1  C   UNL     1      -4.141  -0.967   2.502  0.00  0.00    +0.020 C 
ENDROOT
BRANCH   1  11
ATOM      2  C   UNL     1      -0.544   1.169   0.245  0.00  0.00    +0.029 C 
ATOM      3  C   UNL     1      -0.155  -0.292   0.009  0.00  0.00    +0.091 C 
ATOM      4  C   UNL     1      -1.420  -1.135  -0.198  0.00  0.00    +0.130 C 
ATOM      5  N   UNL     1      -2.132  -1.234   1.083  0.00  0.00    -0.300 N 
ATOM      6  C   UNL     1      -1.412  -1.748   2.256  0.00  0.00    +0.126 C 
ATOM      7  C   UNL     1      -0.147  -0.906   2.463  0.00  0.00    +0.127 C 
ATOM      8  N   UNL     1       0.569  -0.805   1.180  0.00  0.00    -0.292 N 
ATOM      9  C   UNL     1       1.860  -1.179   1.079  0.00  0.00    +0.247 C 
ATOM     10  O   UNL     1       2.405  -1.194  -0.008  0.00  0.00    -0.270 OA
ATOM     11  C   UNL     1      -3.423  -0.860   1.181  0.00  0.00    +0.199 C 
ATOM     12  O   UNL     1      -4.007  -0.436   0.206  0.00  0.00    -0.278 OA
BRANCH   9  13
ATOM     13  C   UNL     1       2.613  -1.570   2.289  0.00  0.00    +0.037 A 
ATOM     14  C   UNL     1       3.477  -2.666   2.253  0.00  0.00    +0.014 A 
ATOM     15  C   UNL     1       4.178  -3.026   3.385  0.00  0.00    +0.021 A 
ATOM     16  C   UNL     1       4.025  -2.302   4.556  0.00  0.00    +0.041 A 
ATOM     17  C   UNL     1       3.169  -1.214   4.598  0.00  0.00    +0.021 A 
ATOM     18  C   UNL     1       2.468  -0.841   3.471  0.00  0.00    +0.014 A 
ATOM     19 CL   UNL     1       4.909  -2.762   5.978  0.00  0.00    -0.084 Cl
ENDBRANCH   9  13
ENDBRANCH   1  11
BRANCH   1  20
ATOM     20  N   UNL     1      -5.525  -0.501   2.346  0.00  0.00    +0.393 N 
ATOM     21  C   UNL     1      -6.232  -1.388   1.412  0.00  0.00    -0.072 C 
ATOM     22  C   UNL     1      -7.554  -0.720   0.997  0.00  0.00    +0.024 C 
ATOM     23  C   UNL     1      -8.219  -0.226   2.240  0.00  0.00    -0.010 A 
ATOM     24  C   UNL     1      -7.647  -0.108   3.471  0.00  0.00    -0.047 A 
ATOM     25  C   UNL     1      -8.463   0.373   4.492  0.00  0.00    +0.010 A 
ATOM     26  C   UNL     1      -9.751   0.698   4.233  0.00  0.00    +0.045 A 
ATOM     27  S   UNL     1      -9.880   0.331   2.488  0.00  0.00    -0.101 S 
ATOM     28  C   UNL     1      -6.183  -0.495   3.658  0.00  0.00    -0.005 C 
ATOM     29  H   UNL     1      -5.520   0.436   1.973  0.00  0.00    -0.080 HD
BRANCH  28  30
ATOM     30  C   UNL     1      -5.507   0.507   4.558  0.00  0.00    -0.056 A 
ATOM     31  C   UNL     1      -5.103   1.728   4.051  0.00  0.00    +0.006 A 
ATOM     32  C   UNL     1      -4.482   2.648   4.873  0.00  0.00    +0.046 A 
ATOM     33  C   UNL     1      -4.265   2.346   6.210  0.00  0.00    +0.120 A 
ATOM     34  C   UNL     1      -4.671   1.121   6.717  0.00  0.00    +0.046 A 
ATOM     35  C   UNL     1      -5.296   0.206   5.891  0.00  0.00    +0.006 A 
BRANCH  33  36
ATOM     36  O   UNL     1      -3.654   3.249   7.021  0.00  0.00    -0.495 OA
ATOM     37  C   UNL     1      -3.463   2.871   8.386  0.00  0.00    +0.277 C 
ENDBRANCH  33  36
ENDBRANCH  28  30
ENDBRANCH   1  20
TORSDOF 5
