REMARK  Name = ZINC28955898
REMARK  6 active torsions:
REMARK  status: ('A' for Active; 'I' for Inactive)
REMARK    1  A    between atoms: C_3  and  S_12
REMARK    2  A    between atoms: S_12  and  N_15
REMARK    3  A    between atoms: N_15  and  C_16
REMARK    4  A    between atoms: C_16  and  C_17
REMARK    5  A    between atoms: C_23  and  C_25
REMARK    6  A    between atoms: N_28  and  C_31
REMARK                            x       y       z     vdW  Elec       q    Type
REMARK                         _______ _______ _______ _____ _____    ______ ____
ROOT
ATOM      1  C   UNL     1       1.578  -5.584   3.665  0.00  0.00    +0.023 C 
ATOM      2  C   UNL     1       1.380  -7.086   3.332  0.00  0.00    +0.025 C 
ATOM      3  C   UNL     1       0.855  -7.668   4.662  0.00  0.00    +0.108 C 
ATOM      4  N   UNL     1       0.278  -6.554   5.429  0.00  0.00    -0.301 N 
ATOM      5  C   UNL     1       0.396  -5.320   4.631  0.00  0.00    +0.112 C 
ATOM      6  C   UNL     1      -0.269  -6.646   6.657  0.00  0.00    +0.219 C 
ATOM      7  O   UNL     1      -0.633  -5.644   7.235  0.00  0.00    -0.275 OA
ENDROOT
BRANCH   6   8
ATOM      8  C   UNL     1      -0.428  -7.994   7.313  0.00  0.00    +0.078 C 
ATOM      9  C   UNL     1      -1.708  -8.007   8.152  0.00  0.00    +0.031 C 
ATOM     10  C   UNL     1      -1.832  -9.356   8.863  0.00  0.00    +0.106 C 
ATOM     11  N   UNL     1      -0.660  -9.568   9.722  0.00  0.00    -0.330 N 
ATOM     12  C   UNL     1       0.577  -9.606   8.932  0.00  0.00    +0.106 C 
ATOM     13  C   UNL     1       0.773  -8.264   8.223  0.00  0.00    +0.031 C 
BRANCH  11  14
ATOM     14  C   UNL     1      -0.802 -10.724  10.483  0.00  0.00    +0.032 A 
ATOM     15  C   UNL     1       0.156 -11.737  10.432  0.00  0.00    +0.040 A 
ATOM     16  C   UNL     1      -0.019 -12.864  11.206  0.00  0.00    +0.084 A 
ATOM     17  N   UNL     1      -1.081 -12.996  11.979  0.00  0.00    -0.367 N 
ATOM     18  C   UNL     1      -2.011 -12.063  12.052  0.00  0.00    +0.084 A 
ATOM     19  C   UNL     1      -1.908 -10.903  11.313  0.00  0.00    +0.040 A 
ATOM     20  H   UNL     1      -1.208 -13.904  12.588  0.00  0.00    +0.165 HD
ENDBRANCH  11  14
ENDBRANCH   6   8
BRANCH   1  21
ATOM     21  C   UNL     1       1.460  -4.723   2.406  0.00  0.00    +0.111 C 
BRANCH  21  22
ATOM     22  N   UNL     1       2.614  -4.967   1.537  0.00  0.00    -0.190 NA
ATOM     23  H   UNL     1       3.560  -5.328   1.968  0.00  0.00    +0.148 HD
BRANCH  22  24
ATOM     24  S   UNL     1       2.582  -4.470  -0.042  0.00  0.00    +0.058 S 
ATOM     25  O   UNL     1       1.351  -4.924  -0.586  0.00  0.00    -0.153 OA
ATOM     26  O   UNL     1       3.839  -4.822  -0.604  0.00  0.00    -0.153 OA
BRANCH  24  29
ATOM     27  C   UNL     1       3.672  -0.613  -0.031  0.00  0.00    +0.010 A 
ATOM     28  C   UNL     1       3.693  -1.974  -0.038  0.00  0.00    +0.029 A 
ATOM     29  C   UNL     1       2.509  -2.709  -0.033  0.00  0.00    +0.106 A 
ATOM     30  C   UNL     1       1.298  -2.088  -0.021  0.00  0.00    +0.037 A 
ATOM     31  C   UNL     1       1.236  -0.685  -0.014  0.00  0.00    -0.016 A 
ATOM     32  C   UNL     1       2.440   0.064  -0.019  0.00  0.00    -0.016 A 
ATOM     33  C   UNL     1       2.379   1.468  -0.012  0.00  0.00    +0.028 A 
ATOM     34  C   UNL     1       1.167   2.089  -0.001  0.00  0.00    +0.042 A 
ATOM     35  C   UNL     1      -0.018   1.352   0.004  0.00  0.00    +0.020 A 
ATOM     36  C   UNL     1       0.004  -0.009  -0.003  0.00  0.00    +0.010 A 
ATOM     37 CL   UNL     1       1.095   3.823   0.007  0.00  0.00    -0.084 Cl
ENDBRANCH  24  29
ENDBRANCH  22  24
ENDBRANCH  21  22
ENDBRANCH   1  21
TORSDOF 6
