REMARK  Name = ZINC17918536
REMARK  7 active torsions:
REMARK  status: ('A' for Active; 'I' for Inactive)
REMARK    1  A    between atoms: C_1  and  C_2
REMARK    2  A    between atoms: C_2  and  N_3
REMARK    3  A    between atoms: C_4  and  C_6
REMARK    4  A    between atoms: N_11  and  C_24
REMARK    5  A    between atoms: N_13  and  C_14
REMARK    6  A    between atoms: C_17  and  O_21
REMARK    7  A    between atoms: C_24  and  C_25
REMARK                            x       y       z     vdW  Elec       q    Type
REMARK                         _______ _______ _______ _____ _____    ______ ____
ROOT
ATOM      1  C   UNL     1       1.498  -2.786   3.109  0.00  0.00    +0.148 C 
ATOM      2  C   UNL     1       1.360  -4.299   3.293  0.00  0.00    +0.120 C 
ATOM      3  C   UNL     1       2.608  -4.926   3.813  0.00  0.00    +0.223 C 
ATOM      4  O   UNL     1       2.456  -5.939   4.460  0.00  0.00    -0.275 OA
ATOM      5  N   UNL     1       3.860  -4.523   3.661  0.00  0.00    -0.251 N 
ATOM      6  C   UNL     1       4.226  -3.322   3.080  0.00  0.00    +0.164 C 
ATOM      7  N   UNL     1       5.433  -2.829   3.232  0.00  0.00    -0.226 NA
ATOM      8  S   UNL     1       2.999  -2.475   2.122  0.00  0.00    -0.077 S 
ENDROOT
BRANCH   7   9
ATOM      9  C   UNL     1       6.128  -3.063   4.390  0.00  0.00    +0.069 A 
ATOM     10  C   UNL     1       7.436  -3.547   4.335  0.00  0.00    +0.051 A 
ATOM     11  C   UNL     1       8.132  -3.782   5.504  0.00  0.00    +0.086 A 
ATOM     12  C   UNL     1       7.534  -3.536   6.732  0.00  0.00    +0.153 A 
ATOM     13  C   UNL     1       6.233  -3.054   6.791  0.00  0.00    +0.086 A 
ATOM     14  C   UNL     1       5.531  -2.812   5.627  0.00  0.00    +0.051 A 
ATOM     15 CL   UNL     1       5.490  -2.750   8.330  0.00  0.00    -0.080 Cl
ATOM     16 CL   UNL     1       9.759  -4.385   5.437  0.00  0.00    -0.080 Cl
BRANCH  12  17
ATOM     17  O   UNL     1       8.223  -3.769   7.882  0.00  0.00    -0.504 OA
ATOM     18  H   UNL     1       8.729  -3.008   8.198  0.00  0.00    +0.292 HD
ENDBRANCH  12  17
ENDBRANCH   7   9
BRANCH   1  20
ATOM     19  N   UNL     1      -0.120  -0.984   2.606  0.00  0.00    -0.315 N 
ATOM     20  C   UNL     1       0.291  -2.249   2.384  0.00  0.00    +0.227 C 
ATOM     21  O   UNL     1      -0.311  -2.954   1.602  0.00  0.00    -0.275 OA
ATOM     22  H   UNL     1       0.361  -0.420   3.231  0.00  0.00    +0.149 HD
BRANCH  19  24
ATOM     23  C   UNL     1      -1.543   0.986   2.330  0.00  0.00    +0.024 C 
ATOM     24  C   UNL     1      -1.294  -0.462   1.901  0.00  0.00    +0.101 C 
ENDBRANCH  19  24
ENDBRANCH   1  20
BRANCH   5  25
ATOM     25  C   UNL     1       4.927  -5.405   4.140  0.00  0.00    +0.112 C 
ATOM     26  C   UNL     1       5.232  -6.461   3.075  0.00  0.00    +0.025 C 
ENDBRANCH   5  25
TORSDOF 5
