REMARK  Name = ZINC24983234
REMARK  8 active torsions:
REMARK  status: ('A' for Active; 'I' for Inactive)
REMARK    1  A    between atoms: C_1  and  C_2
REMARK    2  A    between atoms: C_7  and  N_11
REMARK    3  A    between atoms: C_12  and  C_14
REMARK    4  A    between atoms: C_14  and  C_16
REMARK    5  A    between atoms: C_14  and  N_23
REMARK    6  A    between atoms: C_16  and  C_17
REMARK    7  A    between atoms: N_23  and  S_24
REMARK    8  A    between atoms: S_24  and  C_27
REMARK                            x       y       z     vdW  Elec       q    Type
REMARK                         _______ _______ _______ _____ _____    ______ ____
ROOT
ATOM      1  C   UNL     1       0.048   0.962   0.100  0.00  0.00    +0.167 C 
ENDROOT
BRANCH   1   3
ATOM      2  N   UNL     1       2.226   1.299  -1.023  0.00  0.00    -0.284 N 
ATOM      3  C   UNL     1       1.466   1.471   0.077  0.00  0.00    +0.236 C 
ATOM      4  O   UNL     1       1.923   2.036   1.048  0.00  0.00    -0.274 OA
ATOM      5  H   UNL     1       1.842   0.712  -1.870  0.00  0.00    +0.155 HD
BRANCH   2  12
ATOM      6  C   UNL     1       9.295   2.318  -2.601  0.00  0.00    +0.109 C 
ATOM      7  C   UNL     1       7.860   2.355  -2.141  0.00  0.00    +0.194 A 
ATOM      8  N   UNL     1       7.333   3.306  -1.431  0.00  0.00    -0.214 NA
ATOM      9  C   UNL     1       6.024   3.008  -1.202  0.00  0.00    +0.110 A 
ATOM     10  C   UNL     1       4.994   3.652  -0.514  0.00  0.00    +0.033 A 
ATOM     11  C   UNL     1       3.751   3.088  -0.465  0.00  0.00    +0.025 A 
ATOM     12  C   UNL     1       3.503   1.867  -1.087  0.00  0.00    +0.037 A 
ATOM     13  C   UNL     1       4.514   1.214  -1.774  0.00  0.00    +0.071 A 
ATOM     14  C   UNL     1       5.778   1.780  -1.835  0.00  0.00    +0.157 A 
ATOM     15  O   UNL     1       6.945   1.409  -2.406  0.00  0.00    -0.440 OA
ENDBRANCH   2  12
ENDBRANCH   1   3
BRANCH   1  16
ATOM     16  N   UNL     1      -0.561   1.270   1.397  0.00  0.00    -0.178 NA
ATOM     17  H   UNL     1      -0.183   2.112   1.995  0.00  0.00    +0.149 HD
BRANCH  16  18
ATOM     18  S   UNL     1      -1.641   0.215   2.076  0.00  0.00    +0.059 S 
ATOM     19  O   UNL     1      -2.026   0.775   3.324  0.00  0.00    -0.153 OA
ATOM     20  O   UNL     1      -2.584  -0.109   1.064  0.00  0.00    -0.153 OA
BRANCH  18  21
ATOM     21  C   UNL     1      -0.762  -1.268   2.439  0.00  0.00    +0.106 A 
ATOM     22  C   UNL     1      -0.697  -2.279   1.482  0.00  0.00    +0.029 A 
ATOM     23  C   UNL     1      -0.022  -3.435   1.729  0.00  0.00    +0.010 A 
ATOM     24  C   UNL     1       0.610  -3.620   2.970  0.00  0.00    -0.018 A 
ATOM     25  C   UNL     1       1.311  -4.802   3.264  0.00  0.00    +0.008 A 
ATOM     26  C   UNL     1       1.910  -4.946   4.477  0.00  0.00    +0.001 A 
ATOM     27  C   UNL     1       1.840  -3.938   5.436  0.00  0.00    +0.001 A 
ATOM     28  C   UNL     1       1.170  -2.779   5.187  0.00  0.00    +0.008 A 
ATOM     29  C   UNL     1       0.539  -2.594   3.946  0.00  0.00    -0.016 A 
ATOM     30  C   UNL     1      -0.163  -1.412   3.652  0.00  0.00    +0.037 A 
ENDBRANCH  18  21
ENDBRANCH  16  18
ENDBRANCH   1  16
BRANCH   1  31
ATOM     31  C   UNL     1      -0.755   1.638  -1.014  0.00  0.00    +0.065 C 
BRANCH  31  32
ATOM     32  C   UNL     1      -2.138   1.040  -1.070  0.00  0.00    -0.045 A 
ATOM     33  C   UNL     1      -2.386  -0.053  -1.878  0.00  0.00    +0.004 A 
ATOM     34  C   UNL     1      -3.653  -0.604  -1.926  0.00  0.00    +0.000 A 
ATOM     35  C   UNL     1      -4.674  -0.055  -1.173  0.00  0.00    +0.000 A 
ATOM     36  C   UNL     1      -4.427   1.042  -0.369  0.00  0.00    +0.000 A 
ATOM     37  C   UNL     1      -3.159   1.589  -0.317  0.00  0.00    +0.004 A 
ENDBRANCH  31  32
ENDBRANCH   1  31
TORSDOF 7
