REMARK  Name = ZINC15948165
REMARK  7 active torsions:
REMARK  status: ('A' for Active; 'I' for Inactive)
REMARK    1  A    between atoms: C_1  and  C_2
REMARK    2  A    between atoms: C_3  and  C_32
REMARK    3  A    between atoms: C_9  and  C_12
REMARK    4  A    between atoms: N_14  and  N_15
REMARK    5  A    between atoms: C_16  and  C_18
REMARK    6  A    between atoms: C_21  and  S_24
REMARK    7  A    between atoms: S_24  and  N_27
REMARK                            x       y       z     vdW  Elec       q    Type
REMARK                         _______ _______ _______ _____ _____    ______ ____
ROOT
ATOM      1  N   UNL     1      -2.918   4.280   5.434  0.00  0.00    -0.230 N 
ATOM      2  C   UNL     1      -3.119   3.065   4.886  0.00  0.00    +0.260 C 
ATOM      3  O   UNL     1      -3.927   2.303   5.379  0.00  0.00    -0.269 OA
ATOM      4  H   UNL     1      -2.273   4.889   5.040  0.00  0.00    +0.173 HD
ENDROOT
BRANCH   2   5
ATOM      5  C   UNL     1      -2.356   2.660   3.687  0.00  0.00    +0.038 A 
ATOM      6  C   UNL     1      -2.561   1.402   3.117  0.00  0.00    +0.015 A 
ATOM      7  C   UNL     1      -1.846   1.030   1.998  0.00  0.00    +0.029 A 
ATOM      8  C   UNL     1      -0.927   1.900   1.439  0.00  0.00    +0.106 A 
ATOM      9  C   UNL     1      -0.715   3.146   2.002  0.00  0.00    +0.029 A 
ATOM     10  C   UNL     1      -1.427   3.533   3.118  0.00  0.00    +0.015 A 
BRANCH   8  11
ATOM     11  S   UNL     1      -0.017   1.417   0.010  0.00  0.00    +0.061 S 
ATOM     12  O   UNL     1       0.002  -0.004   0.002  0.00  0.00    -0.153 OA
ATOM     13  O   UNL     1       1.172   2.195   0.003  0.00  0.00    -0.153 OA
BRANCH  11  14
ATOM     14  N   UNL     1      -0.897   1.885  -1.312  0.00  0.00    -0.177 NA
ATOM     15  C   UNL     1      -1.909   1.071  -2.000  0.00  0.00    +0.109 C 
ATOM     16  C   UNL     1      -2.444   1.906  -3.183  0.00  0.00    +0.018 C 
ATOM     17  C   UNL     1      -1.295   2.918  -3.438  0.00  0.00    +0.018 C 
ATOM     18  C   UNL     1      -0.792   3.186  -1.998  0.00  0.00    +0.109 C 
ENDBRANCH  11  14
ENDBRANCH   8  11
ENDBRANCH   2   5
BRANCH   1  21
ATOM     19  C   UNL     1      -3.441   5.880   7.117  0.00  0.00    +0.260 C 
ATOM     20  O   UNL     1      -2.632   6.643   6.625  0.00  0.00    -0.269 OA
ATOM     21  N   UNL     1      -3.641   4.665   6.570  0.00  0.00    -0.230 N 
ATOM     22  H   UNL     1      -4.286   4.056   6.963  0.00  0.00    +0.173 HD
BRANCH  19  31
ATOM     23  C   UNL     1      -3.939  10.364  10.657  0.00  0.00    +0.046 C 
ATOM     24  C   UNL     1      -4.760   9.114  10.845  0.00  0.00    -0.022 A 
ATOM     25  C   UNL     1      -5.666   8.891  11.809  0.00  0.00    +0.017 A 
ATOM     26  N   UNL     1      -6.210   7.644  11.660  0.00  0.00    -0.358 N 
ATOM     27  H   UNL     1      -6.888   7.259  12.238  0.00  0.00    +0.166 HD
ATOM     28  C   UNL     1      -5.655   7.017  10.570  0.00  0.00    +0.047 A 
ATOM     29  C   UNL     1      -4.721   7.910  10.009  0.00  0.00    +0.004 A 
ATOM     30  C   UNL     1      -3.995   7.540   8.880  0.00  0.00    +0.023 A 
ATOM     31  C   UNL     1      -4.203   6.285   8.316  0.00  0.00    +0.039 A 
ATOM     32  C   UNL     1      -5.139   5.408   8.880  0.00  0.00    +0.015 A 
ATOM     33  C   UNL     1      -5.848   5.766   9.988  0.00  0.00    +0.027 A 
ATOM     34  C   UNL     1      -6.032   9.869  12.895  0.00  0.00    +0.063 C 
ENDBRANCH  19  31
ENDBRANCH   1  21
TORSDOF 5
