REMARK  Name = ZINC57719930
REMARK  7 active torsions:
REMARK  status: ('A' for Active; 'I' for Inactive)
REMARK    1  A    between atoms: C_1  and  O_2
REMARK    2  A    between atoms: O_2  and  C_3
REMARK    3  A    between atoms: N_14  and  C_16
REMARK    4  A    between atoms: C_16  and  C_17
REMARK    5  A    between atoms: C_17  and  C_18
REMARK    6  A    between atoms: C_18  and  C_19
REMARK    7  A    between atoms: C_19  and  N_20
REMARK                            x       y       z     vdW  Elec       q    Type
REMARK                         _______ _______ _______ _____ _____    ______ ____
ROOT
ATOM      1  C   UNL     1      -1.201  -0.638   0.010  0.00  0.00    +0.122 A 
ATOM      2  C   UNL     1      -2.373   0.105   0.019  0.00  0.00    +0.048 A 
ATOM      3  C   UNL     1      -3.599  -0.535   0.039  0.00  0.00    +0.031 A 
ATOM      4  C   UNL     1      -3.654  -1.915   0.050  0.00  0.00    +0.067 A 
ATOM      5  C   UNL     1      -2.476  -2.671   0.016  0.00  0.00    +0.055 A 
ATOM      6  C   UNL     1      -1.251  -2.023   0.003  0.00  0.00    +0.070 A 
ATOM      7  N   UNL     1      -2.540  -4.068  -0.044  0.00  0.00    -0.333 N 
ATOM      8  C   UNL     1      -3.680  -4.785   0.540  0.00  0.00    +0.058 C 
ATOM      9  C   UNL     1      -3.828  -6.150  -0.133  0.00  0.00    +0.028 C 
ATOM     10  C   UNL     1      -2.592  -7.000   0.177  0.00  0.00    -0.016 C 
ATOM     11  C   UNL     1      -2.426  -7.111   1.695  0.00  0.00    -0.079 C 
ATOM     12  N   UNL     1      -2.252  -5.772   2.270  0.00  0.00    +0.381 N 
ATOM     13  C   UNL     1      -3.461  -4.971   2.041  0.00  0.00    -0.047 C 
ATOM     14  C   UNL     1      -4.924  -3.966   0.303  0.00  0.00    +0.045 A 
ATOM     15  N   UNL     1      -4.876  -2.606   0.090  0.00  0.00    -0.316 N 
ATOM     16  C   UNL     1      -6.141  -2.147  -0.065  0.00  0.00    +0.091 A 
ATOM     17  C   UNL     1      -6.985  -3.200   0.028  0.00  0.00    +0.020 A 
ATOM     18  C   UNL     1      -6.204  -4.353   0.257  0.00  0.00    +0.025 A 
ATOM     19  H   UNL     1      -1.827  -4.565  -0.475  0.00  0.00    +0.147 HD
ATOM     20  H   UNL     1      -1.462  -5.320   1.834  0.00  0.00    -0.082 HD
ENDROOT
BRANCH   1  22
ATOM     21  C   UNL     1      -0.017   1.425   0.010  0.00  0.00    +0.277 C 
ATOM     22  O   UNL     1       0.002  -0.004   0.002  0.00  0.00    -0.495 OA
ENDBRANCH   1  22
BRANCH  12  23
ATOM     23  C   UNL     1      -2.011  -5.889   3.714  0.00  0.00    -0.079 C 
BRANCH  23  24
ATOM     24  C   UNL     1      -0.681  -6.608   3.953  0.00  0.00    -0.017 C 
BRANCH  24  25
ATOM     25  C   UNL     1      -0.430  -6.729   5.457  0.00  0.00    +0.018 C 
BRANCH  25  26
ATOM     26  C   UNL     1       0.899  -7.449   5.695  0.00  0.00    +0.117 C 
BRANCH  26  27
ATOM     27  N   UNL     1       1.140  -7.565   7.136  0.00  0.00    -0.234 N 
ATOM     28  C   UNL     1       1.790  -6.648   7.875  0.00  0.00    +0.254 C 
ATOM     29  O   UNL     1       2.262  -5.609   7.461  0.00  0.00    -0.270 OA
ATOM     30  C   UNL     1       1.831  -7.117   9.276  0.00  0.00    +0.049 A 
ATOM     31  C   UNL     1       2.354  -6.605  10.453  0.00  0.00    +0.014 A 
ATOM     32  C   UNL     1       2.218  -7.318  11.633  0.00  0.00    +0.001 A 
ATOM     33  C   UNL     1       1.564  -8.536  11.644  0.00  0.00    +0.001 A 
ATOM     34  C   UNL     1       1.036  -9.061  10.475  0.00  0.00    +0.014 A 
ATOM     35  C   UNL     1       1.165  -8.359   9.287  0.00  0.00    +0.049 A 
ATOM     36  C   UNL     1       0.736  -8.600   7.894  0.00  0.00    +0.254 C 
ATOM     37  O   UNL     1       0.123  -9.571   7.499  0.00  0.00    -0.270 OA
ENDBRANCH  26  27
ENDBRANCH  25  26
ENDBRANCH  24  25
ENDBRANCH  23  24
ENDBRANCH  12  23
TORSDOF 6
