REMARK  Name = ZINC41025985
REMARK  5 active torsions:
REMARK  status: ('A' for Active; 'I' for Inactive)
REMARK    1  A    between atoms: C_4  and  N_7
REMARK    2  A    between atoms: C_12  and  N_23
REMARK    3  A    between atoms: N_16  and  C_17
REMARK    4  A    between atoms: N_23  and  C_24
REMARK    5  A    between atoms: C_25  and  C_33
REMARK                            x       y       z     vdW  Elec       q    Type
REMARK                         _______ _______ _______ _____ _____    ______ ____
ROOT
ATOM      1  N   UNL     1       3.623  -0.651  -0.037  0.00  0.00    -0.214 N 
ATOM      2  C   UNL     1       3.885  -1.839   0.585  0.00  0.00    +0.170 A 
ATOM      3  C   UNL     1       5.230  -2.150   0.303  0.00  0.00    +0.079 A 
ATOM      4  C   UNL     1       5.737  -1.105  -0.500  0.00  0.00    +0.148 A 
ATOM      5  N   UNL     1       4.786  -0.236  -0.697  0.00  0.00    -0.172 NA
ATOM      6  C   UNL     1       5.767  -3.341   0.830  0.00  0.00    +0.139 A 
ATOM      7  N   UNL     1       4.982  -4.117   1.568  0.00  0.00    -0.199 NA
ATOM      8  C   UNL     1       3.720  -3.785   1.809  0.00  0.00    +0.219 A 
ATOM      9  N   UNL     1       3.174  -2.678   1.335  0.00  0.00    -0.195 NA
ATOM     10  N   UNL     1       2.945  -4.630   2.585  0.00  0.00    -0.311 N 
ATOM     11  H   UNL     1       2.020  -4.405   2.772  0.00  0.00    +0.149 HD
ENDROOT
BRANCH   1  15
ATOM     12  C   UNL     1      -0.017   1.379   0.010  0.00  0.00    +0.000 A 
ATOM     13  C   UNL     1       1.170   2.089   0.002  0.00  0.00    +0.002 A 
ATOM     14  C   UNL     1       2.377   1.419  -0.013  0.00  0.00    +0.028 A 
ATOM     15  C   UNL     1       2.400   0.031  -0.021  0.00  0.00    +0.068 A 
ATOM     16  C   UNL     1       1.206  -0.680  -0.013  0.00  0.00    +0.028 A 
ATOM     17  C   UNL     1       0.002  -0.004   0.002  0.00  0.00    +0.002 A 
ENDBRANCH   1  15
BRANCH  10  18
ATOM     18  C   UNL     1       3.522  -5.865   3.123  0.00  0.00    +0.073 C 
ATOM     19  C   UNL     1       3.421  -6.974   2.075  0.00  0.00    +0.022 C 
ATOM     20  C   UNL     1       4.024  -8.263   2.637  0.00  0.00    +0.002 C 
ATOM     21  C   UNL     1       3.257  -8.679   3.894  0.00  0.00    +0.000 C 
ATOM     22  C   UNL     1       3.358  -7.569   4.943  0.00  0.00    +0.002 C 
ATOM     23  C   UNL     1       2.755  -6.280   4.380  0.00  0.00    +0.022 C 
ENDBRANCH  10  18
BRANCH   6  24
ATOM     24  N   UNL     1       7.081  -3.694   0.584  0.00  0.00    -0.293 N 
ATOM     25  H   UNL     1       7.644  -3.119   0.042  0.00  0.00    +0.154 HD
BRANCH  24  26
ATOM     26  C   UNL     1       7.592  -4.868   1.109  0.00  0.00    +0.083 A 
ATOM     27  C   UNL     1       8.876  -5.376   0.973  0.00  0.00    +0.068 A 
ATOM     28  C   UNL     1       9.163  -6.640   1.630  0.00  0.00    -0.023 A 
ATOM     29  C   UNL     1       8.115  -7.164   2.301  0.00  0.00    -0.004 A 
ATOM     30  S   UNL     1       6.803  -6.002   2.065  0.00  0.00    -0.077 S 
ATOM     31  C   UNL     1       8.093  -8.447   3.073  0.00  0.00    +0.043 C 
ATOM     32  C   UNL     1       9.328  -9.270   2.678  0.00  0.00    +0.005 C 
ATOM     33  C   UNL     1      10.563  -8.365   2.730  0.00  0.00    +0.005 C 
ATOM     34  C   UNL     1      10.511  -7.345   1.591  0.00  0.00    +0.037 C 
BRANCH  27  35
ATOM     35  C   UNL     1       9.899  -4.667   0.199  0.00  0.00    +0.244 C 
ATOM     36  O   UNL     1      10.621  -3.855   0.746  0.00  0.00    -0.270 OA
ATOM     37  N   UNL     1      10.040  -4.916  -1.118  0.00  0.00    -0.325 N 
ATOM     38  H   UNL     1       9.464  -5.564  -1.554  0.00  0.00    +0.145 HD
ATOM     39  H   UNL     1      10.717  -4.447  -1.630  0.00  0.00    +0.145 HD
ENDBRANCH  27  35
ENDBRANCH  24  26
ENDBRANCH   6  24
TORSDOF 5
