REMARK  Name = ZINC63506272
REMARK  11 active torsions:
REMARK  status: ('A' for Active; 'I' for Inactive)
REMARK    1  A    between atoms: C_1  and  C_2
REMARK    2  A    between atoms: C_6  and  C_35
REMARK    3  A    between atoms: N_8  and  C_10
REMARK    4  A    between atoms: C_10  and  C_11
REMARK    5  A    between atoms: N_13  and  C_14
REMARK    6  A    between atoms: C_14  and  C_15
REMARK    7  A    between atoms: C_15  and  C_16
REMARK    8  A    between atoms: C_19  and  O_27
REMARK    9  A    between atoms: C_24  and  C_26
REMARK   10  A    between atoms: O_27  and  C_28
REMARK   11  A    between atoms: C_28  and  C_29
REMARK                            x       y       z     vdW  Elec       q    Type
REMARK                         _______ _______ _______ _____ _____    ______ ____
ROOT
ATOM      1  C   UNL     1       3.995  -2.962   7.529  0.00  0.00    -0.037 C 
ATOM      2  C   UNL     1       5.180  -2.712   6.929  0.00  0.00    +0.003 A 
ATOM      3  C   UNL     1       5.544  -2.353   5.554  0.00  0.00    +0.055 A 
ATOM      4  C   UNL     1       6.847  -2.159   5.238  0.00  0.00    +0.122 A 
ATOM      5  C   UNL     1       7.877  -2.291   6.185  0.00  0.00    +0.048 A 
ATOM      6  C   UNL     1       7.642  -2.619   7.474  0.00  0.00    +0.029 A 
ATOM      7  C   UNL     1       6.267  -2.850   7.927  0.00  0.00    +0.043 A 
ATOM      8  N   UNL     1       5.773  -3.173   9.096  0.00  0.00    -0.378 N 
ATOM      9  C   UNL     1       4.314  -3.271   8.976  0.00  0.00    +0.103 C 
ATOM     10  C   UNL     1       3.852  -4.686   9.327  0.00  0.00    +0.035 C 
ATOM     11  H   UNL     1       6.285  -3.320   9.906  0.00  0.00    +0.160 HD
ENDROOT
BRANCH   1  12
ATOM     12  C   UNL     1       2.631  -2.934   6.888  0.00  0.00    +0.052 C 
BRANCH  12  13
ATOM     13  C   UNL     1       2.771  -2.577   5.407  0.00  0.00    +0.108 C 
BRANCH  13  16
ATOM     14  C   UNL     1       1.323  -2.256   3.475  0.00  0.00    +0.229 C 
ATOM     15  O   UNL     1       2.309  -2.015   2.812  0.00  0.00    -0.274 OA
ATOM     16  N   UNL     1       1.446  -2.550   4.784  0.00  0.00    -0.314 N 
ATOM     17  H   UNL     1       0.657  -2.743   5.314  0.00  0.00    +0.149 HD
BRANCH  14  18
ATOM     18  C   UNL     1      -0.041  -2.228   2.834  0.00  0.00    +0.198 C 
BRANCH  18  23
ATOM     19  C   UNL     1      -0.019   1.526   0.010  0.00  0.00    +0.027 C 
ATOM     20  C   UNL     1       0.002  -0.004   0.002  0.00  0.00    +0.086 C 
ATOM     21  C   UNL     1      -1.437  -0.576   0.083  0.00  0.00    +0.117 C 
ATOM     22  C   UNL     1      -1.210  -1.964   0.723  0.00  0.00    +0.089 C 
ATOM     23  N   UNL     1       0.093  -1.885   1.411  0.00  0.00    -0.230 NA
ATOM     24  N   UNL     1       0.626  -0.532   1.244  0.00  0.00    -0.249 NA
ATOM     25  C   UNL     1      -2.322  -2.269   1.728  0.00  0.00    +0.027 C 
ATOM     26 CL   UNL     1      -2.478   0.456   1.133  0.00  0.00    -0.118 Cl
ATOM     27  H   UNL     1       0.396   0.047   2.038  0.00  0.00    +0.141 HD
ENDBRANCH  18  23
ENDBRANCH  14  18
ENDBRANCH  13  16
ENDBRANCH  12  13
ENDBRANCH   1  12
BRANCH   4  28
ATOM     28  O   UNL     1       7.169  -1.827   3.959  0.00  0.00    -0.487 OA
BRANCH  28  29
ATOM     29  C   UNL     1       8.555  -1.633   3.669  0.00  0.00    +0.264 C 
BRANCH  29  30
ATOM     30  C   UNL     1       8.718  -1.273   2.215  0.00  0.00    -0.010 A 
ATOM     31  C   UNL     1       8.892  -2.269   1.272  0.00  0.00    +0.007 A 
ATOM     32  C   UNL     1       9.042  -1.940  -0.062  0.00  0.00    +0.000 A 
ATOM     33  C   UNL     1       9.016  -0.614  -0.453  0.00  0.00    +0.000 A 
ATOM     34  C   UNL     1       8.841   0.382   0.489  0.00  0.00    +0.000 A 
ATOM     35  C   UNL     1       8.687   0.052   1.823  0.00  0.00    +0.007 A 
ENDBRANCH  29  30
ENDBRANCH  28  29
ENDBRANCH   4  28
TORSDOF 8
