REMARK  Name = ZINC09391505
REMARK  12 active torsions:
REMARK  status: ('A' for Active; 'I' for Inactive)
REMARK    1  A    between atoms: C_1  and  C_2
REMARK    2  A    between atoms: N_5  and  S_8
REMARK    3  A    between atoms: S_8  and  C_11
REMARK    4  A    between atoms: C_14  and  C_17
REMARK    5  A    between atoms: N_19  and  C_20
REMARK    6  A    between atoms: C_21  and  C_32
REMARK    7  A    between atoms: C_25  and  C_30
REMARK    8  A    between atoms: C_25  and  C_31
REMARK    9  A    between atoms: C_26  and  C_28
REMARK   10  A    between atoms: C_26  and  C_29
REMARK   11  A    between atoms: C_32  and  O_34
REMARK   12  A    between atoms: O_34  and  C_35
REMARK                            x       y       z     vdW  Elec       q    Type
REMARK                         _______ _______ _______ _____ _____    ______ ____
ROOT
ATOM      1  C   UNL     1       4.691   0.889  -0.046  0.00  0.00    +0.249 C 
ATOM      2  O   UNL     1       4.351   2.056  -0.032  0.00  0.00    -0.270 OA
ATOM      3  N   UNL     1       3.759  -0.084  -0.044  0.00  0.00    -0.275 N 
ATOM      4  H   UNL     1       4.030  -1.016  -0.055  0.00  0.00    +0.156 HD
ENDROOT
BRANCH   3   5
ATOM      5  C   UNL     1       2.414   0.245  -0.025  0.00  0.00    +0.086 A 
ATOM      6  C   UNL     1       1.316  -0.611  -0.020  0.00  0.00    +0.091 A 
ATOM      7  C   UNL     1       0.002  -0.004   0.002  0.00  0.00    -0.024 A 
ATOM      8  C   UNL     1      -0.016   1.349   0.009  0.00  0.00    -0.016 A 
ATOM      9  S   UNL     1       1.689   1.819  -0.004  0.00  0.00    -0.079 S 
ATOM     10  C   UNL     1      -1.229   2.221   0.018  0.00  0.00    -0.041 C 
ATOM     11  C   UNL     1      -2.330   0.116   0.792  0.00  0.00    -0.069 C 
ATOM     12  C   UNL     1      -1.326  -0.749   0.022  0.00  0.00    +0.024 C 
ATOM     13  C   UNL     1      -3.704  -0.575   0.714  0.00  0.00    -0.010 C 
ATOM     14  C   UNL     1      -1.918   0.178   2.266  0.00  0.00    -0.010 C 
ATOM     15  C   UNL     1      -1.079   3.290   1.110  0.00  0.00    -0.005 C 
ATOM     16  C   UNL     1      -1.319   2.941  -1.341  0.00  0.00    -0.005 C 
ATOM     17  N   UNL     1      -2.505   1.474   0.213  0.00  0.00    +0.389 N 
ATOM     18  H   UNL     1      -2.966   1.378  -0.699  0.00  0.00    -0.084 HD
ATOM     19  H   UNL     1      -3.104   2.018   0.845  0.00  0.00    -0.084 HD
BRANCH   6  20
ATOM     20  C   UNL     1       1.497  -2.064  -0.038  0.00  0.00    +0.342 C 
ATOM     21  O   UNL     1       1.560  -2.655  -1.099  0.00  0.00    -0.245 OA
BRANCH  20  22
ATOM     22  O   UNL     1       1.593  -2.746   1.121  0.00  0.00    -0.464 OA
ATOM     23  C   UNL     1       1.772  -4.184   1.026  0.00  0.00    +0.280 C 
ENDBRANCH  20  22
ENDBRANCH   6  20
ENDBRANCH   3   5
BRANCH   1  27
ATOM     24  C   UNL     1       8.816  -0.121  -0.104  0.00  0.00    +0.106 A 
ATOM     25  C   UNL     1       8.432   1.208  -0.088  0.00  0.00    +0.029 A 
ATOM     26  C   UNL     1       7.094   1.543  -0.069  0.00  0.00    +0.015 A 
ATOM     27  C   UNL     1       6.126   0.537  -0.066  0.00  0.00    +0.037 A 
ATOM     28  C   UNL     1       6.520  -0.802  -0.077  0.00  0.00    +0.015 A 
ATOM     29  C   UNL     1       7.861  -1.123  -0.101  0.00  0.00    +0.029 A 
BRANCH  24  30
ATOM     30  S   UNL     1      10.527  -0.541  -0.128  0.00  0.00    +0.061 S 
ATOM     31  O   UNL     1      10.618  -1.842  -0.692  0.00  0.00    -0.153 OA
ATOM     32  O   UNL     1      11.211   0.577  -0.678  0.00  0.00    -0.153 OA
BRANCH  30  37
ATOM     33  C   UNL     1      14.156  -1.455   4.216  0.00  0.00    +0.007 C 
ATOM     34  C   UNL     1      12.794  -1.118   3.605  0.00  0.00    -0.012 C 
ATOM     35  C   UNL     1      12.323  -2.284   2.734  0.00  0.00    +0.020 C 
ATOM     36  C   UNL     1      10.944  -1.958   2.152  0.00  0.00    +0.110 C 
ATOM     37  N   UNL     1      11.022  -0.671   1.447  0.00  0.00    -0.177 NA
ATOM     38  C   UNL     1      11.552   0.497   2.164  0.00  0.00    +0.110 C 
ATOM     39  C   UNL     1      12.919   0.144   2.748  0.00  0.00    +0.020 C 
ENDBRANCH  30  37
ENDBRANCH  24  30
ENDBRANCH   1  27
TORSDOF 6
