REMARK  Name = ZINC01820057
REMARK  10 active torsions:
REMARK  status: ('A' for Active; 'I' for Inactive)
REMARK    1  A    between atoms: C_1  and  C_2
REMARK    2  A    between atoms: C_8  and  C_37
REMARK    3  A    between atoms: C_9  and  O_36
REMARK    4  A    between atoms: C_19  and  C_21
REMARK    5  A    between atoms: C_21  and  N_65
REMARK    6  A    between atoms: C_22  and  C_23
REMARK    7  A    between atoms: C_22  and  N_65
REMARK    8  A    between atoms: C_23  and  C_24
REMARK    9  A    between atoms: C_31  and  O_34
REMARK   10  A    between atoms: O_34  and  C_35
REMARK                            x       y       z     vdW  Elec       q    Type
REMARK                         _______ _______ _______ _____ _____    ______ ____
ROOT
ATOM      1  C   UNL     1       1.273  -3.514  -7.308  0.00  0.00    +0.008 C 
ATOM      2  C   UNL     1       2.759  -3.801  -7.531  0.00  0.00    -0.001 C 
ATOM      3  C   UNL     1       3.211  -3.083  -8.800  0.00  0.00    +0.008 C 
ATOM      4  C   UNL     1       4.668  -3.449  -9.088  0.00  0.00    +0.027 C 
ATOM      5  C   UNL     1       5.493  -3.206  -7.859  0.00  0.00    -0.027 C 
ATOM      6  C   UNL     1       5.004  -3.152  -6.656  0.00  0.00    -0.061 C 
ATOM      7  C   UNL     1       3.552  -3.315  -6.315  0.00  0.00    +0.018 C 
ATOM      8  C   UNL     1       3.378  -4.306  -5.175  0.00  0.00    +0.132 C 
ATOM      9  C   UNL     1       4.477  -4.487  -4.189  0.00  0.00    +0.071 C 
ATOM     10  C   UNL     1       5.913  -4.191  -4.630  0.00  0.00    +0.187 C 
ATOM     11  C   UNL     1       5.970  -2.934  -5.508  0.00  0.00    +0.076 C 
ATOM     12  O   UNL     1       6.638  -3.898  -3.394  0.00  0.00    -0.460 OA
ATOM     13  C   UNL     1       5.816  -3.775  -2.345  0.00  0.00    +0.309 C 
ATOM     14  O   UNL     1       6.155  -3.651  -1.189  0.00  0.00    -0.251 OA
ATOM     15  C   UNL     1       4.368  -3.814  -2.823  0.00  0.00    +0.090 C 
ATOM     16  C   UNL     1       2.973  -1.952  -5.921  0.00  0.00    +0.018 C 
ENDROOT
BRANCH   8  17
ATOM     17  O   UNL     1       2.147  -4.044  -4.490  0.00  0.00    -0.391 OA
ATOM     18  H   UNL     1       1.873  -4.750  -3.889  0.00  0.00    +0.210 HD
ENDBRANCH   8  17
BRANCH  15  19
ATOM     19  C   UNL     1       3.808  -2.396  -2.851  0.00  0.00    -0.067 C 
BRANCH  19  20
ATOM     20  N   UNL     1       3.744  -1.875  -1.472  0.00  0.00    +0.380 N 
ATOM     21  H   UNL     1       4.687  -1.870  -1.068  0.00  0.00    -0.086 HD
ATOM     22  H   UNL     1       3.134  -2.480  -0.910  0.00  0.00    -0.086 HD
BRANCH  20  23
ATOM     23  C   UNL     1       3.204  -0.502  -1.468  0.00  0.00    -0.078 C 
BRANCH  23  24
ATOM     24  C   UNL     1       3.149   0.011  -0.028  0.00  0.00    +0.018 C 
BRANCH  24  25
ATOM     25  C   UNL     1       2.599   1.413  -0.015  0.00  0.00    -0.024 A 
ATOM     26  C   UNL     1       3.312   2.551  -0.016  0.00  0.00    +0.087 A 
ATOM     27  N   UNL     1       2.471   3.629  -0.002  0.00  0.00    -0.360 N 
ATOM     28  H   UNL     1       2.754   4.557   0.000  0.00  0.00    +0.165 HD
ATOM     29  C   UNL     1       1.160   3.201   0.008  0.00  0.00    +0.047 A 
ATOM     30  C   UNL     1       1.185   1.794   0.000  0.00  0.00    +0.006 A 
ATOM     31  C   UNL     1      -0.013   1.076   0.008  0.00  0.00    +0.056 A 
ATOM     32  C   UNL     1      -1.215   1.754   0.017  0.00  0.00    +0.121 A 
ATOM     33  C   UNL     1      -1.236   3.146   0.032  0.00  0.00    +0.047 A 
ATOM     34  C   UNL     1      -0.061   3.865   0.024  0.00  0.00    +0.030 A 
BRANCH  32  35
ATOM     35  O   UNL     1      -2.384   1.060   0.019  0.00  0.00    -0.495 OA
ATOM     36  C   UNL     1      -3.592   1.823   0.029  0.00  0.00    +0.277 C 
ENDBRANCH  32  35
ENDBRANCH  24  25
ENDBRANCH  23  24
ENDBRANCH  20  23
ENDBRANCH  19  20
ENDBRANCH  15  19
TORSDOF 7
