REMARK  Name = ZINC09350009
REMARK  14 active torsions:
REMARK  status: ('A' for Active; 'I' for Inactive)
REMARK    1  A    between atoms: C_1  and  C_2
REMARK    2  A    between atoms: C_2  and  N_3
REMARK    3  A    between atoms: N_3  and  C_4
REMARK    4  A    between atoms: N_3  and  C_6
REMARK    5  A    between atoms: C_4  and  C_5
REMARK    6  A    between atoms: C_9  and  C_13
REMARK    7  A    between atoms: C_10  and  O_12
REMARK    8  A    between atoms: N_17  and  C_18
REMARK    9  A    between atoms: C_22  and  C_23
REMARK   10  A    between atoms: C_22  and  N_67
REMARK   11  A    between atoms: C_23  and  C_25
REMARK   12  A    between atoms: C_23  and  O_33
REMARK   13  A    between atoms: C_28  and  O_31
REMARK   14  A    between atoms: O_31  and  C_32
REMARK                            x       y       z     vdW  Elec       q    Type
REMARK                         _______ _______ _______ _____ _____    ______ ____
ROOT
ATOM      1  C   UNL     1      -4.961   4.227   0.133  0.00  0.00    +0.144 A 
ATOM      2  N   UNL     1      -5.122   5.532   0.232  0.00  0.00    -0.234 NA
ATOM      3  C   UNL     1      -6.422   5.818   0.172  0.00  0.00    +0.046 A 
ATOM      4  C   UNL     1      -7.106   4.657   0.043  0.00  0.00    +0.038 A 
ATOM      5  N   UNL     1      -6.194   3.647   0.015  0.00  0.00    -0.330 N 
ATOM      6  C   UNL     1      -6.479   2.216  -0.117  0.00  0.00    +0.150 C 
ATOM      7  C   UNL     1      -8.610   4.584  -0.045  0.00  0.00    +0.037 C 
ATOM      8  C   UNL     1      -9.175   5.932   0.426  0.00  0.00    -0.072 C 
ATOM      9  C   UNL     1      -7.090   7.169   0.235  0.00  0.00    -0.020 C 
ATOM     10  N   UNL     1      -8.470   7.020  -0.289  0.00  0.00    +0.386 N 
ATOM     11  H   UNL     1      -8.423   6.786  -1.287  0.00  0.00    -0.081 HD
ENDROOT
BRANCH   1  15
ATOM     12  C   UNL     1      -1.241   2.168   0.187  0.00  0.00    +0.033 A 
ATOM     13  C   UNL     1      -2.295   1.724   0.980  0.00  0.00    +0.024 A 
ATOM     14  C   UNL     1      -3.501   2.389   0.965  0.00  0.00    +0.017 A 
ATOM     15  C   UNL     1      -3.668   3.512   0.152  0.00  0.00    +0.059 A 
ATOM     16  C   UNL     1      -2.607   3.958  -0.647  0.00  0.00    +0.129 A 
ATOM     17  C   UNL     1      -1.397   3.287  -0.620  0.00  0.00    +0.069 A 
BRANCH  16  18
ATOM     18  O   UNL     1      -2.763   5.050  -1.439  0.00  0.00    -0.506 OA
ATOM     19  H   UNL     1      -2.530   5.884  -1.010  0.00  0.00    +0.292 HD
ENDBRANCH  16  18
BRANCH  12  20
ATOM     20  N   UNL     1      -0.023   1.490   0.207  0.00  0.00    -0.330 N 
BRANCH  20  22
ATOM     21  C   UNL     1       0.665   0.749   2.434  0.00  0.00    +0.024 C 
ATOM     22  C   UNL     1       0.146   0.312   1.063  0.00  0.00    +0.102 C 
ENDBRANCH  20  22
BRANCH  20  23
ATOM     23  C   UNL     1       1.087   1.951  -0.631  0.00  0.00    +0.102 C 
ATOM     24  C   UNL     1       1.013   1.265  -1.997  0.00  0.00    +0.024 C 
ENDBRANCH  20  23
ENDBRANCH  12  20
ENDBRANCH   1  15
BRANCH  10  25
ATOM     25  C   UNL     1      -9.209   8.289  -0.128  0.00  0.00    -0.042 C 
BRANCH  25  26
ATOM     26  C   UNL     1      -8.592   9.338  -1.056  0.00  0.00    +0.128 C 
BRANCH  26  27
ATOM     27  C   UNL     1      -9.342  10.637  -0.913  0.00  0.00    -0.021 A 
ATOM     28  C   UNL     1     -10.543  10.818  -1.573  0.00  0.00    +0.009 A 
ATOM     29  C   UNL     1     -11.235  12.006  -1.439  0.00  0.00    +0.046 A 
ATOM     30  C   UNL     1     -10.716  13.024  -0.651  0.00  0.00    +0.120 A 
ATOM     31  C   UNL     1      -9.508  12.842   0.006  0.00  0.00    +0.046 A 
ATOM     32  C   UNL     1      -8.823  11.650  -0.127  0.00  0.00    +0.009 A 
BRANCH  30  33
ATOM     33  O   UNL     1     -11.392  14.196  -0.523  0.00  0.00    -0.495 OA
ATOM     34  C   UNL     1     -12.629  14.312  -1.228  0.00  0.00    +0.277 C 
ENDBRANCH  30  33
ENDBRANCH  26  27
BRANCH  26  35
ATOM     35  O   UNL     1      -8.677   8.886  -2.409  0.00  0.00    -0.389 OA
ATOM     36  H   UNL     1      -9.580   8.729  -2.716  0.00  0.00    +0.210 HD
ENDBRANCH  26  35
ENDBRANCH  25  26
ENDBRANCH  10  25
TORSDOF 10
