REMARK  Name = ZINC16739608
REMARK  5 active torsions:
REMARK  status: ('A' for Active; 'I' for Inactive)
REMARK    1  A    between atoms: C_3  and  N_30
REMARK    2  A    between atoms: C_6  and  C_7
REMARK    3  A    between atoms: C_8  and  C_9
REMARK    4  A    between atoms: N_13  and  N_17
REMARK    5  A    between atoms: C_18  and  C_20
REMARK                            x       y       z     vdW  Elec       q    Type
REMARK                         _______ _______ _______ _____ _____    ______ ____
ROOT
ATOM      1  C   UNL     1      -5.417   0.121  -1.938  0.00  0.00    +0.040 C 
ATOM      2  C   UNL     1      -4.535   0.504  -0.900  0.00  0.00    +0.080 C 
ATOM      3  C   UNL     1      -3.261   1.279  -0.980  0.00  0.00    +0.275 C 
ATOM      4  O   UNL     1      -2.824   1.688  -2.037  0.00  0.00    -0.267 OA
ATOM      5  N   UNL     1      -2.635   1.490   0.166  0.00  0.00    -0.169 N 
ATOM      6  C   UNL     1      -3.153   1.025   1.320  0.00  0.00    +0.138 C 
ATOM      7  S   UNL     1      -2.524   1.186   2.904  0.00  0.00    -0.026 S 
ATOM      8  S   UNL     1      -4.651   0.204   0.806  0.00  0.00    -0.059 S 
ENDROOT
BRANCH   5   9
ATOM      9  N   UNL     1      -1.430   2.206   0.181  0.00  0.00    -0.222 N 
ATOM     10  C   UNL     1      -0.262   1.556   0.357  0.00  0.00    +0.261 C 
ATOM     11  O   UNL     1      -0.255   0.348   0.504  0.00  0.00    -0.269 OA
ATOM     12  H   UNL     1      -1.436   3.169   0.064  0.00  0.00    +0.174 HD
BRANCH  10  13
ATOM     13  C   UNL     1       1.004   2.306   0.367  0.00  0.00    +0.049 A 
ATOM     14  C   UNL     1       1.021   3.674   0.204  0.00  0.00    +0.058 A 
ATOM     15  S   UNL     1       2.707   4.063   0.290  0.00  0.00    -0.101 S 
ATOM     16  C   UNL     1       3.360   2.436   0.537  0.00  0.00    -0.006 A 
ATOM     17  C   UNL     1       2.273   1.631   0.554  0.00  0.00    -0.025 A 
ATOM     18  C   UNL     1       2.415   0.127   0.752  0.00  0.00    +0.037 C 
ATOM     19  C   UNL     1       3.863  -0.274   0.460  0.00  0.00    +0.005 C 
ATOM     20  C   UNL     1       4.821   0.599   1.275  0.00  0.00    +0.005 C 
ATOM     21  C   UNL     1       4.791   2.026   0.701  0.00  0.00    +0.043 C 
ENDBRANCH  10  13
ENDBRANCH   5   9
BRANCH   1  23
ATOM     22  C   UNL     1      -7.436  -0.980  -2.679  0.00  0.00    +0.028 C 
ATOM     23  C   UNL     1      -6.557  -0.598  -1.644  0.00  0.00    +0.043 C 
ATOM     24 CL   UNL     1      -6.910  -1.031  -0.001  0.00  0.00    -0.083 Cl
BRANCH  22  30
ATOM     25  C   UNL     1      -8.398  -2.836  -1.410  0.00  0.00    +0.010 A 
ATOM     26  C   UNL     1      -9.454  -3.659  -1.149  0.00  0.00    +0.033 A 
ATOM     27  C   UNL     1     -10.639  -3.526  -1.862  0.00  0.00    +0.126 A 
ATOM     28  C   UNL     1     -10.766  -2.554  -2.845  0.00  0.00    +0.033 A 
ATOM     29  C   UNL     1      -9.726  -1.714  -3.122  0.00  0.00    +0.010 A 
ATOM     30  C   UNL     1      -8.516  -1.839  -2.404  0.00  0.00    -0.024 A 
BRANCH  27  31
ATOM     31  N   UNL     1     -11.778  -4.433  -1.571  0.00  0.00    +0.056 N 
ATOM     32  O   UNL     1     -12.904  -4.312  -2.244  0.00  0.00    -0.126 OA
ATOM     33  O   UNL     1     -11.663  -5.358  -0.640  0.00  0.00    -0.126 OA
ENDBRANCH  27  31
ENDBRANCH  22  30
ENDBRANCH   1  23
TORSDOF 5
