REMARK  Name = ZINC12599341
REMARK  5 active torsions:
REMARK  status: ('A' for Active; 'I' for Inactive)
REMARK    1  A    between atoms: C_7  and  C_11
REMARK    2  A    between atoms: C_11  and  C_13
REMARK    3  A    between atoms: C_11  and  C_27
REMARK    4  A    between atoms: C_13  and  N_14
REMARK    5  A    between atoms: C_15  and  C_17
REMARK                            x       y       z     vdW  Elec       q    Type
REMARK                         _______ _______ _______ _____ _____    ______ ____
ROOT
ATOM      1  C   UNL     1       3.682   4.008   0.008  0.00  0.00    +0.069 C 
ENDROOT
BRANCH   1   8
ATOM      2  C   UNL     1      -0.008   1.117   0.084  0.00  0.00    +0.001 A 
ATOM      3  C   UNL     1      -1.222   1.790   0.086  0.00  0.00    +0.002 A 
ATOM      4  C   UNL     1      -1.262   3.167   0.079  0.00  0.00    +0.026 A 
ATOM      5  C   UNL     1      -0.075   3.893   0.057  0.00  0.00    +0.047 A 
ATOM      6  C   UNL     1       1.152   3.206   0.048  0.00  0.00    +0.003 A 
ATOM      7  C   UNL     1       1.169   1.810   0.062  0.00  0.00    +0.010 A 
ATOM      8  C   UNL     1       2.193   4.237   0.025  0.00  0.00    -0.013 A 
ATOM      9  C   UNL     1       1.568   5.425   0.021  0.00  0.00    +0.088 A 
ATOM     10  N   UNL     1       0.212   5.239   0.040  0.00  0.00    -0.360 N 
ATOM     11  H   UNL     1      -0.448   5.950   0.041  0.00  0.00    +0.165 HD
ENDBRANCH   1   8
BRANCH   1  12
ATOM     12  C   UNL     1       4.302   4.645   1.225  0.00  0.00    -0.020 A 
ATOM     13  C   UNL     1       4.177   6.005   1.433  0.00  0.00    +0.006 A 
ATOM     14  C   UNL     1       4.746   6.590   2.548  0.00  0.00    +0.000 A 
ATOM     15  C   UNL     1       5.441   5.814   3.458  0.00  0.00    +0.001 A 
ATOM     16  C   UNL     1       5.567   4.453   3.251  0.00  0.00    +0.020 A 
ATOM     17  C   UNL     1       4.993   3.867   2.137  0.00  0.00    +0.045 A 
ATOM     18 CL   UNL     1       5.144   2.156   1.881  0.00  0.00    -0.083 Cl
ENDBRANCH   1  12
BRANCH   1  19
ATOM     19  C   UNL     1       4.280   4.631  -1.255  0.00  0.00    +0.117 C 
BRANCH  19  20
ATOM     20  N   UNL     1       5.706   4.306  -1.332  0.00  0.00    -0.310 N 
ATOM     21  C   UNL     1       6.444   4.752  -2.367  0.00  0.00    +0.251 C 
ATOM     22  O   UNL     1       5.909   5.346  -3.284  0.00  0.00    -0.270 OA
ATOM     23  H   UNL     1       6.119   3.769  -0.637  0.00  0.00    +0.149 HD
BRANCH  21  24
ATOM     24  C   UNL     1       7.894   4.522  -2.389  0.00  0.00    +0.119 A 
ATOM     25  C   UNL     1       8.687   5.084  -3.390  0.00  0.00    +0.132 A 
ATOM     26  N   UNL     1       9.989   4.856  -3.370  0.00  0.00    -0.231 NA
ATOM     27  C   UNL     1      10.556   4.108  -2.441  0.00  0.00    +0.172 A 
ATOM     28  N   UNL     1       9.864   3.515  -1.430  0.00  0.00    -0.286 N 
ATOM     29  C   UNL     1       8.509   3.723  -1.399  0.00  0.00    +0.267 A 
ATOM     30  O   UNL     1       7.835   3.218  -0.517  0.00  0.00    -0.267 OA
ATOM     31  C   UNL     1      10.602   2.708  -0.460  0.00  0.00    +0.138 C 
ATOM     32  C   UNL     1      12.114   2.633  -0.716  0.00  0.00    +0.099 C 
ATOM     33  S   UNL     1      12.267   3.664  -2.221  0.00  0.00    -0.086 S 
ENDBRANCH  21  24
ENDBRANCH  19  20
ENDBRANCH   1  19
TORSDOF 5
