REMARK  Name = ZINC12882450
REMARK  5 active torsions:
REMARK  status: ('A' for Active; 'I' for Inactive)
REMARK    1  A    between atoms: C_12  and  C_14
REMARK    2  A    between atoms: C_14  and  C_15
REMARK    3  A    between atoms: C_18  and  O_22
REMARK    4  A    between atoms: C_19  and  O_21
REMARK    5  A    between atoms: N_25  and  C_28
REMARK                            x       y       z     vdW  Elec       q    Type
REMARK                         _______ _______ _______ _____ _____    ______ ____
ROOT
ATOM      1  C   UNL     1       1.165   3.163   0.008  0.00  0.00    +0.000 A 
ATOM      2  C   UNL     1       1.174   1.780   0.000  0.00  0.00    +0.002 A 
ATOM      3  C   UNL     1      -0.013   1.076   0.008  0.00  0.00    +0.023 A 
ATOM      4  C   UNL     1      -1.230   1.754   0.017  0.00  0.00    +0.036 A 
ATOM      5  C   UNL     1      -1.226   3.145   0.028  0.00  0.00    -0.028 A 
ATOM      6  C   UNL     1      -0.039   3.844   0.022  0.00  0.00    +0.004 A 
ATOM      7  C   UNL     1      -2.670   3.559   0.040  0.00  0.00    +0.050 C 
ATOM      8  C   UNL     1      -3.019   4.420  -1.181  0.00  0.00    +0.088 C 
ATOM      9  C   UNL     1      -4.057   5.448  -0.650  0.00  0.00    +0.073 C 
ATOM     10  C   UNL     1      -4.238   5.095   0.842  0.00  0.00    -0.053 C 
ATOM     11  C   UNL     1      -3.306   6.772  -0.771  0.00  0.00    +0.224 C 
ATOM     12  O   UNL     1      -3.745   7.856  -0.451  0.00  0.00    -0.275 OA
ATOM     13  N   UNL     1      -2.092   6.553  -1.290  0.00  0.00    -0.239 N 
ATOM     14  C   UNL     1      -1.827   5.270  -1.560  0.00  0.00    +0.225 C 
ATOM     15  O   UNL     1      -0.793   4.853  -2.035  0.00  0.00    -0.275 OA
ATOM     16  C   UNL     1      -3.447   2.271   0.030  0.00  0.00    +0.211 C 
ATOM     17  O   UNL     1      -4.654   2.153   0.037  0.00  0.00    -0.277 OA
ATOM     18  N   UNL     1      -2.541   1.274   0.022  0.00  0.00    -0.286 N 
ATOM     19  H   UNL     1      -2.773   0.332   0.021  0.00  0.00    +0.155 HD
ATOM     20  N   UNL     1      -3.006   4.381   1.189  0.00  0.00    +0.394 N 
ATOM     21  H   UNL     1      -2.251   5.050   1.381  0.00  0.00    -0.083 HD
ATOM     22  H   UNL     1      -3.159   3.792   2.015  0.00  0.00    -0.083 HD
ENDROOT
BRANCH  13  23
ATOM     23  C   UNL     1      -1.131   7.630  -1.541  0.00  0.00    +0.084 C 
ATOM     24  C   UNL     1      -0.786   8.314  -0.202  0.00  0.00    +0.023 C 
ATOM     25  C   UNL     1       0.527   9.034  -0.359  0.00  0.00    +0.002 C 
ATOM     26  C   UNL     1       0.343  10.516  -0.737  0.00  0.00    +0.000 C 
ATOM     27  C   UNL     1      -0.763  10.731  -1.788  0.00  0.00    +0.000 C 
ATOM     28  C   UNL     1      -0.731   9.694  -2.878  0.00  0.00    +0.002 C 
ATOM     29  C   UNL     1      -1.705   8.559  -2.504  0.00  0.00    +0.023 C 
ENDBRANCH  13  23
BRANCH  10  30
ATOM     30  C   UNL     1      -4.399   6.368   1.674  0.00  0.00    +0.020 C 
BRANCH  30  31
ATOM     31  C   UNL     1      -4.696   5.999   3.105  0.00  0.00    -0.045 A 
ATOM     32  C   UNL     1      -3.659   5.821   4.001  0.00  0.00    +0.007 A 
ATOM     33  C   UNL     1      -3.926   5.482   5.314  0.00  0.00    +0.049 A 
ATOM     34  C   UNL     1      -5.237   5.322   5.735  0.00  0.00    +0.158 A 
ATOM     35  C   UNL     1      -6.281   5.501   4.833  0.00  0.00    +0.158 A 
ATOM     36  C   UNL     1      -6.006   5.845   3.519  0.00  0.00    +0.052 A 
BRANCH  35  37
ATOM     37  O   UNL     1      -7.569   5.344   5.241  0.00  0.00    -0.503 OA
ATOM     38  H   UNL     1      -7.978   6.155   5.572  0.00  0.00    +0.292 HD
ENDBRANCH  35  37
BRANCH  34  39
ATOM     39  O   UNL     1      -5.502   4.989   7.027  0.00  0.00    -0.503 OA
ATOM     40  H   UNL     1      -5.615   5.749   7.614  0.00  0.00    +0.292 HD
ENDBRANCH  34  39
ENDBRANCH  30  31
ENDBRANCH  10  30
TORSDOF 5
