REMARK  Name = ZINC13495954
REMARK  14 active torsions:
REMARK  status: ('A' for Active; 'I' for Inactive)
REMARK    1  A    between atoms: C_1  and  C_2
REMARK    2  A    between atoms: C_2  and  C_3
REMARK    3  A    between atoms: C_3  and  C_5
REMARK    4  A    between atoms: C_3  and  N_76
REMARK    5  A    between atoms: N_9  and  C_10
REMARK    6  A    between atoms: C_15  and  C_16
REMARK    7  A    between atoms: C_15  and  N_76
REMARK    8  A    between atoms: C_16  and  C_17
REMARK    9  A    between atoms: C_21  and  C_23
REMARK   10  A    between atoms: C_24  and  C_25
REMARK   11  A    between atoms: C_24  and  N_76
REMARK   12  A    between atoms: C_29  and  O_37
REMARK   13  A    between atoms: O_37  and  C_38
REMARK   14  A    between atoms: C_38  and  C_39
REMARK                            x       y       z     vdW  Elec       q    Type
REMARK                         _______ _______ _______ _____ _____    ______ ____
ROOT
ATOM      1  N   UNL     1      -0.231   7.347  -1.498  0.00  0.00    +0.389 N 
ATOM      2  H   UNL     1       0.691   7.502  -1.074  0.00  0.00    -0.080 HD
ENDROOT
BRANCH   1   3
ATOM      3  C   UNL     1      -1.264   7.968  -0.641  0.00  0.00    +0.003 C 
BRANCH   3   4
ATOM      4  C   UNL     1      -2.611   7.912  -1.313  0.00  0.00    +0.138 A 
ATOM      5  N   UNL     1      -2.868   8.157  -2.575  0.00  0.00    -0.115 NA
ATOM      6  N   UNL     1      -4.133   8.003  -2.761  0.00  0.00    -0.023 NA
ATOM      7  N   UNL     1      -4.691   7.666  -1.651  0.00  0.00    -0.044 NA
ATOM      8  N   UNL     1      -3.785   7.594  -0.736  0.00  0.00    -0.228 N 
BRANCH   8   9
ATOM      9  C   UNL     1      -3.994   7.237   0.669  0.00  0.00    +0.111 C 
ATOM     10  C   UNL     1      -4.637   5.838   0.769  0.00  0.00    +0.027 C 
ATOM     11  C   UNL     1      -5.620   5.956   1.961  0.00  0.00    +0.002 C 
ATOM     12  C   UNL     1      -6.188   7.388   1.796  0.00  0.00    +0.002 C 
ATOM     13  C   UNL     1      -4.979   8.222   1.323  0.00  0.00    +0.027 C 
ENDBRANCH   8   9
ENDBRANCH   3   4
BRANCH   3  15
ATOM     14  C   UNL     1       0.410   9.481   0.432  0.00  0.00    +0.002 C 
ATOM     15  C   UNL     1      -0.881   9.428  -0.387  0.00  0.00    -0.011 C 
ENDBRANCH   3  15
ENDBRANCH   1   3
BRANCH   1  16
ATOM     16  C   UNL     1      -0.472   5.893  -1.605  0.00  0.00    -0.073 C 
BRANCH  16  17
ATOM     17  C   UNL     1      -0.076   5.231  -0.283  0.00  0.00    +0.016 C 
BRANCH  17  18
ATOM     18  C   UNL     1      -0.164   3.733  -0.425  0.00  0.00    -0.049 A 
ATOM     19  C   UNL     1       0.938   3.013  -0.850  0.00  0.00    +0.003 A 
ATOM     20  C   UNL     1       0.857   1.639  -0.981  0.00  0.00    +0.001 A 
ATOM     21  C   UNL     1      -0.326   0.986  -0.687  0.00  0.00    +0.003 A 
ATOM     22  C   UNL     1      -1.428   1.706  -0.268  0.00  0.00    -0.050 A 
ATOM     23  C   UNL     1      -1.346   3.079  -0.132  0.00  0.00    +0.007 A 
ATOM     24  C   UNL     1      -2.719   0.994   0.046  0.00  0.00    +0.044 C 
ENDBRANCH  17  18
ENDBRANCH  16  17
ENDBRANCH   1  16
BRANCH   1  25
ATOM     25  C   UNL     1      -0.252   7.962  -2.841  0.00  0.00    -0.037 C 
BRANCH  25  26
ATOM     26  C   UNL     1       1.061   7.678  -3.523  0.00  0.00    +0.001 A 
ATOM     27  C   UNL     1       1.169   6.623  -4.369  0.00  0.00    +0.017 A 
ATOM     28  C   UNL     1       2.458   6.373  -5.015  0.00  0.00    +0.002 A 
ATOM     29  C   UNL     1       2.628   5.300  -5.897  0.00  0.00    +0.055 A 
ATOM     30  C   UNL     1       3.857   5.093  -6.490  0.00  0.00    +0.121 A 
ATOM     31  C   UNL     1       4.924   5.946  -6.213  0.00  0.00    +0.047 A 
ATOM     32  C   UNL     1       4.769   7.006  -5.347  0.00  0.00    +0.030 A 
ATOM     33  C   UNL     1       3.538   7.232  -4.739  0.00  0.00    +0.049 A 
ATOM     34  N   UNL     1       3.363   8.289  -3.868  0.00  0.00    -0.322 N 
ATOM     35  H   UNL     1       4.108   8.880  -3.678  0.00  0.00    +0.169 HD
ATOM     36  C   UNL     1       2.173   8.513  -3.284  0.00  0.00    +0.251 A 
ATOM     37  O   UNL     1       2.053   9.459  -2.525  0.00  0.00    -0.268 OA
BRANCH  30  38
ATOM     38  O   UNL     1       4.028   4.052  -7.347  0.00  0.00    -0.492 OA
BRANCH  38  39
ATOM     39  C   UNL     1       5.325   3.895  -7.926  0.00  0.00    +0.225 C 
ATOM     40  C   UNL     1       5.325   2.680  -8.856  0.00  0.00    +0.048 C 
ENDBRANCH  38  39
ENDBRANCH  30  38
ENDBRANCH  25  26
ENDBRANCH   1  25
TORSDOF 11
