REMARK  Name = ZINC20899100
REMARK  8 active torsions:
REMARK  status: ('A' for Active; 'I' for Inactive)
REMARK    1  A    between atoms: C_1  and  O_2
REMARK    2  A    between atoms: O_2  and  C_3
REMARK    3  A    between atoms: C_5  and  C_12
REMARK    4  A    between atoms: C_7  and  O_10
REMARK    5  A    between atoms: C_8  and  O_9
REMARK    6  A    between atoms: O_10  and  C_11
REMARK    7  A    between atoms: N_30  and  C_33
REMARK    8  A    between atoms: C_33  and  C_34
REMARK                            x       y       z     vdW  Elec       q    Type
REMARK                         _______ _______ _______ _____ _____    ______ ____
ROOT
ATOM      1  C   UNL     1      -3.697   1.654   1.210  0.00  0.00    +0.087 C 
ATOM      2  C   UNL     1      -4.447   2.769   0.539  0.00  0.00    +0.071 C 
ATOM      3  C   UNL     1      -3.577   3.930   0.214  0.00  0.00    +0.027 C 
ATOM      4  N   UNL     1      -2.393   3.935  -0.172  0.00  0.00    -0.316 N 
ATOM      5  C   UNL     1      -1.329   3.162  -0.396  0.00  0.00    +0.045 A 
ATOM      6  C   UNL     1      -0.159   3.862  -0.770  0.00  0.00    +0.024 A 
ATOM      7  C   UNL     1       1.026   3.210  -1.000  0.00  0.00    +0.002 A 
ATOM      8  C   UNL     1       1.092   1.833  -0.867  0.00  0.00    +0.001 A 
ATOM      9  C   UNL     1      -0.037   1.131  -0.513  0.00  0.00    +0.016 A 
ATOM     10  C   UNL     1      -1.260   1.773  -0.288  0.00  0.00    +0.030 A 
ATOM     11  S   UNL     1      -2.623   0.749   0.103  0.00  0.00    -0.115 S 
ATOM     12  C   UNL     1      -4.192   5.248   0.383  0.00  0.00    +0.116 C 
ATOM     13  C   UNL     1      -4.210   5.879   1.629  0.00  0.00    +0.258 C 
ATOM     14  N   UNL     1      -4.790   7.111   1.740  0.00  0.00    -0.235 N 
ATOM     15  H   UNL     1      -4.804   7.626   2.711  0.00  0.00    +0.159 HD
ATOM     16  C   UNL     1      -5.350   7.716   0.680  0.00  0.00    +0.316 C 
ATOM     17  O   UNL     1      -5.859   8.810   0.831  0.00  0.00    -0.252 OA
ATOM     18  N   UNL     1      -5.368   7.155  -0.540  0.00  0.00    -0.218 N 
ATOM     19  C   UNL     1      -4.815   5.943  -0.750  0.00  0.00    +0.261 C 
ATOM     20  O   UNL     1      -4.831   5.436  -1.857  0.00  0.00    -0.269 OA
ATOM     21  O   UNL     1      -3.658   5.285   2.704  0.00  0.00    -0.270 OA
ATOM     22  H   UNL     1      -1.918   4.880  -0.476  0.00  0.00    +0.152 HD
ENDROOT
BRANCH   1  25
ATOM     23  C   UNL     1      -5.656  -0.364   3.734  0.00  0.00    +0.165 A 
ATOM     24  C   UNL     1      -4.741   0.517   3.179  0.00  0.00    +0.054 A 
ATOM     25  C   UNL     1      -4.692   0.694   1.809  0.00  0.00    -0.027 A 
ATOM     26  C   UNL     1      -5.558  -0.003   0.987  0.00  0.00    +0.054 A 
ATOM     27  C   UNL     1      -6.472  -0.891   1.534  0.00  0.00    +0.165 A 
ATOM     28  C   UNL     1      -6.525  -1.071   2.911  0.00  0.00    +0.201 A 
BRANCH  23  30
ATOM     29  C   UNL     1      -4.781   0.221   5.866  0.00  0.00    +0.277 C 
ATOM     30  O   UNL     1      -5.704  -0.538   5.082  0.00  0.00    -0.491 OA
ENDBRANCH  23  30
BRANCH  28  31
ATOM     31  O   UNL     1      -7.425  -1.937   3.451  0.00  0.00    -0.501 OA
ATOM     32  H   UNL     1      -8.111  -2.496   2.799  0.00  0.00    +0.292 HD
ENDBRANCH  28  31
BRANCH  27  33
ATOM     33  O   UNL     1      -7.320  -1.580   0.724  0.00  0.00    -0.491 OA
ATOM     34  C   UNL     1      -7.210  -1.345  -0.681  0.00  0.00    +0.277 C 
ENDBRANCH  27  33
ENDBRANCH   1  25
BRANCH  18  35
ATOM     35  C   UNL     1      -5.995   7.868  -1.656  0.00  0.00    +0.145 C 
BRANCH  35  36
ATOM     36  C   UNL     1      -7.453   7.493  -1.735  0.00  0.00    -0.015 C 
ATOM     37  C   UNL     1      -8.371   8.427  -1.714  0.00  0.00    +0.005 C 
ENDBRANCH  35  36
ENDBRANCH  18  35
TORSDOF 6
