REMARK  Name = ZINC30984628
REMARK  9 active torsions:
REMARK  status: ('A' for Active; 'I' for Inactive)
REMARK    1  A    between atoms: C_1  and  C_2
REMARK    2  A    between atoms: C_2  and  C_4
REMARK    3  A    between atoms: C_2  and  C_15
REMARK    4  A    between atoms: C_4  and  C_5
REMARK    5  A    between atoms: C_15  and  N_16
REMARK    6  A    between atoms: C_17  and  C_19
REMARK    7  A    between atoms: N_22  and  C_25
REMARK    8  A    between atoms: C_25  and  C_26
REMARK    9  A    between atoms: C_28  and  C_31
REMARK                            x       y       z     vdW  Elec       q    Type
REMARK                         _______ _______ _______ _____ _____    ______ ____
ROOT
ATOM      1  C   UNL     1       1.420   2.051  -0.001  0.00  0.00    +0.071 C 
ATOM      2  C   UNL     1      -0.019   1.526   0.010  0.00  0.00    -0.006 C 
ATOM      3  C   UNL     1       0.002  -0.004   0.002  0.00  0.00    -0.077 C 
ATOM      4  N   UNL     1       0.706  -0.479  -1.196  0.00  0.00    +0.386 N 
ATOM      5  C   UNL     1       2.103  -0.026  -1.205  0.00  0.00    -0.077 C 
ATOM      6  C   UNL     1       2.145   1.503  -1.232  0.00  0.00    -0.006 C 
ATOM      7  H   UNL     1       0.207  -0.042  -2.073  0.00  0.00    -0.081 HD
ENDROOT
BRANCH   1   9
ATOM      8  N   UNL     1       2.566   4.242  -0.071  0.00  0.00    -0.315 N 
ATOM      9  C   UNL     1       1.405   3.557  -0.053  0.00  0.00    +0.216 C 
ATOM     10  O   UNL     1       0.349   4.153  -0.079  0.00  0.00    -0.276 OA
ATOM     11  H   UNL     1       3.524   3.701  -0.047  0.00  0.00    +0.149 HD
BRANCH   8  12
ATOM     12  C   UNL     1       2.553   5.706  -0.121  0.00  0.00    +0.107 C 
BRANCH  12  14
ATOM     13  C   UNL     1       4.685   5.786  -1.421  0.00  0.00    +0.009 C 
ATOM     14  C   UNL     1       3.990   6.229  -0.132  0.00  0.00    +0.007 C 
BRANCH  14  15
ATOM     15  C   UNL     1       3.977   7.758  -0.059  0.00  0.00    +0.040 C 
BRANCH  15  16
ATOM     16  C   UNL     1       5.391   8.267   0.054  0.00  0.00    -0.039 A 
ATOM     17  C   UNL     1       5.924   8.539   1.276  0.00  0.00    +0.004 A 
ATOM     18  C   UNL     1       7.229   9.011   1.400  0.00  0.00    +0.001 A 
ATOM     19  C   UNL     1       8.009   9.213   0.303  0.00  0.00    +0.008 A 
ATOM     20  C   UNL     1       7.493   8.944  -0.976  0.00  0.00    -0.018 A 
ATOM     21  C   UNL     1       6.167   8.459  -1.102  0.00  0.00    -0.015 A 
ATOM     22  C   UNL     1       5.649   8.194  -2.381  0.00  0.00    +0.009 A 
ATOM     23  C   UNL     1       6.428   8.397  -3.478  0.00  0.00    +0.001 A 
ATOM     24  C   UNL     1       7.734   8.870  -3.354  0.00  0.00    +0.001 A 
ATOM     25  C   UNL     1       8.267   9.141  -2.132  0.00  0.00    +0.008 A 
ENDBRANCH  15  16
ENDBRANCH  14  15
ENDBRANCH  12  14
ENDBRANCH   8  12
ENDBRANCH   1   9
BRANCH   4  26
ATOM     26  C   UNL     1       0.626  -1.941  -1.309  0.00  0.00    +0.022 C 
BRANCH  26  27
ATOM     27  C   UNL     1       1.139  -2.369  -2.660  0.00  0.00    +0.211 A 
ATOM     28  N   UNL     1       2.376  -2.675  -2.961  0.00  0.00    -0.193 NA
ATOM     29  C   UNL     1       2.362  -2.996  -4.275  0.00  0.00    +0.203 A 
ATOM     30  N   UNL     1       1.128  -2.868  -4.690  0.00  0.00    -0.056 NA
ATOM     31  O   UNL     1       0.415  -2.515  -3.774  0.00  0.00    -0.340 OA
BRANCH  29  32
ATOM     32  C   UNL     1       3.527  -3.414  -5.092  0.00  0.00    +0.041 A 
ATOM     33  C   UNL     1       4.792  -3.501  -4.514  0.00  0.00    +0.013 A 
ATOM     34  C   UNL     1       5.872  -3.895  -5.278  0.00  0.00    +0.001 A 
ATOM     35  C   UNL     1       5.702  -4.195  -6.618  0.00  0.00    +0.001 A 
ATOM     36  C   UNL     1       4.451  -4.105  -7.199  0.00  0.00    +0.021 A 
ATOM     37  C   UNL     1       3.362  -3.716  -6.443  0.00  0.00    +0.052 A 
ATOM     38 CL   UNL     1       1.791  -3.604  -7.174  0.00  0.00    -0.083 Cl
ENDBRANCH  29  32
ENDBRANCH  26  27
ENDBRANCH   4  26
TORSDOF 8
