REMARK  Name = ZINC39623253
REMARK  5 active torsions:
REMARK  status: ('A' for Active; 'I' for Inactive)
REMARK    1  A    between atoms: C_5  and  C_7
REMARK    2  A    between atoms: C_7  and  N_8
REMARK    3  A    between atoms: C_9  and  C_11
REMARK    4  A    between atoms: C_22  and  C_24
REMARK    5  A    between atoms: C_27  and  C_29
REMARK                            x       y       z     vdW  Elec       q    Type
REMARK                         _______ _______ _______ _____ _____    ______ ____
ROOT
ATOM      1  C   UNL     1       1.819  -4.511   2.961  0.00  0.00    +0.100 C 
ATOM      2  C   UNL     1       0.745  -3.986   3.940  0.00  0.00    +0.121 C 
ATOM      3  N   UNL     1      -0.262  -5.071   4.008  0.00  0.00    -0.294 N 
ATOM      4  C   UNL     1       0.539  -6.319   4.006  0.00  0.00    +0.115 C 
ATOM      5  C   UNL     1       1.683  -6.042   3.010  0.00  0.00    -0.004 C 
ATOM      6  C   UNL     1       1.322  -6.585   1.630  0.00  0.00    -0.010 C 
ATOM      7  C   UNL     1       1.248  -8.113   1.691  0.00  0.00    -0.082 C 
ATOM      8  N   UNL     1       2.543  -8.650   2.127  0.00  0.00    +0.379 N 
ATOM      9  C   UNL     1       2.839  -8.198   3.492  0.00  0.00    -0.082 C 
ATOM     10  C   UNL     1       2.980  -6.673   3.507  0.00  0.00    -0.010 C 
ATOM     11  C   UNL     1      -1.603  -4.951   4.060  0.00  0.00    +0.282 C 
ATOM     12  O   UNL     1      -2.302  -5.946   4.114  0.00  0.00    -0.267 OA
ATOM     13  H   UNL     1       2.510  -9.659   2.108  0.00  0.00    -0.086 HD
ATOM     14  H   UNL     1       3.267  -8.328   1.503  0.00  0.00    -0.086 HD
ENDROOT
BRANCH  11  15
ATOM     15  C   UNL     1      -2.220  -3.622   4.053  0.00  0.00    +0.190 A 
ATOM     16  C   UNL     1      -3.571  -3.358   4.107  0.00  0.00    +0.055 A 
ATOM     17  C   UNL     1      -3.712  -1.967   4.076  0.00  0.00    +0.050 A 
ATOM     18  C   UNL     1      -2.455  -1.438   4.004  0.00  0.00    +0.136 A 
ATOM     19  O   UNL     1      -1.564  -2.444   3.997  0.00  0.00    -0.450 OA
BRANCH  18  20
ATOM     20  C   UNL     1      -2.128   0.001   3.950  0.00  0.00    +0.017 A 
ATOM     21  C   UNL     1      -3.150   0.953   3.976  0.00  0.00    +0.014 A 
ATOM     22  C   UNL     1      -2.838   2.296   3.926  0.00  0.00    +0.039 A 
ATOM     23  C   UNL     1      -1.515   2.701   3.850  0.00  0.00    +0.123 A 
ATOM     24  C   UNL     1      -0.497   1.760   3.823  0.00  0.00    +0.039 A 
ATOM     25  C   UNL     1      -0.796   0.415   3.878  0.00  0.00    +0.014 A 
ATOM     26  F   UNL     1      -1.216   4.017   3.801  0.00  0.00    -0.205 F 
ENDBRANCH  18  20
ENDBRANCH  11  15
BRANCH   1  28
ATOM     27  N   UNL     1       2.574  -3.828   0.707  0.00  0.00    -0.311 N 
ATOM     28  C   UNL     1       1.552  -4.005   1.567  0.00  0.00    +0.218 C 
ATOM     29  O   UNL     1       0.417  -3.756   1.220  0.00  0.00    -0.275 OA
ATOM     30  H   UNL     1       3.482  -4.027   0.985  0.00  0.00    +0.149 HD
BRANCH  27  31
ATOM     31  C   UNL     1       2.314  -3.335  -0.648  0.00  0.00    +0.141 C 
BRANCH  31  36
ATOM     32  C   UNL     1       5.428  -1.900  -2.228  0.00  0.00    +0.000 A 
ATOM     33  C   UNL     1       6.000  -3.028  -2.785  0.00  0.00    +0.001 A 
ATOM     34  C   UNL     1       5.380  -4.256  -2.651  0.00  0.00    +0.020 A 
ATOM     35  C   UNL     1       4.186  -4.356  -1.959  0.00  0.00    +0.046 A 
ATOM     36  C   UNL     1       3.614  -3.227  -1.401  0.00  0.00    -0.012 A 
ATOM     37  C   UNL     1       4.235  -1.999  -1.536  0.00  0.00    +0.006 A 
ATOM     38 CL   UNL     1       3.407  -5.898  -1.792  0.00  0.00    -0.083 Cl
ENDBRANCH  31  36
ENDBRANCH  27  31
ENDBRANCH   1  28
TORSDOF 5
