REMARK  Name = ZINC00848760
REMARK  6 active torsions:
REMARK  status: ('A' for Active; 'I' for Inactive)
REMARK    1  A    between atoms: C_4  and  C_7
REMARK    2  A    between atoms: C_7  and  N_8
REMARK    3  A    between atoms: C_13  and  O_15
REMARK    4  A    between atoms: O_15  and  C_16
REMARK    5  A    between atoms: C_16  and  C_17
REMARK    6  A    between atoms: C_16  and  C_21
REMARK                            x       y       z     vdW  Elec       q    Type
REMARK                         _______ _______ _______ _____ _____    ______ ____
ROOT
ATOM      1  N   UNL     1       4.124  -0.938  -1.425  0.00  0.00    -0.309 N 
ATOM      2  C   UNL     1       5.305  -1.599  -1.693  0.00  0.00    +0.223 A 
ATOM      3  N   UNL     1       5.677  -1.813  -2.951  0.00  0.00    -0.181 NA
ATOM      4  C   UNL     1       6.818  -2.445  -3.207  0.00  0.00    +0.225 A 
ATOM      5  N   UNL     1       7.581  -2.872  -2.205  0.00  0.00    -0.161 NA
ATOM      6  C   UNL     1       7.206  -2.662  -0.949  0.00  0.00    +0.325 A 
ATOM      7  N   UNL     1       6.069  -2.026  -0.692  0.00  0.00    -0.161 NA
ATOM      8  N   UNL     1       7.208  -2.662  -4.513  0.00  0.00    -0.303 N 
ATOM      9  C   UNL     1       7.282  -1.398  -5.258  0.00  0.00    +0.089 C 
ATOM     10  C   UNL     1       7.640  -1.689  -6.718  0.00  0.00    -0.063 C 
ATOM     11  N   UNL     1       8.922  -2.405  -6.772  0.00  0.00    +0.381 N 
ATOM     12  C   UNL     1       8.848  -3.670  -6.027  0.00  0.00    -0.063 C 
ATOM     13  C   UNL     1       8.490  -3.379  -4.567  0.00  0.00    +0.089 C 
ATOM     14  H   UNL     1       3.491  -0.585  -2.253  0.00  0.00    +0.149 HD
ATOM     15  H   UNL     1       9.175  -2.626  -7.819  0.00  0.00    -0.086 HD
ATOM     16  H   UNL     1       9.711  -1.779  -6.329  0.00  0.00    -0.086 HD
ENDROOT
BRANCH   1  17
ATOM     17  C   UNL     1       3.711  -0.707  -0.039  0.00  0.00    +0.139 C 
BRANCH  17  21
ATOM     18  C   UNL     1      -0.017   1.378   0.010  0.00  0.00    +0.000 A 
ATOM     19  C   UNL     1       1.171   2.086   0.002  0.00  0.00    +0.000 A 
ATOM     20  C   UNL     1       2.377   1.411  -0.014  0.00  0.00    +0.005 A 
ATOM     21  C   UNL     1       2.396   0.029  -0.022  0.00  0.00    -0.030 A 
ATOM     22  C   UNL     1       1.208  -0.679  -0.014  0.00  0.00    +0.005 A 
ATOM     23  C   UNL     1       0.002  -0.004   0.002  0.00  0.00    +0.000 A 
ENDBRANCH  17  21
ENDBRANCH   1  17
BRANCH   6  24
ATOM     24  O   UNL     1       7.983  -3.097   0.070  0.00  0.00    -0.441 OA
BRANCH  24  25
ATOM     25  C   UNL     1       7.519  -2.837   1.396  0.00  0.00    +0.383 C 
BRANCH  25  26
ATOM     26  C   UNL     1       8.013  -3.939   2.334  0.00  0.00    +0.435 C 
ATOM     27  F   UNL     1       9.412  -3.966   2.327  0.00  0.00    -0.166 F 
ATOM     28  F   UNL     1       7.559  -3.685   3.633  0.00  0.00    -0.166 F 
ATOM     29  F   UNL     1       7.521  -5.175   1.902  0.00  0.00    -0.166 F 
ENDBRANCH  25  26
BRANCH  25  30
ATOM     30  C   UNL     1       8.057  -1.485   1.869  0.00  0.00    +0.435 C 
ATOM     31  F   UNL     1       7.606  -0.477   1.011  0.00  0.00    -0.166 F 
ATOM     32  F   UNL     1       7.603  -1.231   3.167  0.00  0.00    -0.166 F 
ATOM     33  F   UNL     1       9.456  -1.512   1.861  0.00  0.00    -0.166 F 
ENDBRANCH  25  30
ENDBRANCH  24  25
ENDBRANCH   6  24
TORSDOF 6
