REMARK  Name = ZINC16362094
REMARK  6 active torsions:
REMARK  status: ('A' for Active; 'I' for Inactive)
REMARK    1  A    between atoms: C_1  and  O_2
REMARK    2  A    between atoms: O_2  and  C_3
REMARK    3  A    between atoms: C_7  and  C_11
REMARK    4  A    between atoms: C_8  and  O_9
REMARK    5  A    between atoms: O_9  and  C_10
REMARK    6  A    between atoms: C_26  and  N_31
REMARK                            x       y       z     vdW  Elec       q    Type
REMARK                         _______ _______ _______ _____ _____    ______ ____
ROOT
ATOM      1  C   UNL     1       0.092  -2.844  -0.329  0.00  0.00    +0.109 C 
ATOM      2  C   UNL     1      -1.173  -2.238   0.218  0.00  0.00    +0.030 C 
ATOM      3  C   UNL     1      -1.260  -2.389   1.752  0.00  0.00    +0.042 C 
ATOM      4  C   UNL     1      -2.086  -1.214   2.196  0.00  0.00    -0.043 A 
ATOM      5  C   UNL     1      -2.750  -1.018   3.397  0.00  0.00    +0.004 A 
ATOM      6  C   UNL     1      -3.454   0.170   3.544  0.00  0.00    +0.000 A 
ATOM      7  C   UNL     1      -3.494   1.116   2.541  0.00  0.00    +0.000 A 
ATOM      8  C   UNL     1      -2.828   0.926   1.337  0.00  0.00    +0.004 A 
ATOM      9  C   UNL     1      -2.124  -0.256   1.186  0.00  0.00    -0.036 A 
ATOM     10  C   UNL     1      -1.312  -0.732   0.006  0.00  0.00    +0.057 C 
ATOM     11  C   UNL     1       0.002  -0.004   0.002  0.00  0.00    -0.017 A 
ATOM     12  C   UNL     1      -0.017   1.384   0.010  0.00  0.00    +0.038 A 
ATOM     13  C   UNL     1       1.162   2.101   0.002  0.00  0.00    +0.127 A 
ATOM     14  C   UNL     1       2.378   1.441  -0.014  0.00  0.00    +0.034 A 
ATOM     15  C   UNL     1       2.408   0.062  -0.023  0.00  0.00    +0.025 A 
ATOM     16  C   UNL     1       1.219  -0.662  -0.013  0.00  0.00    +0.032 A 
ATOM     17  N   UNL     1       1.272  -2.055  -0.015  0.00  0.00    -0.336 N 
ATOM     18  H   UNL     1       2.107  -2.503   0.195  0.00  0.00    +0.147 HD
ENDROOT
BRANCH   1  23
ATOM     19  C   UNL     1      -0.205  -6.580   0.198  0.00  0.00    +0.162 A 
ATOM     20  C   UNL     1       0.580  -6.758   1.325  0.00  0.00    +0.049 A 
ATOM     21  C   UNL     1       1.202  -5.673   1.913  0.00  0.00    +0.004 A 
ATOM     22  C   UNL     1       1.044  -4.408   1.377  0.00  0.00    +0.009 A 
ATOM     23  C   UNL     1       0.262  -4.224   0.252  0.00  0.00    +0.018 A 
ATOM     24  C   UNL     1      -0.370  -5.307  -0.338  0.00  0.00    +0.166 A 
BRANCH  19  26
ATOM     25  C   UNL     1      -0.610  -8.924   0.227  0.00  0.00    +0.277 C 
ATOM     26  O   UNL     1      -0.819  -7.647  -0.381  0.00  0.00    -0.491 OA
ENDBRANCH  19  26
BRANCH  24  27
ATOM     27  O   UNL     1      -1.144  -5.126  -1.442  0.00  0.00    -0.491 OA
ATOM     28  C   UNL     1      -0.496  -5.228  -2.712  0.00  0.00    +0.277 C 
ENDBRANCH  24  27
ENDBRANCH   1  23
BRANCH  13  29
ATOM     29  N   UNL     1       1.126   3.581   0.012  0.00  0.00    +0.056 N 
ATOM     30  O   UNL     1       0.057   4.164   0.026  0.00  0.00    -0.126 OA
ATOM     31  O   UNL     1       2.166   4.215   0.005  0.00  0.00    -0.126 OA
ENDBRANCH  13  29
TORSDOF 4
