REMARK  Name = ZINC50995181
REMARK  7 active torsions:
REMARK  status: ('A' for Active; 'I' for Inactive)
REMARK    1  A    between atoms: C_1  and  C_2
REMARK    2  A    between atoms: C_2  and  C_3
REMARK    3  A    between atoms: C_5  and  C_13
REMARK    4  A    between atoms: N_7  and  C_8
REMARK    5  A    between atoms: C_8  and  C_9
REMARK    6  A    between atoms: C_8  and  C_10
REMARK    7  A    between atoms: C_8  and  C_11
REMARK                            x       y       z     vdW  Elec       q    Type
REMARK                         _______ _______ _______ _____ _____    ______ ____
ROOT
ATOM      1  C   UNL     1       0.957   0.579  -1.819  0.00  0.00    +0.077 C 
ATOM      2  N   UNL     1       0.431   0.720  -2.984  0.00  0.00    -0.363 N 
ATOM      3  C   UNL     1       1.191  -0.107  -3.934  0.00  0.00    +0.176 C 
ATOM      4  C   UNL     1       2.264  -0.752  -3.078  0.00  0.00    +0.101 C 
ATOM      5  N   UNL     1       2.034  -0.263  -1.810  0.00  0.00    -0.273 N 
ATOM      6  N   UNL     1       3.188  -1.573  -3.453  0.00  0.00    -0.388 N 
ATOM      7  H   UNL     1       3.316  -1.762  -4.396  0.00  0.00    +0.157 HD
ATOM      8  H   UNL     1       3.756  -2.000  -2.792  0.00  0.00    +0.157 HD
ATOM      9  H   UNL     1      -0.336   1.274  -3.199  0.00  0.00    +0.162 HD
ENDROOT
BRANCH   3  10
ATOM     10  C   UNL     1       0.303  -1.157  -4.551  0.00  0.00    +0.035 A 
ATOM     11  C   UNL     1      -0.586  -1.864  -3.759  0.00  0.00    +0.130 A 
ATOM     12  C   UNL     1      -1.401  -2.829  -4.327  0.00  0.00    +0.039 A 
ATOM     13  C   UNL     1      -1.326  -3.086  -5.683  0.00  0.00    +0.004 A 
ATOM     14  C   UNL     1      -0.439  -2.380  -6.473  0.00  0.00    +0.020 A 
ATOM     15  C   UNL     1       0.372  -1.411  -5.908  0.00  0.00    +0.049 A 
ATOM     16 CL   UNL     1       1.482  -0.521  -6.903  0.00  0.00    -0.083 Cl
ATOM     17  F   UNL     1      -0.658  -1.613  -2.434  0.00  0.00    -0.205 F 
ENDBRANCH   3  10
BRANCH   5  18
ATOM     18  C   UNL     1       2.826  -0.599  -0.624  0.00  0.00    +0.033 C 
ATOM     19  C   UNL     1       1.938  -1.312   0.398  0.00  0.00    +0.031 C 
ATOM     20  C   UNL     1       3.981  -1.518  -1.026  0.00  0.00    +0.031 C 
ATOM     21  C   UNL     1       3.386   0.684  -0.005  0.00  0.00    +0.031 C 
ENDBRANCH   5  18
BRANCH   1  23
ATOM     22  C   UNL     1       0.957   2.718  -0.565  0.00  0.00    +0.011 C 
ATOM     23  C   UNL     1       0.442   1.278  -0.588  0.00  0.00    +0.066 C 
ENDBRANCH   1  23
TORSDOF 3
