REMARK  Name = ZINC63318937
REMARK  10 active torsions:
REMARK  status: ('A' for Active; 'I' for Inactive)
REMARK    1  A    between atoms: C_1  and  C_2
REMARK    2  A    between atoms: C_3  and  N_9
REMARK    3  A    between atoms: C_10  and  C_35
REMARK    4  A    between atoms: C_13  and  C_17
REMARK    5  A    between atoms: C_14  and  C_16
REMARK    6  A    between atoms: C_18  and  C_19
REMARK    7  A    between atoms: C_18  and  C_21
REMARK    8  A    between atoms: N_23  and  C_24
REMARK    9  A    between atoms: C_24  and  C_25
REMARK   10  A    between atoms: C_25  and  C_26
REMARK                            x       y       z     vdW  Elec       q    Type
REMARK                         _______ _______ _______ _____ _____    ______ ____
ROOT
ATOM      1  C   UNL     1      -1.646   1.561  -5.313  0.00  0.00    +0.029 C 
ATOM      2  C   UNL     1      -2.975   1.569  -4.942  0.00  0.00    +0.114 C 
ENDROOT
BRANCH   1   6
ATOM      3  N   UNL     1       1.131  -0.298  -3.585  0.00  0.00    -0.317 N 
ATOM      4  C   UNL     1       0.651   0.644  -2.564  0.00  0.00    +0.094 C 
ATOM      5  C   UNL     1      -0.472   1.437  -3.178  0.00  0.00    +0.000 C 
ATOM      6  C   UNL     1      -0.670   1.036  -4.434  0.00  0.00    -0.028 C 
ATOM      7  C   UNL     1       0.307  -0.057  -4.777  0.00  0.00    +0.101 C 
ATOM      8  C   UNL     1      -0.452  -1.332  -5.150  0.00  0.00    +0.033 C 
ATOM      9  C   UNL     1       1.786   1.582  -2.148  0.00  0.00    +0.032 C 
BRANCH   3  12
ATOM     10  C   UNL     1       0.542  -2.784  -2.333  0.00  0.00    +0.047 C 
ATOM     11  C   UNL     1       1.921  -2.455  -2.846  0.00  0.00    -0.011 A 
ATOM     12  C   UNL     1       2.163  -1.228  -3.450  0.00  0.00    +0.035 A 
ATOM     13  C   UNL     1       3.435  -0.929  -3.921  0.00  0.00    +0.023 A 
ATOM     14  C   UNL     1       4.455  -1.852  -3.788  0.00  0.00    +0.003 A 
ATOM     15  C   UNL     1       4.211  -3.072  -3.186  0.00  0.00    +0.020 A 
ATOM     16  C   UNL     1       2.946  -3.372  -2.710  0.00  0.00    +0.046 A 
ATOM     17 CL   UNL     1       2.646  -4.902  -1.947  0.00  0.00    -0.083 Cl
ENDBRANCH   3  12
ENDBRANCH   1   6
BRANCH   2  18
ATOM     18  C   UNL     1      -3.994   2.091  -5.867  0.00  0.00    +0.254 C 
ATOM     19  O   UNL     1      -3.664   2.514  -6.958  0.00  0.00    -0.269 OA
ATOM     20  N   UNL     1      -5.292   2.099  -5.504  0.00  0.00    -0.310 N 
ATOM     21  H   UNL     1      -5.555   1.762  -4.634  0.00  0.00    +0.149 HD
BRANCH  20  22
ATOM     22  C   UNL     1      -6.306   2.618  -6.425  0.00  0.00    +0.109 C 
BRANCH  22  23
ATOM     23  C   UNL     1      -7.687   2.514  -5.775  0.00  0.00    +0.052 C 
BRANCH  23  24
ATOM     24  C   UNL     1      -8.730   3.048  -6.722  0.00  0.00    -0.040 C 
ATOM     25  C   UNL     1      -9.487   2.333  -7.585  0.00  0.00    -0.001 A 
ATOM     26  C   UNL     1      -9.563   0.899  -7.889  0.00  0.00    +0.010 A 
ATOM     27  C   UNL     1     -10.440   0.472  -8.825  0.00  0.00    +0.001 A 
ATOM     28  C   UNL     1     -11.277   1.363  -9.511  0.00  0.00    +0.002 A 
ATOM     29  C   UNL     1     -11.265   2.694  -9.287  0.00  0.00    +0.026 A 
ATOM     30  C   UNL     1     -10.382   3.253  -8.323  0.00  0.00    +0.043 A 
ATOM     31  N   UNL     1     -10.186   4.489  -7.932  0.00  0.00    -0.380 N 
ATOM     32  C   UNL     1      -9.147   4.492  -6.896  0.00  0.00    +0.144 C 
ATOM     33  H   UNL     1     -10.652   5.270  -8.268  0.00  0.00    +0.160 HD
ENDBRANCH  23  24
ENDBRANCH  22  23
ENDBRANCH  20  22
ENDBRANCH   2  18
BRANCH   2  34
ATOM     34  C   UNL     1      -3.363   1.071  -3.657  0.00  0.00    +0.104 C 
ATOM     35  N   UNL     1      -3.671   0.675  -2.637  0.00  0.00    -0.191 NA
ENDBRANCH   2  34
TORSDOF 7
