REMARK  Name = ZINC14541082
REMARK  12 active torsions:
REMARK  status: ('A' for Active; 'I' for Inactive)
REMARK    1  A    between atoms: C_1  and  C_2
REMARK    2  A    between atoms: C_2  and  C_34
REMARK    3  A    between atoms: C_3  and  C_4
REMARK    4  A    between atoms: C_4  and  N_5
REMARK    5  A    between atoms: C_9  and  C_12
REMARK    6  A    between atoms: C_16  and  C_18
REMARK    7  A    between atoms: C_18  and  C_20
REMARK    8  A    between atoms: C_24  and  C_25
REMARK    9  A    between atoms: C_24  and  N_67
REMARK   10  A    between atoms: C_26  and  O_33
REMARK   11  A    between atoms: C_30  and  O_31
REMARK   12  A    between atoms: O_31  and  C_32
REMARK                            x       y       z     vdW  Elec       q    Type
REMARK                         _______ _______ _______ _____ _____    ______ ____
ROOT
ATOM      1  N   UNL     1       7.000  -1.015   1.066  0.00  0.00    -0.308 N 
ATOM      2  C   UNL     1       7.965  -1.021   0.102  0.00  0.00    +0.022 A 
ATOM      3  C   UNL     1       7.680  -0.625  -1.158  0.00  0.00    -0.044 A 
ATOM      4  C   UNL     1       6.382  -0.195  -1.479  0.00  0.00    +0.017 A 
ATOM      5  C   UNL     1       5.404  -0.184  -0.500  0.00  0.00    +0.047 A 
ATOM      6  C   UNL     1       5.747  -0.607   0.807  0.00  0.00    +0.260 A 
ATOM      7  O   UNL     1       4.907  -0.606   1.692  0.00  0.00    -0.267 OA
ATOM      8  C   UNL     1       8.711  -0.634  -2.257  0.00  0.00    -0.041 C 
ATOM      9  C   UNL     1      10.160  -1.829  -0.751  0.00  0.00    -0.072 C 
ATOM     10  C   UNL     1       9.347  -1.481   0.495  0.00  0.00    +0.035 C 
ATOM     11  N   UNL     1      10.064  -0.686  -1.681  0.00  0.00    +0.386 N 
ATOM     12  H   UNL     1      10.244   0.183  -1.165  0.00  0.00    -0.081 HD
ENDROOT
BRANCH   5  13
ATOM     13  C   UNL     1       4.028   0.267  -0.812  0.00  0.00    -0.012 A 
ATOM     14  C   UNL     1       3.793   1.594  -1.178  0.00  0.00    +0.009 A 
ATOM     15  C   UNL     1       2.511   2.018  -1.469  0.00  0.00    +0.001 A 
ATOM     16  C   UNL     1       1.453   1.134  -1.406  0.00  0.00    +0.011 A 
ATOM     17  C   UNL     1       1.673  -0.198  -1.036  0.00  0.00    +0.018 A 
ATOM     18  C   UNL     1       2.967  -0.631  -0.741  0.00  0.00    +0.020 A 
BRANCH  17  19
ATOM     19  C   UNL     1       0.544  -1.140  -0.963  0.00  0.00    +0.160 C 
ATOM     20  O   UNL     1       0.738  -2.294  -0.647  0.00  0.00    -0.292 OA
ATOM     21  C   UNL     1      -0.850  -0.671  -1.288  0.00  0.00    +0.091 C 
ENDBRANCH  17  19
ENDBRANCH   5  13
BRANCH   1  22
ATOM     22  C   UNL     1       7.341  -1.458   2.420  0.00  0.00    +0.152 C 
BRANCH  22  25
ATOM     23  C   UNL     1       6.034  -0.781   4.826  0.00  0.00    +0.038 C 
ATOM     24  C   UNL     1       7.246  -0.004   4.380  0.00  0.00    -0.078 C 
ATOM     25  C   UNL     1       7.813  -0.278   3.231  0.00  0.00    -0.007 C 
ATOM     26  C   UNL     1       7.806   1.087   5.255  0.00  0.00    +0.038 C 
ENDBRANCH  22  25
ENDBRANCH   1  22
BRANCH  11  27
ATOM     27  C   UNL     1      11.069  -0.823  -2.760  0.00  0.00    -0.035 C 
BRANCH  27  28
ATOM     28  C   UNL     1      11.107   0.453  -3.561  0.00  0.00    +0.019 A 
ATOM     29  C   UNL     1      11.960   1.481  -3.189  0.00  0.00    +0.122 A 
ATOM     30  C   UNL     1      11.992   2.655  -3.928  0.00  0.00    +0.046 A 
ATOM     31  C   UNL     1      11.176   2.801  -5.033  0.00  0.00    +0.007 A 
ATOM     32  C   UNL     1      10.325   1.778  -5.405  0.00  0.00    +0.046 A 
ATOM     33  C   UNL     1      10.292   0.600  -4.673  0.00  0.00    +0.125 A 
BRANCH  33  34
ATOM     34  O   UNL     1       9.459  -0.408  -5.043  0.00  0.00    -0.495 OA
ATOM     35  C   UNL     1       8.649  -0.189  -6.200  0.00  0.00    +0.277 C 
ENDBRANCH  33  34
BRANCH  29  36
ATOM     36  O   UNL     1      12.763   1.339  -2.102  0.00  0.00    -0.506 OA
ATOM     37  H   UNL     1      13.629   0.957  -2.300  0.00  0.00    +0.292 HD
ENDBRANCH  29  36
ENDBRANCH  27  28
ENDBRANCH  11  27
TORSDOF 8
