REMARK  Name = ZINC19483481
REMARK  4 active torsions:
REMARK  status: ('A' for Active; 'I' for Inactive)
REMARK    1  A    between atoms: C_5  and  C_7
REMARK    2  A    between atoms: C_7  and  O_8
REMARK    3  A    between atoms: O_8  and  C_9
REMARK    4  A    between atoms: C_13  and  C_15
REMARK                            x       y       z     vdW  Elec       q    Type
REMARK                         _______ _______ _______ _____ _____    ______ ____
ROOT
ATOM      1  C   UNL     1      -0.194   1.208  -2.360  0.00  0.00    +0.122 A 
ATOM      2  C   UNL     1       0.949   0.422  -2.429  0.00  0.00    +0.046 A 
ATOM      3  C   UNL     1       1.471   0.061  -3.657  0.00  0.00    +0.004 A 
ATOM      4  C   UNL     1       0.859   0.479  -4.822  0.00  0.00    +0.011 A 
ATOM      5  C   UNL     1      -0.289   1.268  -4.761  0.00  0.00    +0.016 A 
ATOM      6  C   UNL     1      -0.818   1.628  -3.522  0.00  0.00    +0.057 A 
ENDROOT
BRANCH   5   7
ATOM      7  C   UNL     1      -0.948   1.718  -6.009  0.00  0.00    +0.094 C 
ATOM      8  N   UNL     1      -2.020   2.455  -5.949  0.00  0.00    -0.387 N 
ATOM      9  N   UNL     1      -0.427   1.357  -7.232  0.00  0.00    -0.345 N 
ATOM     10  H   UNL     1      -2.510   2.790  -6.876  0.00  0.00    +0.157 HD
ATOM     11  H   UNL     1      -0.916   1.692  -8.159  0.00  0.00    +0.144 HD
ATOM     12  H   UNL     1       0.479   0.735  -7.282  0.00  0.00    +0.144 HD
ATOM     13  H   UNL     1      -2.436   2.744  -4.973  0.00  0.00    +0.157 HD
ENDBRANCH   5   7
BRANCH   1  14
ATOM     14  O   UNL     1      -0.704   1.559  -1.150  0.00  0.00    -0.487 OA
BRANCH  14  15
ATOM     15  C   UNL     1      -0.013   1.086   0.008  0.00  0.00    +0.265 C 
BRANCH  15  20
ATOM     16  C   UNL     1      -2.500   2.799   2.273  0.00  0.00    +0.000 A 
ATOM     17  C   UNL     1      -2.012   2.465   3.523  0.00  0.00    +0.001 A 
ATOM     18  C   UNL     1      -0.877   1.684   3.636  0.00  0.00    +0.015 A 
ATOM     19  C   UNL     1      -0.229   1.238   2.498  0.00  0.00    +0.024 A 
ATOM     20  C   UNL     1      -0.718   1.572   1.248  0.00  0.00    +0.004 A 
ATOM     21  C   UNL     1      -1.851   2.357   1.136  0.00  0.00    +0.008 A 
ATOM     22 BR   UNL     1       1.324   0.170   2.651  0.00  0.00    -0.050 Br
ENDBRANCH  15  20
ENDBRANCH  14  15
ENDBRANCH   1  14
TORSDOF 4
