REMARK  Name = ZINC61881951
REMARK  7 active torsions:
REMARK  status: ('A' for Active; 'I' for Inactive)
REMARK    1  A    between atoms: C_1  and  C_2
REMARK    2  A    between atoms: C_2  and  N_3
REMARK    3  A    between atoms: C_6  and  C_9
REMARK    4  A    between atoms: C_9  and  N_10
REMARK    5  A    between atoms: N_10  and  S_11
REMARK    6  A    between atoms: S_11  and  C_14
REMARK    7  A    between atoms: C_18  and  N_21
REMARK                            x       y       z     vdW  Elec       q    Type
REMARK                         _______ _______ _______ _____ _____    ______ ____
ROOT
ATOM      1  S   UNL     1      -4.248  -5.442  -2.526  0.00  0.00    +0.060 S 
ATOM      2  O   UNL     1      -5.574  -5.529  -3.028  0.00  0.00    -0.153 OA
ATOM      3  O   UNL     1      -3.123  -5.257  -3.375  0.00  0.00    -0.153 OA
ENDROOT
BRANCH   1   4
ATOM      4  C   UNL     1      -3.954  -6.922  -1.617  0.00  0.00    +0.122 A 
ATOM      5  C   UNL     1      -2.810  -7.662  -1.853  0.00  0.00    +0.049 A 
ATOM      6  C   UNL     1      -2.576  -8.825  -1.141  0.00  0.00    +0.045 A 
ATOM      7  C   UNL     1      -3.486  -9.251  -0.191  0.00  0.00    +0.044 A 
ATOM      8  C   UNL     1      -4.636  -8.510   0.048  0.00  0.00    +0.042 A 
ATOM      9  C   UNL     1      -4.865  -7.340  -0.666  0.00  0.00    +0.065 A 
ATOM     10 BR   UNL     1      -6.426  -6.323  -0.339  0.00  0.00    -0.046 Br
ATOM     11 CL   UNL     1      -1.138  -9.751  -1.440  0.00  0.00    -0.083 Cl
BRANCH   8  12
ATOM     12  N   UNL     1      -5.558  -8.938   1.006  0.00  0.00    -0.357 N 
ATOM     13  H   UNL     1      -5.395  -9.754   1.506  0.00  0.00    +0.142 HD
ATOM     14  H   UNL     1      -6.361  -8.420   1.172  0.00  0.00    +0.142 HD
ENDBRANCH   8  12
ENDBRANCH   1   4
BRANCH   1  15
ATOM     15  N   UNL     1      -4.234  -4.190  -1.442  0.00  0.00    -0.190 NA
ATOM     16  H   UNL     1      -5.040  -3.674  -1.286  0.00  0.00    +0.148 HD
BRANCH  15  17
ATOM     17  C   UNL     1      -3.003  -3.863  -0.718  0.00  0.00    +0.107 C 
BRANCH  17  21
ATOM     18  N   UNL     1      -1.877  -0.606   0.683  0.00  0.00    +0.380 N 
ATOM     19  C   UNL     1      -2.368  -0.212  -0.655  0.00  0.00    -0.079 C 
ATOM     20  C   UNL     1      -3.207  -1.385  -1.193  0.00  0.00    -0.016 C 
ATOM     21  C   UNL     1      -3.133  -2.471  -0.095  0.00  0.00    -0.014 C 
ATOM     22  C   UNL     1      -1.847  -2.091   0.682  0.00  0.00    -0.074 C 
ATOM     23  H   UNL     1      -2.506  -0.272   1.398  0.00  0.00    -0.082 HD
BRANCH  18  25
ATOM     24  C   UNL     1      -0.594   1.451   1.028  0.00  0.00    -0.017 C 
ATOM     25  C   UNL     1      -0.526  -0.073   0.905  0.00  0.00    -0.082 C 
ENDBRANCH  18  25
ENDBRANCH  17  21
ENDBRANCH  15  17
ENDBRANCH   1  15
TORSDOF 6
