REMARK  Name = ZINC35355823
REMARK  5 active torsions:
REMARK  status: ('A' for Active; 'I' for Inactive)
REMARK    1  A    between atoms: C_1  and  C_2
REMARK    2  A    between atoms: C_7  and  N_12
REMARK    3  A    between atoms: C_9  and  C_11
REMARK    4  A    between atoms: N_12  and  C_13
REMARK    5  A    between atoms: C_18  and  N_19
REMARK                            x       y       z     vdW  Elec       q    Type
REMARK                         _______ _______ _______ _____ _____    ______ ____
ROOT
ATOM      1  C   UNL     1       0.630   0.192   4.898  0.00  0.00    +0.050 A 
ATOM      2  C   UNL     1      -0.149   1.337   4.977  0.00  0.00    +0.048 A 
ATOM      3  C   UNL     1      -0.251   2.023   6.179  0.00  0.00    +0.038 A 
ATOM      4  C   UNL     1       0.425   1.565   7.301  0.00  0.00    -0.024 A 
ATOM      5  C   UNL     1       1.202   0.424   7.225  0.00  0.00    +0.030 A 
ATOM      6  C   UNL     1       1.304  -0.269   6.029  0.00  0.00    +0.046 A 
ATOM      7  C   UNL     1       0.309   2.313   8.604  0.00  0.00    +0.046 C 
ATOM      8  C   UNL     1       0.185   3.811   8.323  0.00  0.00    +0.101 C 
ATOM      9  C   UNL     1      -0.865   4.051   7.272  0.00  0.00    +0.218 C 
ATOM     10  O   UNL     1      -1.563   5.040   7.337  0.00  0.00    -0.275 OA
ATOM     11  N   UNL     1      -1.037   3.180   6.261  0.00  0.00    -0.285 N 
ATOM     12  H   UNL     1      -1.711   3.354   5.585  0.00  0.00    +0.155 HD
ENDROOT
BRANCH   6  13
ATOM     13  N   UNL     1       2.088  -1.429   5.954  0.00  0.00    -0.357 N 
ATOM     14  H   UNL     1       2.161  -1.911   5.116  0.00  0.00    +0.142 HD
ATOM     15  H   UNL     1       2.556  -1.749   6.740  0.00  0.00    +0.142 HD
ENDBRANCH   6  13
BRANCH   1  16
ATOM     16  N   UNL     1       0.735  -0.503   3.687  0.00  0.00    -0.339 N 
ATOM     17  H   UNL     1       1.276  -1.306   3.634  0.00  0.00    +0.146 HD
BRANCH  16  23
ATOM     18  C   UNL     1      -0.019   1.526   0.010  0.00  0.00    +0.008 C 
ATOM     19  C   UNL     1       0.002  -0.004   0.002  0.00  0.00    -0.009 C 
ATOM     20  C   UNL     1      -1.433  -0.534   0.013  0.00  0.00    +0.003 C 
ATOM     21  C   UNL     1      -2.149  -0.040   1.272  0.00  0.00    +0.002 C 
ATOM     22  C   UNL     1      -1.409  -0.547   2.511  0.00  0.00    +0.022 C 
ATOM     23  C   UNL     1       0.026  -0.018   2.500  0.00  0.00    +0.074 C 
ATOM     24  C   UNL     1       0.742  -0.511   1.242  0.00  0.00    +0.009 C 
ATOM     25  C   UNL     1       2.178   0.019   1.231  0.00  0.00    +0.009 C 
ENDBRANCH  16  23
ENDBRANCH   1  16
TORSDOF 3
