REMARK  Name = ZINC39672054
REMARK  4 active torsions:
REMARK  status: ('A' for Active; 'I' for Inactive)
REMARK    1  A    between atoms: C_6  and  C_10
REMARK    2  A    between atoms: C_10  and  N_11
REMARK    3  A    between atoms: C_12  and  C_14
REMARK    4  A    between atoms: C_25  and  C_27
REMARK                            x       y       z     vdW  Elec       q    Type
REMARK                         _______ _______ _______ _____ _____    ______ ____
ROOT
ATOM      1  C   UNL     1       5.511  -5.035   2.495  0.00  0.00    +0.100 C 
ATOM      2  C   UNL     1       6.020  -4.239   3.718  0.00  0.00    +0.121 C 
ATOM      3  N   UNL     1       6.718  -5.244   4.554  0.00  0.00    -0.296 N 
ATOM      4  C   UNL     1       7.427  -6.107   3.579  0.00  0.00    +0.115 C 
ATOM      5  C   UNL     1       6.438  -6.259   2.407  0.00  0.00    -0.004 C 
ATOM      6  C   UNL     1       7.190  -6.259   1.079  0.00  0.00    -0.010 C 
ATOM      7  C   UNL     1       8.060  -7.516   0.990  0.00  0.00    -0.082 C 
ATOM      8  N   UNL     1       7.211  -8.709   1.095  0.00  0.00    +0.379 N 
ATOM      9  C   UNL     1       6.564  -8.749   2.412  0.00  0.00    -0.082 C 
ATOM     10  C   UNL     1       5.631  -7.545   2.561  0.00  0.00    -0.010 C 
ATOM     11  C   UNL     1       6.709  -5.350   5.898  0.00  0.00    +0.248 C 
ATOM     12  O   UNL     1       5.976  -4.640   6.559  0.00  0.00    -0.270 OA
ATOM     13  H   UNL     1       6.505  -8.682   0.375  0.00  0.00    -0.086 HD
ATOM     14  H   UNL     1       7.778  -9.535   0.975  0.00  0.00    -0.086 HD
ENDROOT
BRANCH  11  15
ATOM     15  C   UNL     1       7.590  -6.327   6.566  0.00  0.00    +0.055 A 
ATOM     16  C   UNL     1       8.711  -6.847   5.901  0.00  0.00    +0.018 A 
ATOM     17  C   UNL     1       9.500  -7.750   6.560  0.00  0.00    +0.044 A 
ATOM     18  C   UNL     1       9.171  -8.125   7.861  0.00  0.00    +0.121 A 
ATOM     19  N   UNL     1       8.106  -7.618   8.467  0.00  0.00    -0.240 NA
ATOM     20  C   UNL     1       7.324  -6.742   7.872  0.00  0.00    +0.126 A 
ATOM     21  N   UNL     1       9.967  -9.039   8.531  0.00  0.00    -0.311 N 
ATOM     22  C   UNL     1       9.764  -9.315   9.962  0.00  0.00    +0.134 C 
ATOM     23  C   UNL     1       9.671 -10.834  10.152  0.00  0.00    +0.178 C 
ATOM     24  O   UNL     1      10.805 -11.454   9.540  0.00  0.00    -0.377 OA
ATOM     25  C   UNL     1      10.887 -11.259   8.127  0.00  0.00    +0.178 C 
ATOM     26  C   UNL     1      11.037  -9.766   7.831  0.00  0.00    +0.134 C 
ENDBRANCH  11  15
BRANCH   1  28
ATOM     27  N   UNL     1       4.734  -4.366   0.244  0.00  0.00    -0.309 N 
ATOM     28  C   UNL     1       5.622  -4.202   1.244  0.00  0.00    +0.219 C 
ATOM     29  O   UNL     1       6.511  -3.384   1.137  0.00  0.00    -0.275 OA
ATOM     30  H   UNL     1       4.023  -5.021   0.330  0.00  0.00    +0.149 HD
BRANCH  27  31
ATOM     31  C   UNL     1       4.841  -3.557  -0.972  0.00  0.00    +0.161 C 
BRANCH  31  37
ATOM     32  C   UNL     1       0.910  -5.613  -5.005  0.00  0.00    +0.005 A 
ATOM     33  C   UNL     1       0.122  -4.559  -4.513  0.00  0.00    +0.018 A 
ATOM     34  C   UNL     1       0.592  -3.756  -3.536  0.00  0.00    +0.092 A 
ATOM     35  N   UNL     1       1.837  -3.954  -3.012  0.00  0.00    -0.306 N 
ATOM     36  C   UNL     1       2.545  -3.305  -2.038  0.00  0.00    +0.117 A 
ATOM     37  C   UNL     1       3.736  -3.933  -1.926  0.00  0.00    +0.077 A 
ATOM     38  N   UNL     1       3.771  -4.941  -2.800  0.00  0.00    -0.231 NA
ATOM     39  C   UNL     1       2.629  -4.974  -3.471  0.00  0.00    +0.138 A 
ATOM     40  C   UNL     1       2.152  -5.822  -4.491  0.00  0.00    +0.047 A 
ENDBRANCH  31  37
ENDBRANCH  27  31
ENDBRANCH   1  28
TORSDOF 4
