REMARK  Name = ZINC19892340
REMARK  17 active torsions:
REMARK  status: ('A' for Active; 'I' for Inactive)
REMARK    1  A    between atoms: C_1  and  C_2
REMARK    2  A    between atoms: C_2  and  C_3
REMARK    3  A    between atoms: C_3  and  C_5
REMARK    4  A    between atoms: C_3  and  O_6
REMARK    5  A    between atoms: O_6  and  C_7
REMARK    6  A    between atoms: C_7  and  C_9
REMARK    7  A    between atoms: C_10  and  C_42
REMARK    8  A    between atoms: C_14  and  C_16
REMARK    9  A    between atoms: C_20  and  O_24
REMARK   10  A    between atoms: C_21  and  O_22
REMARK   11  A    between atoms: O_22  and  C_23
REMARK   12  A    between atoms: O_24  and  C_25
REMARK   13  A    between atoms: C_29  and  C_32
REMARK   14  A    between atoms: C_35  and  O_40
REMARK   15  A    between atoms: C_36  and  O_38
REMARK   16  A    between atoms: O_38  and  C_39
REMARK   17  A    between atoms: O_40  and  C_41
REMARK                            x       y       z     vdW  Elec       q    Type
REMARK                         _______ _______ _______ _____ _____    ______ ____
ROOT
ATOM      1  C   UNL     1       4.163  -0.224  -1.722  0.00  0.00    +0.065 C 
ATOM      2  C   UNL     1       5.152   0.634  -1.420  0.00  0.00    +0.016 C 
ATOM      3  N   UNL     1       5.541   0.815  -0.122  0.00  0.00    -0.321 N 
ATOM      4  C   UNL     1       5.241  -0.121   0.832  0.00  0.00    +0.016 C 
ATOM      5  C   UNL     1       4.250  -1.013   0.627  0.00  0.00    +0.024 C 
ATOM      6  C   UNL     1       3.451  -0.999  -0.652  0.00  0.00    +0.096 C 
ATOM      7  C   UNL     1       3.931  -1.978   1.599  0.00  0.00    +0.162 C 
ATOM      8  O   UNL     1       3.042  -2.777   1.377  0.00  0.00    -0.292 OA
ATOM      9  C   UNL     1       4.670  -2.039   2.908  0.00  0.00    +0.088 C 
ATOM     10  C   UNL     1       5.175  -0.636   3.260  0.00  0.00    +0.032 C 
ATOM     11  C   UNL     1       6.046  -0.130   2.108  0.00  0.00    +0.059 C 
ATOM     12  C   UNL     1       5.838   1.403  -2.521  0.00  0.00    +0.061 C 
ATOM     13  H   UNL     1       6.101   1.717   0.164  0.00  0.00    +0.152 HD
ENDROOT
BRANCH   6  14
ATOM     14  C   UNL     1       2.110  -0.365  -0.391  0.00  0.00    +0.010 A 
ATOM     15  C   UNL     1       0.973  -1.150  -0.336  0.00  0.00    +0.008 A 
ATOM     16  C   UNL     1      -0.260  -0.572  -0.096  0.00  0.00    +0.004 A 
ATOM     17  C   UNL     1      -0.361   0.794   0.090  0.00  0.00    +0.049 A 
ATOM     18  C   UNL     1       0.774   1.587   0.036  0.00  0.00    +0.162 A 
ATOM     19  C   UNL     1       2.015   1.005  -0.206  0.00  0.00    +0.166 A 
BRANCH  19  20
ATOM     20  O   UNL     1       3.132   1.778  -0.259  0.00  0.00    -0.491 OA
ATOM     21  C   UNL     1       3.642   2.267   0.983  0.00  0.00    +0.277 C 
ENDBRANCH  19  20
BRANCH  18  22
ATOM     22  O   UNL     1       0.676   2.931   0.219  0.00  0.00    -0.491 OA
ATOM     23  C   UNL     1      -0.630   3.459   0.463  0.00  0.00    +0.277 C 
ENDBRANCH  18  22
ENDBRANCH   6  14
BRANCH  10  24
ATOM     24  C   UNL     1       5.992  -0.691   4.526  0.00  0.00    -0.040 A 
ATOM     25  C   UNL     1       7.119  -1.489   4.585  0.00  0.00    +0.008 A 
ATOM     26  C   UNL     1       7.872  -1.542   5.744  0.00  0.00    +0.049 A 
ATOM     27  C   UNL     1       7.497  -0.795   6.848  0.00  0.00    +0.161 A 
ATOM     28  C   UNL     1       6.362   0.009   6.788  0.00  0.00    +0.162 A 
ATOM     29  C   UNL     1       5.615   0.062   5.622  0.00  0.00    +0.053 A 
BRANCH  28  30
ATOM     30  O   UNL     1       5.990   0.745   7.870  0.00  0.00    -0.491 OA
ATOM     31  C   UNL     1       4.815   1.547   7.736  0.00  0.00    +0.277 C 
ENDBRANCH  28  30
BRANCH  27  32
ATOM     32  O   UNL     1       8.236  -0.846   7.989  0.00  0.00    -0.491 OA
ATOM     33  C   UNL     1       9.388  -1.692   7.978  0.00  0.00    +0.277 C 
ENDBRANCH  27  32
ENDBRANCH  10  24
BRANCH   1  34
ATOM     34  C   UNL     1       3.784  -0.399  -3.073  0.00  0.00    +0.338 C 
ATOM     35  O   UNL     1       4.309   0.270  -3.944  0.00  0.00    -0.245 OA
BRANCH  34  36
ATOM     36  O   UNL     1       2.841  -1.308  -3.398  0.00  0.00    -0.458 OA
BRANCH  36  37
ATOM     37  C   UNL     1       2.589  -1.514  -4.789  0.00  0.00    +0.173 C 
ATOM     38  C   UNL     1       1.564  -0.489  -5.278  0.00  0.00    +0.052 C 
BRANCH  37  40
ATOM     39  C   UNL     1       3.123  -3.951  -4.655  0.00  0.00    +0.007 C 
ATOM     40  C   UNL     1       2.042  -2.926  -5.005  0.00  0.00    +0.041 C 
ENDBRANCH  37  40
ENDBRANCH  36  37
ENDBRANCH  34  36
ENDBRANCH   1  34
TORSDOF 10
