REMARK  Name = ZINC16525801
REMARK  6 active torsions:
REMARK  status: ('A' for Active; 'I' for Inactive)
REMARK    1  A    between atoms: C_9  and  O_32
REMARK    2  A    between atoms: C_10  and  C_11
REMARK    3  A    between atoms: N_12  and  N_13
REMARK    4  A    between atoms: N_18  and  N_19
REMARK    5  A    between atoms: C_20  and  C_21
REMARK    6  A    between atoms: C_30  and  O_31
REMARK                            x       y       z     vdW  Elec       q    Type
REMARK                         _______ _______ _______ _____ _____    ______ ____
ROOT
ATOM      1  N   UNL     1      -2.527   8.116  -0.823  0.00  0.00    -0.204 N 
ATOM      2  C   UNL     1      -2.447   9.450  -0.462  0.00  0.00    +0.257 A 
ATOM      3  N   UNL     1      -1.363  10.193  -0.452  0.00  0.00    -0.110 NA
ATOM      4  N   UNL     1      -1.653  11.383  -0.064  0.00  0.00    -0.134 NA
ATOM      5  C   UNL     1      -2.928  11.473   0.195  0.00  0.00    +0.250 A 
ATOM      6  N   UNL     1      -3.482  10.247  -0.054  0.00  0.00    -0.186 N 
ATOM      7  H   UNL     1      -3.382   7.657  -0.796  0.00  0.00    +0.177 HD
ENDROOT
BRANCH   1   9
ATOM      8  C   UNL     1      -1.451   6.176  -1.567  0.00  0.00    +0.142 C 
ATOM      9  N   UNL     1      -1.375   7.429  -1.228  0.00  0.00    -0.187 NA
BRANCH   8  19
ATOM     10  C   UNL     1      -0.371   1.378  -3.116  0.00  0.00    +0.001 A 
ATOM     11  C   UNL     1      -1.538   2.028  -2.724  0.00  0.00    +0.001 A 
ATOM     12  C   UNL     1      -1.518   3.340  -2.353  0.00  0.00    +0.009 A 
ATOM     13  C   UNL     1      -0.309   4.047  -2.375  0.00  0.00    -0.006 A 
ATOM     14  C   UNL     1       0.879   3.389  -2.778  0.00  0.00    -0.017 A 
ATOM     15  C   UNL     1       0.821   2.035  -3.149  0.00  0.00    +0.008 A 
ATOM     16  C   UNL     1       2.091   4.101  -2.800  0.00  0.00    +0.012 A 
ATOM     17  C   UNL     1       2.135   5.411  -2.439  0.00  0.00    +0.046 A 
ATOM     18  C   UNL     1       0.993   6.101  -2.036  0.00  0.00    +0.126 A 
ATOM     19  C   UNL     1      -0.243   5.455  -1.991  0.00  0.00    +0.044 A 
BRANCH  18  20
ATOM     20  O   UNL     1       1.084   7.409  -1.683  0.00  0.00    -0.506 OA
ATOM     21  H   UNL     1       1.264   7.552  -0.744  0.00  0.00    +0.292 HD
ENDBRANCH  18  20
ENDBRANCH   8  19
ENDBRANCH   1   9
BRANCH   6  22
ATOM     22  N   UNL     1      -4.828   9.882   0.083  0.00  0.00    -0.170 NA
ATOM     23  C   UNL     1      -5.758  10.617  -0.451  0.00  0.00    +0.145 C 
BRANCH  23  24
ATOM     24  C   UNL     1      -5.395  11.750  -1.313  0.00  0.00    +0.044 A 
ATOM     25  C   UNL     1      -5.874  13.099  -1.015  0.00  0.00    -0.006 A 
ATOM     26  C   UNL     1      -6.690  13.356   0.094  0.00  0.00    +0.009 A 
ATOM     27  C   UNL     1      -7.115  14.628   0.337  0.00  0.00    +0.001 A 
ATOM     28  C   UNL     1      -6.750  15.677  -0.504  0.00  0.00    +0.001 A 
ATOM     29  C   UNL     1      -5.958  15.462  -1.591  0.00  0.00    +0.008 A 
ATOM     30  C   UNL     1      -5.501  14.163  -1.872  0.00  0.00    -0.017 A 
ATOM     31  C   UNL     1      -4.681  13.902  -2.984  0.00  0.00    +0.012 A 
ATOM     32  C   UNL     1      -4.244  12.643  -3.246  0.00  0.00    +0.046 A 
ATOM     33  C   UNL     1      -4.581  11.564  -2.430  0.00  0.00    +0.126 A 
BRANCH  33  34
ATOM     34  O   UNL     1      -4.116  10.323  -2.726  0.00  0.00    -0.506 OA
ATOM     35  H   UNL     1      -4.706   9.808  -3.293  0.00  0.00    +0.292 HD
ENDBRANCH  33  34
ENDBRANCH  23  24
ENDBRANCH   6  22
TORSDOF 6
