REMARK  Name = ZINC05219735
REMARK  8 active torsions:
REMARK  status: ('A' for Active; 'I' for Inactive)
REMARK    1  A    between atoms: C_1  and  C_2
REMARK    2  A    between atoms: C_5  and  C_8
REMARK    3  A    between atoms: C_8  and  N_9
REMARK    4  A    between atoms: C_13  and  N_25
REMARK    5  A    between atoms: C_14  and  N_16
REMARK    6  A    between atoms: N_16  and  C_17
REMARK    7  A    between atoms: C_20  and  C_24
REMARK    8  A    between atoms: C_21  and  C_23
REMARK                            x       y       z     vdW  Elec       q    Type
REMARK                         _______ _______ _______ _____ _____    ______ ____
ROOT
ATOM      1  N   UNL     1      -4.685  -0.051   0.250  0.00  0.00    -0.309 N 
ATOM      2  C   UNL     1      -3.490  -0.748   0.238  0.00  0.00    +0.219 A 
ATOM      3  N   UNL     1      -3.513  -2.069   0.333  0.00  0.00    -0.197 NA
ATOM      4  C   UNL     1      -2.383  -2.773   0.323  0.00  0.00    +0.154 A 
ATOM      5  C   UNL     1      -1.168  -2.102   0.212  0.00  0.00    +0.205 A 
ATOM      6  C   UNL     1      -1.184  -0.715   0.114  0.00  0.00    +0.160 A 
ATOM      7  N   UNL     1      -2.353  -0.077   0.136  0.00  0.00    -0.197 NA
ATOM      8  N   UNL     1      -2.416  -4.155   0.424  0.00  0.00    -0.341 N 
ATOM      9  H   UNL     1      -4.683   0.917   0.182  0.00  0.00    +0.149 HD
ATOM     10  H   UNL     1      -1.589  -4.662   0.416  0.00  0.00    +0.144 HD
ATOM     11  H   UNL     1      -3.266  -4.616   0.501  0.00  0.00    +0.144 HD
ENDROOT
BRANCH   5  12
ATOM     12  N   UNL     1       0.110  -2.848   0.197  0.00  0.00    +0.063 N 
ATOM     13  O   UNL     1       0.692  -3.081   1.242  0.00  0.00    -0.126 OA
ATOM     14  O   UNL     1       0.581  -3.230  -0.860  0.00  0.00    -0.126 OA
ENDBRANCH   5  12
BRANCH   6  15
ATOM     15  N   UNL     1       0.002  -0.004   0.002  0.00  0.00    -0.297 N 
ATOM     16  H   UNL     1       0.852  -0.465   0.075  0.00  0.00    +0.154 HD
BRANCH  15  17
ATOM     17  C   UNL     1      -0.028   1.376  -0.217  0.00  0.00    +0.033 A 
ATOM     18  C   UNL     1      -1.025   1.934  -1.007  0.00  0.00    +0.023 A 
ATOM     19  C   UNL     1      -1.055   3.299  -1.216  0.00  0.00    +0.005 A 
ATOM     20  C   UNL     1      -0.087   4.109  -0.649  0.00  0.00    -0.047 A 
ATOM     21  C   UNL     1       0.910   3.556   0.132  0.00  0.00    -0.046 A 
ATOM     22  C   UNL     1       0.943   2.192   0.350  0.00  0.00    +0.027 A 
ATOM     23  C   UNL     1       1.962   4.442   0.748  0.00  0.00    +0.044 C 
ATOM     24  C   UNL     1      -0.120   5.597  -0.885  0.00  0.00    +0.044 C 
ENDBRANCH  15  17
ENDBRANCH   6  15
BRANCH   1  25
ATOM     25  C   UNL     1      -5.954  -0.774   0.368  0.00  0.00    +0.139 C 
BRANCH  25  30
ATOM     26  C   UNL     1     -10.332   2.997   0.328  0.00  0.00    +0.044 C 
ATOM     27  C   UNL     1      -9.190   2.014   0.339  0.00  0.00    -0.050 A 
ATOM     28  C   UNL     1      -8.728   1.478  -0.849  0.00  0.00    +0.003 A 
ATOM     29  C   UNL     1      -7.681   0.576  -0.840  0.00  0.00    +0.005 A 
ATOM     30  C   UNL     1      -7.095   0.210   0.357  0.00  0.00    -0.030 A 
ATOM     31  C   UNL     1      -7.561   0.741   1.546  0.00  0.00    +0.005 A 
ATOM     32  C   UNL     1      -8.605   1.647   1.536  0.00  0.00    +0.003 A 
ENDBRANCH  25  30
ENDBRANCH   1  25
TORSDOF 5
