REMARK  Name = ZINC59385831
REMARK  8 active torsions:
REMARK  status: ('A' for Active; 'I' for Inactive)
REMARK    1  A    between atoms: C_1  and  C_2
REMARK    2  A    between atoms: C_3  and  C_17
REMARK    3  A    between atoms: C_4  and  C_10
REMARK    4  A    between atoms: C_15  and  O_16
REMARK    5  A    between atoms: N_19  and  N_20
REMARK    6  A    between atoms: C_21  and  C_22
REMARK    7  A    between atoms: C_25  and  O_28
REMARK    8  A    between atoms: O_28  and  C_29
REMARK                            x       y       z     vdW  Elec       q    Type
REMARK                         _______ _______ _______ _____ _____    ______ ____
ROOT
ATOM      1  C   UNL     1      -0.399   1.583  -0.303  0.00  0.00    +0.061 C 
ATOM      2  C   UNL     1      -0.228   0.094  -0.153  0.00  0.00    +0.019 C 
ATOM      3  C   UNL     1      -1.318  -0.701  -0.134  0.00  0.00    +0.057 C 
ATOM      4  C   UNL     1      -1.101  -2.193   0.018  0.00  0.00    +0.145 C 
ATOM      5  N   UNL     1       0.292  -2.656   0.134  0.00  0.00    -0.288 N 
ATOM      6  C   UNL     1       1.278  -1.739   0.098  0.00  0.00    +0.304 C 
ATOM      7  O   UNL     1       2.432  -2.111   0.193  0.00  0.00    -0.252 OA
ATOM      8  N   UNL     1       1.030  -0.431  -0.044  0.00  0.00    -0.273 N 
ATOM      9  H   UNL     1       0.495  -3.600   0.234  0.00  0.00    +0.151 HD
ATOM     10  H   UNL     1       1.784   0.179  -0.066  0.00  0.00    +0.156 HD
ENDROOT
BRANCH   4  11
ATOM     11  C   UNL     1      -1.845  -2.648   1.248  0.00  0.00    +0.019 A 
ATOM     12  C   UNL     1      -2.236  -1.726   2.199  0.00  0.00    +0.009 A 
ATOM     13  C   UNL     1      -2.917  -2.142   3.328  0.00  0.00    +0.001 A 
ATOM     14  C   UNL     1      -3.210  -3.482   3.507  0.00  0.00    +0.004 A 
ATOM     15  C   UNL     1      -2.821  -4.407   2.558  0.00  0.00    +0.046 A 
ATOM     16  C   UNL     1      -2.142  -3.991   1.422  0.00  0.00    +0.122 A 
BRANCH  16  17
ATOM     17  O   UNL     1      -1.763  -4.899   0.484  0.00  0.00    -0.506 OA
ATOM     18  H   UNL     1      -0.886  -5.277   0.634  0.00  0.00    +0.292 HD
ENDBRANCH  16  17
ENDBRANCH   4  11
BRANCH   3  19
ATOM     19  C   UNL     1      -2.622  -0.160  -0.252  0.00  0.00    +0.263 C 
ATOM     20  O   UNL     1      -2.780   1.048  -0.265  0.00  0.00    -0.269 OA
ATOM     21  N   UNL     1      -3.686  -0.980  -0.351  0.00  0.00    -0.203 N 
ATOM     22  H   UNL     1      -3.568  -1.939  -0.269  0.00  0.00    +0.178 HD
BRANCH  21  23
ATOM     23  N   UNL     1      -4.963  -0.448  -0.571  0.00  0.00    -0.187 NA
ATOM     24  C   UNL     1      -5.988  -1.238  -0.666  0.00  0.00    +0.138 C 
BRANCH  24  25
ATOM     25  C   UNL     1      -7.332  -0.678  -0.898  0.00  0.00    -0.005 A 
ATOM     26  C   UNL     1      -7.504   0.704  -1.022  0.00  0.00    +0.013 A 
ATOM     27  C   UNL     1      -8.761   1.223  -1.239  0.00  0.00    +0.046 A 
ATOM     28  C   UNL     1      -9.858   0.376  -1.335  0.00  0.00    +0.120 A 
ATOM     29  C   UNL     1      -9.692  -0.998  -1.212  0.00  0.00    +0.046 A 
ATOM     30  C   UNL     1      -8.437  -1.527  -1.000  0.00  0.00    +0.013 A 
BRANCH  28  31
ATOM     31  O   UNL     1     -11.096   0.892  -1.548  0.00  0.00    -0.495 OA
ATOM     32  C   UNL     1     -12.180  -0.036  -1.636  0.00  0.00    +0.277 C 
ENDBRANCH  28  31
ENDBRANCH  24  25
ENDBRANCH  21  23
ENDBRANCH   3  19
TORSDOF 6
