REMARK  Name = ZINC21323582
REMARK  8 active torsions:
REMARK  status: ('A' for Active; 'I' for Inactive)
REMARK    1  A    between atoms: C_1  and  C_2
REMARK    2  A    between atoms: C_2  and  C_24
REMARK    3  A    between atoms: N_3  and  N_4
REMARK    4  A    between atoms: C_8  and  S_11
REMARK    5  A    between atoms: N_9  and  N_10
REMARK    6  A    between atoms: S_11  and  C_12
REMARK    7  A    between atoms: C_12  and  C_13
REMARK    8  A    between atoms: N_15  and  C_16
REMARK                            x       y       z     vdW  Elec       q    Type
REMARK                         _______ _______ _______ _____ _____    ______ ____
ROOT
ATOM      1  N   UNL     1       6.013   6.032  -0.088  0.00  0.00    -0.204 N 
ATOM      2  C   UNL     1       5.992   7.419  -0.070  0.00  0.00    +0.254 A 
ATOM      3  N   UNL     1       4.921   8.174  -0.054  0.00  0.00    -0.109 NA
ATOM      4  N   UNL     1       5.334   9.513  -0.040  0.00  0.00    -0.119 NA
ATOM      5  C   UNL     1       6.646   9.532  -0.049  0.00  0.00    +0.210 A 
ATOM      6  N   UNL     1       7.087   8.239  -0.062  0.00  0.00    -0.211 N 
ATOM      7  H   UNL     1       6.973   5.496  -0.101  0.00  0.00    +0.178 HD
ENDROOT
BRANCH   1  10
ATOM      8  C   UNL     1       6.145   3.281  -0.123  0.00  0.00    +0.068 C 
ATOM      9  C   UNL     1       4.829   4.015  -0.105  0.00  0.00    +0.063 C 
ATOM     10  N   UNL     1       4.810   5.314  -0.089  0.00  0.00    -0.184 NA
BRANCH   9  11
ATOM     11  C   UNL     1       3.564   3.260  -0.107  0.00  0.00    -0.002 A 
ATOM     12  C   UNL     1       3.591   1.852  -0.125  0.00  0.00    +0.010 A 
ATOM     13  C   UNL     1       2.439   1.135  -0.127  0.00  0.00    +0.009 A 
ATOM     14  C   UNL     1       1.197   1.796  -0.111  0.00  0.00    -0.018 A 
ATOM     15  C   UNL     1      -0.008   1.074  -0.112  0.00  0.00    +0.008 A 
ATOM     16  C   UNL     1      -1.195   1.741  -0.102  0.00  0.00    +0.001 A 
ATOM     17  C   UNL     1      -1.236   3.134  -0.078  0.00  0.00    +0.001 A 
ATOM     18  C   UNL     1      -0.089   3.868  -0.076  0.00  0.00    +0.008 A 
ATOM     19  C   UNL     1       1.156   3.214  -0.092  0.00  0.00    -0.017 A 
ATOM     20  C   UNL     1       2.356   3.940  -0.091  0.00  0.00    +0.018 A 
ENDBRANCH   9  11
ENDBRANCH   1  10
BRANCH   6  21
ATOM     21  N   UNL     1       8.392   7.836  -0.069  0.00  0.00    -0.294 N 
ATOM     22  H   UNL     1       9.198   8.584  -0.060  0.00  0.00    +0.163 HD
ATOM     23  H   UNL     1       8.636   6.764  -0.082  0.00  0.00    +0.163 HD
ENDBRANCH   6  21
BRANCH   5  24
ATOM     24  S   UNL     1       7.660  10.972  -0.038  0.00  0.00    -0.075 S 
BRANCH  24  25
ATOM     25  C   UNL     1       6.474  12.344  -0.013  0.00  0.00    +0.173 C 
BRANCH  25  26
ATOM     26  C   UNL     1       7.221  13.653  -0.003  0.00  0.00    +0.228 C 
ATOM     27  O   UNL     1       8.434  13.660  -0.011  0.00  0.00    -0.275 OA
ATOM     28  N   UNL     1       6.541  14.817   0.016  0.00  0.00    -0.284 N 
ATOM     29  H   UNL     1       5.443  14.813  -0.050  0.00  0.00    +0.155 HD
BRANCH  28  30
ATOM     30  C   UNL     1       7.232  16.030   0.121  0.00  0.00    +0.053 A 
ATOM     31  C   UNL     1       8.473  16.177  -0.482  0.00  0.00    +0.044 A 
ATOM     32  C   UNL     1       9.151  17.378  -0.381  0.00  0.00    +0.043 A 
ATOM     33  C   UNL     1       8.597  18.429   0.329  0.00  0.00    +0.021 A 
ATOM     34  C   UNL     1       7.363  18.283   0.935  0.00  0.00    +0.023 A 
ATOM     35  C   UNL     1       6.678  17.087   0.834  0.00  0.00    +0.062 A 
ATOM     36 CL   UNL     1       5.129  16.905   1.595  0.00  0.00    -0.082 Cl
ATOM     37 CL   UNL     1      10.701  17.566  -1.141  0.00  0.00    -0.083 Cl
ENDBRANCH  28  30
ENDBRANCH  25  26
ENDBRANCH  24  25
ENDBRANCH   5  24
TORSDOF 7
