REMARK  Name = ZINC39931185
REMARK  9 active torsions:
REMARK  status: ('A' for Active; 'I' for Inactive)
REMARK    1  A    between atoms: C_1  and  C_2
REMARK    2  A    between atoms: C_2  and  C_4
REMARK    3  A    between atoms: C_2  and  N_16
REMARK    4  A    between atoms: C_4  and  C_5
REMARK    5  A    between atoms: N_16  and  C_17
REMARK    6  A    between atoms: C_17  and  C_18
REMARK    7  A    between atoms: C_18  and  C_20
REMARK    8  A    between atoms: C_18  and  O_27
REMARK    9  A    between atoms: C_23  and  O_26
REMARK                            x       y       z     vdW  Elec       q    Type
REMARK                         _______ _______ _______ _____ _____    ______ ____
ROOT
ATOM      1  N   UNL     1      -1.832  -0.819   0.297  0.00  0.00    +0.383 N 
ATOM      2  H   UNL     1      -2.314  -0.549  -0.547  0.00  0.00    -0.085 HD
ATOM      3  H   UNL     1      -1.888  -1.820   0.411  0.00  0.00    -0.085 HD
ENDROOT
BRANCH   1   5
ATOM      4  C   UNL     1      -0.341   1.082  -0.100  0.00  0.00    -0.014 C 
ATOM      5  C   UNL     1      -0.423  -0.414   0.208  0.00  0.00    -0.074 C 
BRANCH   5   6
ATOM      6  C   UNL     1       0.265  -1.203  -0.908  0.00  0.00    -0.008 C 
BRANCH   6   7
ATOM      7  C   UNL     1       0.269  -2.691  -0.552  0.00  0.00    +0.018 C 
ATOM      8  C   UNL     1       1.123  -2.908   0.696  0.00  0.00    +0.008 C 
ATOM      9  C   UNL     1       1.294  -4.417   0.908  0.00  0.00    +0.005 C 
ATOM     10  C   UNL     1       2.198  -4.960  -0.197  0.00  0.00    +0.035 C 
ATOM     11  C   UNL     1       1.700  -4.522  -1.550  0.00  0.00    -0.044 A 
ATOM     12  C   UNL     1       0.819  -3.478  -1.713  0.00  0.00    -0.041 A 
ATOM     13  C   UNL     1       0.405  -3.121  -2.990  0.00  0.00    +0.004 A 
ATOM     14  C   UNL     1       0.869  -3.806  -4.094  0.00  0.00    +0.000 A 
ATOM     15  C   UNL     1       1.752  -4.856  -3.929  0.00  0.00    +0.000 A 
ATOM     16  C   UNL     1       2.163  -5.212  -2.663  0.00  0.00    +0.004 A 
ENDBRANCH   6   7
ENDBRANCH   5   6
ENDBRANCH   1   5
BRANCH   1  17
ATOM     17  C   UNL     1      -2.459  -0.159   1.450  0.00  0.00    -0.046 C 
BRANCH  17  18
ATOM     18  C   UNL     1      -3.942  -0.531   1.507  0.00  0.00    +0.128 C 
BRANCH  18  19
ATOM     19  C   UNL     1      -4.575   0.108   2.716  0.00  0.00    -0.021 A 
ATOM     20  C   UNL     1      -5.045   1.406   2.644  0.00  0.00    +0.009 A 
ATOM     21  C   UNL     1      -5.625   1.995   3.751  0.00  0.00    +0.046 A 
ATOM     22  C   UNL     1      -5.736   1.282   4.936  0.00  0.00    +0.117 A 
ATOM     23  C   UNL     1      -5.264  -0.021   5.006  0.00  0.00    +0.046 A 
ATOM     24  C   UNL     1      -4.689  -0.606   3.894  0.00  0.00    +0.009 A 
BRANCH  22  25
ATOM     25  O   UNL     1      -6.306   1.859   6.026  0.00  0.00    -0.507 OA
ATOM     26  H   UNL     1      -7.262   1.726   6.088  0.00  0.00    +0.292 HD
ENDBRANCH  22  25
ENDBRANCH  18  19
BRANCH  18  27
ATOM     27  O   UNL     1      -4.596  -0.065   0.325  0.00  0.00    -0.389 OA
ATOM     28  H   UNL     1      -4.547   0.892   0.200  0.00  0.00    +0.210 HD
ENDBRANCH  18  27
ENDBRANCH  17  18
ENDBRANCH   1  17
TORSDOF 8
