REMARK  Name = ZINC39938810
REMARK  8 active torsions:
REMARK  status: ('A' for Active; 'I' for Inactive)
REMARK    1  A    between atoms: C_1  and  C_2
REMARK    2  A    between atoms: C_4  and  C_39
REMARK    3  A    between atoms: C_5  and  C_37
REMARK    4  A    between atoms: C_6  and  N_16
REMARK    5  A    between atoms: N_8  and  C_9
REMARK    6  A    between atoms: C_17  and  C_19
REMARK    7  A    between atoms: C_19  and  N_20
REMARK    8  A    between atoms: C_23  and  N_26
REMARK                            x       y       z     vdW  Elec       q    Type
REMARK                         _______ _______ _______ _____ _____    ______ ____
ROOT
ATOM      1  N   UNL     1      -0.049  -2.988   1.631  0.00  0.00    -0.294 N 
ATOM      2  C   UNL     1       0.420  -3.703   2.672  0.00  0.00    +0.198 C 
ATOM      3  O   UNL     1       0.476  -3.202   3.776  0.00  0.00    -0.278 OA
ATOM      4  H   UNL     1      -0.168  -3.411   0.766  0.00  0.00    +0.151 HD
ENDROOT
BRANCH   1   9
ATOM      5  C   UNL     1      -0.008   1.527   0.373  0.00  0.00    +0.033 C 
ATOM      6  C   UNL     1      -0.155   0.028   0.104  0.00  0.00    +0.099 C 
ATOM      7  C   UNL     1      -1.600  -0.377   0.236  0.00  0.00    -0.036 C 
ATOM      8  C   UNL     1      -1.727  -1.281   1.197  0.00  0.00    +0.068 C 
ATOM      9  C   UNL     1      -0.380  -1.571   1.805  0.00  0.00    +0.203 C 
ATOM     10  N   UNL     1       0.608  -0.736   1.101  0.00  0.00    -0.300 N 
ATOM     11  C   UNL     1      -2.731   0.165  -0.599  0.00  0.00    +0.042 C 
BRANCH  10  12
ATOM     12  C   UNL     1       1.984  -0.679   1.332  0.00  0.00    +0.035 A 
ATOM     13  C   UNL     1       2.799   0.074   0.496  0.00  0.00    +0.023 A 
ATOM     14  C   UNL     1       4.160   0.130   0.726  0.00  0.00    +0.005 A 
ATOM     15  C   UNL     1       4.712  -0.563   1.787  0.00  0.00    +0.038 A 
ATOM     16  C   UNL     1       3.904  -1.315   2.623  0.00  0.00    +0.125 A 
ATOM     17  C   UNL     1       2.539  -1.370   2.401  0.00  0.00    +0.061 A 
ATOM     18  F   UNL     1       4.446  -1.991   3.659  0.00  0.00    -0.205 F 
ENDBRANCH  10  12
BRANCH   8  19
ATOM     19  C   UNL     1      -2.959  -1.889   1.598  0.00  0.00    +0.098 C 
ATOM     20  N   UNL     1      -3.937  -2.372   1.916  0.00  0.00    -0.191 NA
ENDBRANCH   8  19
ENDBRANCH   1   9
BRANCH   2  21
ATOM     21  C   UNL     1       0.874  -5.125   2.466  0.00  0.00    +0.019 C 
BRANCH  21  22
ATOM     22  N   UNL     1       1.337  -5.681   3.744  0.00  0.00    +0.386 N 
ATOM     23  C   UNL     1       0.209  -5.757   4.681  0.00  0.00    -0.076 C 
ATOM     24  C   UNL     1       0.702  -6.260   6.039  0.00  0.00    +0.006 C 
ATOM     25  C   UNL     1       1.321  -7.651   5.869  0.00  0.00    +0.089 C 
ATOM     26  C   UNL     1       2.448  -7.574   4.835  0.00  0.00    +0.006 C 
ATOM     27  C   UNL     1       1.890  -7.022   3.521  0.00  0.00    -0.076 C 
ATOM     28  H   UNL     1       2.053  -5.084   4.131  0.00  0.00    -0.081 HD
BRANCH  25  29
ATOM     29  N   UNL     1       1.863  -8.106   7.152  0.00  0.00    -0.289 N 
ATOM     30  C   UNL     1       1.475  -9.254   7.839  0.00  0.00    +0.070 A 
ATOM     31  C   UNL     1       0.548 -10.251   7.579  0.00  0.00    +0.028 A 
ATOM     32  C   UNL     1       0.386 -11.290   8.474  0.00  0.00    +0.002 A 
ATOM     33  C   UNL     1       1.145 -11.339   9.631  0.00  0.00    +0.002 A 
ATOM     34  C   UNL     1       2.071 -10.350   9.899  0.00  0.00    +0.028 A 
ATOM     35  C   UNL     1       2.241  -9.304   9.005  0.00  0.00    +0.067 A 
ATOM     36  N   UNL     1       3.071  -8.185   8.990  0.00  0.00    -0.306 N 
ATOM     37  H   UNL     1       3.718  -7.949   9.673  0.00  0.00    +0.170 HD
ATOM     38  C   UNL     1       2.825  -7.489   7.864  0.00  0.00    +0.328 A 
ATOM     39  O   UNL     1       3.384  -6.458   7.541  0.00  0.00    -0.247 OA
ENDBRANCH  25  29
ENDBRANCH  21  22
ENDBRANCH   2  21
TORSDOF 6
