REMARK  Name = ZINC38673796
REMARK  7 active torsions:
REMARK  status: ('A' for Active; 'I' for Inactive)
REMARK    1  A    between atoms: C_1  and  C_2
REMARK    2  A    between atoms: C_4  and  S_10
REMARK    3  A    between atoms: S_10  and  N_13
REMARK    4  A    between atoms: N_13  and  C_14
REMARK    5  A    between atoms: C_14  and  C_15
REMARK    6  A    between atoms: C_15  and  C_17
REMARK    7  A    between atoms: C_15  and  N_22
REMARK                            x       y       z     vdW  Elec       q    Type
REMARK                         _______ _______ _______ _____ _____    ______ ____
ROOT
ATOM      1  C   UNL     1       1.871  -4.877  -1.686  0.00  0.00    +0.095 C 
ENDROOT
BRANCH   1   2
ATOM      2  N   UNL     1       2.414  -4.325  -0.442  0.00  0.00    -0.191 NA
ATOM      3  H   UNL     1       3.293  -4.595  -0.135  0.00  0.00    +0.148 HD
BRANCH   2   4
ATOM      4  S   UNL     1       1.526  -3.240   0.439  0.00  0.00    +0.060 S 
ATOM      5  O   UNL     1       1.069  -2.252  -0.475  0.00  0.00    -0.153 OA
ATOM      6  O   UNL     1       2.301  -2.917   1.585  0.00  0.00    -0.153 OA
BRANCH   4  10
ATOM      7  C   UNL     1      -1.405  -5.168   4.312  0.00  0.00    +0.045 C 
ATOM      8  C   UNL     1      -1.209  -4.951   2.834  0.00  0.00    -0.030 A 
ATOM      9  C   UNL     1      -0.086  -4.287   2.377  0.00  0.00    +0.034 A 
ATOM     10  C   UNL     1       0.095  -4.087   1.021  0.00  0.00    +0.124 A 
ATOM     11  C   UNL     1      -0.847  -4.553   0.121  0.00  0.00    +0.069 A 
ATOM     12  C   UNL     1      -1.970  -5.218   0.578  0.00  0.00    +0.042 A 
ATOM     13  C   UNL     1      -2.149  -5.422   1.935  0.00  0.00    +0.045 A 
ATOM     14 CL   UNL     1      -3.555  -6.261   2.509  0.00  0.00    -0.083 Cl
ATOM     15 CL   UNL     1      -0.620  -4.302  -1.582  0.00  0.00    -0.081 Cl
ENDBRANCH   4  10
ENDBRANCH   2   4
ENDBRANCH   1   2
BRANCH   1  16
ATOM     16  C   UNL     1       2.997  -5.534  -2.486  0.00  0.00    -0.021 C 
BRANCH  16  17
ATOM     17  N   UNL     1       4.094  -4.574  -2.666  0.00  0.00    +0.385 N 
ATOM     18  C   UNL     1       3.582  -3.402  -3.404  0.00  0.00    -0.078 C 
ATOM     19  C   UNL     1       4.455  -2.217  -3.075  0.00  0.00    -0.019 C 
ATOM     20  C   UNL     1       5.548  -2.009  -4.139  0.00  0.00    -0.002 C 
ATOM     21  C   UNL     1       6.158  -3.347  -4.602  0.00  0.00    -0.002 C 
ATOM     22  C   UNL     1       6.384  -4.302  -3.458  0.00  0.00    -0.019 C 
ATOM     23  C   UNL     1       5.150  -5.217  -3.314  0.00  0.00    -0.078 C 
ATOM     24  H   UNL     1       4.409  -4.269  -1.758  0.00  0.00    -0.081 HD
ENDBRANCH  16  17
BRANCH  16  25
ATOM     25  C   UNL     1       3.504  -6.742  -1.742  0.00  0.00    -0.053 A 
ATOM     26  C   UNL     1       3.095  -8.012  -2.105  0.00  0.00    +0.009 A 
ATOM     27  C   UNL     1       3.570  -9.078  -1.415  0.00  0.00    +0.045 A 
ATOM     28  S   UNL     1       4.629  -8.295  -0.210  0.00  0.00    -0.105 S 
ATOM     29  C   UNL     1       4.372  -6.601  -0.711  0.00  0.00    +0.047 A 
ENDBRANCH  16  25
ENDBRANCH   1  16
TORSDOF 6
