REMARK  Name = ZINC43763936
REMARK  3 active torsions:
REMARK  status: ('A' for Active; 'I' for Inactive)
REMARK    1  A    between atoms: C_1  and  C_2
REMARK    2  A    between atoms: C_13  and  O_15
REMARK    3  A    between atoms: C_20  and  O_26
REMARK                            x       y       z     vdW  Elec       q    Type
REMARK                         _______ _______ _______ _____ _____    ______ ____
ROOT
ATOM      1  C   UNL     1      -0.019   1.526   0.010  0.00  0.00    +0.014 C 
ATOM      2  C   UNL     1       0.002  -0.004   0.002  0.00  0.00    -0.003 C 
ATOM      3  C   UNL     1       0.763  -0.501  -1.212  0.00  0.00    +0.010 C 
ATOM      4  C   UNL     1       2.146   0.169  -1.187  0.00  0.00    +0.005 C 
ATOM      5  C   UNL     1       2.894  -0.132   0.108  0.00  0.00    -0.000 C 
ATOM      6  C   UNL     1       2.072   0.258   1.346  0.00  0.00    -0.003 C 
ATOM      7  C   UNL     1       0.751  -0.527   1.257  0.00  0.00    +0.001 C 
ATOM      8  C   UNL     1      -0.262  -0.234   2.369  0.00  0.00    +0.007 C 
ATOM      9  C   UNL     1      -1.615  -0.639   1.722  0.00  0.00    +0.032 C 
ATOM     10  C   UNL     1      -1.413  -0.541   0.189  0.00  0.00    +0.121 C 
ATOM     11  C   UNL     1       2.838  -0.135   2.610  0.00  0.00    +0.008 C 
ATOM     12  C   UNL     1       4.138   0.670   2.692  0.00  0.00    +0.031 C 
ATOM     13  C   UNL     1       4.920   0.448   1.409  0.00  0.00    -0.068 C 
ATOM     14  C   UNL     1       6.167   0.086   1.502  0.00  0.00    +0.003 C 
ATOM     15  C   UNL     1       7.038  -0.167   0.305  0.00  0.00    +0.137 C 
ATOM     16  C   UNL     1       6.510   0.649  -0.878  0.00  0.00    +0.036 C 
ATOM     17  C   UNL     1       5.043   0.282  -1.101  0.00  0.00    +0.011 C 
ATOM     18  C   UNL     1       4.203   0.664   0.133  0.00  0.00    +0.018 C 
ENDROOT
BRANCH  10  19
ATOM     19  O   UNL     1      -1.536  -1.833  -0.410  0.00  0.00    -0.391 OA
ATOM     20  H   UNL     1      -2.415  -2.225  -0.323  0.00  0.00    +0.210 HD
ENDBRANCH  10  19
BRANCH  15  21
ATOM     21  O   UNL     1       8.380   0.226   0.599  0.00  0.00    -0.388 OA
ATOM     22  H   UNL     1       8.775  -0.248   1.344  0.00  0.00    +0.210 HD
ENDBRANCH  15  21
TORSDOF 2
