REMARK  Name = ZINC01372550
REMARK  11 active torsions:
REMARK  status: ('A' for Active; 'I' for Inactive)
REMARK    1  A    between atoms: C_1  and  C_2
REMARK    2  A    between atoms: C_7  and  C_8
REMARK    3  A    between atoms: C_8  and  C_10
REMARK    4  A    between atoms: C_8  and  N_20
REMARK    5  A    between atoms: N_12  and  C_13
REMARK    6  A    between atoms: C_13  and  C_14
REMARK    7  A    between atoms: N_20  and  C_21
REMARK    8  A    between atoms: C_24  and  C_27
REMARK    9  A    between atoms: C_27  and  C_29
REMARK   10  A    between atoms: C_30  and  C_32
REMARK   11  A    between atoms: C_32  and  N_33
REMARK                            x       y       z     vdW  Elec       q    Type
REMARK                         _______ _______ _______ _____ _____    ______ ____
ROOT
ATOM      1  N   UNL     1      -5.291   3.515  -1.622  0.00  0.00    -0.254 N 
ATOM      2  C   UNL     1      -4.112   4.160  -1.725  0.00  0.00    +0.242 C 
ATOM      3  O   UNL     1      -3.575   4.272  -2.806  0.00  0.00    -0.273 OA
ENDROOT
BRANCH   1   4
ATOM      4  C   UNL     1      -5.959   3.475  -0.400  0.00  0.00    +0.038 A 
ATOM      5  C   UNL     1      -7.115   4.228  -0.215  0.00  0.00    +0.024 A 
ATOM      6  C   UNL     1      -7.778   4.189   0.984  0.00  0.00    +0.013 A 
ATOM      7  C   UNL     1      -7.285   3.397   2.028  0.00  0.00    +0.017 A 
ATOM      8  C   UNL     1      -6.118   2.645   1.840  0.00  0.00    +0.013 A 
ATOM      9  C   UNL     1      -5.465   2.687   0.636  0.00  0.00    +0.024 A 
BRANCH   7  10
ATOM     10  C   UNL     1      -7.988   3.355   3.316  0.00  0.00    +0.160 C 
ATOM     11  O   UNL     1      -7.559   2.668   4.220  0.00  0.00    -0.292 OA
ATOM     12  C   UNL     1      -9.243   4.165   3.516  0.00  0.00    +0.091 C 
ENDBRANCH   7  10
ENDBRANCH   1   4
BRANCH   1  13
ATOM     13  C   UNL     1      -5.871   2.857  -2.795  0.00  0.00    +0.197 C 
BRANCH  13  20
ATOM     14  C   UNL     1      -6.332   5.420  -4.047  0.00  0.00    +0.044 C 
ATOM     15  C   UNL     1      -7.500   4.577  -3.603  0.00  0.00    -0.045 A 
ATOM     16  C   UNL     1      -8.792   5.030  -3.794  0.00  0.00    +0.004 A 
ATOM     17  C   UNL     1      -9.863   4.258  -3.387  0.00  0.00    +0.000 A 
ATOM     18  C   UNL     1      -9.643   3.031  -2.788  0.00  0.00    +0.000 A 
ATOM     19  C   UNL     1      -8.351   2.576  -2.601  0.00  0.00    +0.006 A 
ATOM     20  C   UNL     1      -7.279   3.351  -3.003  0.00  0.00    -0.015 A 
ENDBRANCH  13  20
BRANCH  13  21
ATOM     21  C   UNL     1      -5.889   1.366  -2.577  0.00  0.00    +0.239 C 
ATOM     22  O   UNL     1      -5.627   0.910  -1.484  0.00  0.00    -0.273 OA
ATOM     23  N   UNL     1      -6.197   0.539  -3.596  0.00  0.00    -0.309 N 
ATOM     24  H   UNL     1      -6.335   0.898  -4.486  0.00  0.00    +0.149 HD
BRANCH  23  25
ATOM     25  C   UNL     1      -6.322  -0.901  -3.358  0.00  0.00    +0.139 C 
BRANCH  25  26
ATOM     26  C   UNL     1      -6.670  -1.595  -4.651  0.00  0.00    -0.030 A 
ATOM     27  C   UNL     1      -7.994  -1.777  -5.003  0.00  0.00    +0.005 A 
ATOM     28  C   UNL     1      -8.312  -2.408  -6.191  0.00  0.00    +0.000 A 
ATOM     29  C   UNL     1      -7.307  -2.867  -7.021  0.00  0.00    +0.000 A 
ATOM     30  C   UNL     1      -5.982  -2.690  -6.666  0.00  0.00    +0.000 A 
ATOM     31  C   UNL     1      -5.664  -2.053  -5.481  0.00  0.00    +0.005 A 
ENDBRANCH  25  26
ENDBRANCH  23  25
ENDBRANCH  13  21
ENDBRANCH   1  13
BRANCH   2  32
ATOM     32  C   UNL     1      -3.461   4.739  -0.496  0.00  0.00    +0.242 C 
BRANCH  32  33
ATOM     33  N   UNL     1      -2.166   5.322  -0.858  0.00  0.00    -0.235 N 
ATOM     34  C   UNL     1      -0.949   4.683  -0.866  0.00  0.00    +0.090 A 
ATOM     35  C   UNL     1      -0.536   3.388  -0.572  0.00  0.00    +0.029 A 
ATOM     36  C   UNL     1       0.786   3.057  -0.677  0.00  0.00    +0.002 A 
ATOM     37  C   UNL     1       1.720   3.999  -1.085  0.00  0.00    +0.002 A 
ATOM     38  C   UNL     1       1.340   5.275  -1.384  0.00  0.00    +0.032 A 
ATOM     39  C   UNL     1      -0.008   5.642  -1.280  0.00  0.00    +0.113 A 
ATOM     40  N   UNL     1      -0.670   6.795  -1.501  0.00  0.00    -0.129 NA
ATOM     41  N   UNL     1      -1.925   6.643  -1.266  0.00  0.00    -0.064 NA
ENDBRANCH  32  33
ENDBRANCH   2  32
TORSDOF 9
