REMARK  Name = ZINC21218473
REMARK  6 active torsions:
REMARK  status: ('A' for Active; 'I' for Inactive)
REMARK    1  A    between atoms: C_1  and  O_2
REMARK    2  A    between atoms: O_2  and  C_3
REMARK    3  A    between atoms: C_6  and  C_9
REMARK    4  A    between atoms: C_14  and  C_24
REMARK    5  A    between atoms: C_27  and  O_33
REMARK    6  A    between atoms: C_28  and  N_30
REMARK                            x       y       z     vdW  Elec       q    Type
REMARK                         _______ _______ _______ _____ _____    ______ ____
ROOT
ATOM      1  C   UNL     1       3.872   3.304  -1.794  0.00  0.00    +0.032 C 
ATOM      2  C   UNL     1       2.431   3.354  -1.290  0.00  0.00    +0.059 C 
ATOM      3  C   UNL     1       1.970   1.957  -0.904  0.00  0.00    +0.017 C 
ATOM      4  C   UNL     1       2.416   0.886  -1.579  0.00  0.00    +0.036 C 
ATOM      5  C   UNL     1       2.009  -0.548  -1.337  0.00  0.00    +0.136 C 
ATOM      6  N   UNL     1       1.264  -0.757  -0.113  0.00  0.00    -0.331 N 
ATOM      7  C   UNL     1       0.008  -0.186   0.070  0.00  0.00    +0.049 A 
ATOM      8  C   UNL     1      -1.135  -0.968   0.153  0.00  0.00    +0.025 A 
ATOM      9  C   UNL     1      -2.371  -0.357   0.271  0.00  0.00    +0.002 A 
ATOM     10  C   UNL     1      -2.471   1.022   0.305  0.00  0.00    +0.002 A 
ATOM     11  C   UNL     1      -1.331   1.806   0.240  0.00  0.00    +0.025 A 
ATOM     12  C   UNL     1      -0.094   1.196   0.140  0.00  0.00    +0.052 A 
ATOM     13  N   UNL     1       1.094   1.920   0.133  0.00  0.00    -0.316 N 
ATOM     14  C   UNL     1       3.357   1.042  -2.624  0.00  0.00    +0.163 C 
ATOM     15  O   UNL     1       3.735   0.055  -3.224  0.00  0.00    -0.292 OA
ATOM     16  C   UNL     1       3.907   2.381  -3.018  0.00  0.00    +0.088 C 
ATOM     17  H   UNL     1       1.690  -1.375   0.692  0.00  0.00    +0.147 HD
ATOM     18  H   UNL     1       1.304   2.489   1.051  0.00  0.00    +0.152 HD
ENDROOT
BRANCH   1  22
ATOM     19  C   UNL     1       5.155   7.226  -2.903  0.00  0.00    +0.120 A 
ATOM     20  C   UNL     1       5.828   6.530  -1.909  0.00  0.00    +0.046 A 
ATOM     21  C   UNL     1       5.411   5.262  -1.552  0.00  0.00    +0.007 A 
ATOM     22  C   UNL     1       4.324   4.687  -2.185  0.00  0.00    -0.043 A 
ATOM     23  C   UNL     1       3.656   5.377  -3.180  0.00  0.00    +0.007 A 
ATOM     24  C   UNL     1       4.065   6.647  -3.536  0.00  0.00    +0.046 A 
BRANCH  19  26
ATOM     25  C   UNL     1       4.823   9.131  -4.286  0.00  0.00    +0.277 C 
ATOM     26  O   UNL     1       5.563   8.474  -3.255  0.00  0.00    -0.495 OA
ENDBRANCH  19  26
ENDBRANCH   1  22
BRANCH   5  27
ATOM     27  C   UNL     1       1.163  -1.008  -2.496  0.00  0.00    -0.020 A 
ATOM     28  C   UNL     1       1.624  -2.008  -3.333  0.00  0.00    +0.009 A 
ATOM     29  C   UNL     1       0.848  -2.436  -4.393  0.00  0.00    +0.048 A 
ATOM     30  C   UNL     1      -0.390  -1.853  -4.624  0.00  0.00    +0.147 A 
ATOM     31  C   UNL     1      -0.848  -0.847  -3.786  0.00  0.00    +0.168 A 
ATOM     32  C   UNL     1      -0.070  -0.426  -2.724  0.00  0.00    +0.042 A 
BRANCH  31  33
ATOM     33  N   UNL     1      -2.167  -0.223  -4.030  0.00  0.00    +0.060 N 
ATOM     34  O   UNL     1      -2.568   0.661  -3.295  0.00  0.00    -0.126 OA
ATOM     35  O   UNL     1      -2.852  -0.593  -4.967  0.00  0.00    -0.126 OA
ENDBRANCH  31  33
BRANCH  30  36
ATOM     36  O   UNL     1      -1.153  -2.268  -5.670  0.00  0.00    -0.504 OA
ATOM     37  H   UNL     1      -2.134  -1.805  -5.852  0.00  0.00    +0.292 HD
ENDBRANCH  30  36
ENDBRANCH   5  27
TORSDOF 5
