REMARK  Name = ZINC39266184
REMARK  14 active torsions:
REMARK  status: ('A' for Active; 'I' for Inactive)
REMARK    1  A    between atoms: C_1  and  C_2
REMARK    2  A    between atoms: C_2  and  C_3
REMARK    3  A    between atoms: C_2  and  C_4
REMARK    4  A    between atoms: C_2  and  C_35
REMARK    5  A    between atoms: C_4  and  N_5
REMARK    6  A    between atoms: C_6  and  C_8
REMARK    7  A    between atoms: C_8  and  N_9
REMARK    8  A    between atoms: C_10  and  C_29
REMARK    9  A    between atoms: C_19  and  O_21
REMARK   10  A    between atoms: O_21  and  C_22
REMARK   11  A    between atoms: C_22  and  C_23
REMARK   12  A    between atoms: C_35  and  N_36
REMARK   13  A    between atoms: N_36  and  C_37
REMARK   14  A    between atoms: N_36  and  C_38
REMARK                            x       y       z     vdW  Elec       q    Type
REMARK                         _______ _______ _______ _____ _____    ______ ____
ROOT
ATOM      1  N   UNL     1      -4.176  -2.847   3.272  0.00  0.00    -0.281 N 
ATOM      2  C   UNL     1      -5.302  -2.909   2.346  0.00  0.00    +0.139 C 
ATOM      3  C   UNL     1      -5.785  -4.129   3.110  0.00  0.00    +0.139 C 
ATOM      4  C   UNL     1      -4.574  -3.924   3.962  0.00  0.00    +0.243 C 
ATOM      5  O   UNL     1      -4.120  -4.513   4.920  0.00  0.00    -0.273 OA
ATOM      6  C   UNL     1      -5.806  -5.442   2.308  0.00  0.00    +0.039 C 
ATOM      7  C   UNL     1      -6.918  -6.261   3.019  0.00  0.00    +0.022 C 
ATOM      8  C   UNL     1      -7.921  -5.148   3.416  0.00  0.00    +0.112 C 
ATOM      9  N   UNL     1      -7.079  -3.993   3.783  0.00  0.00    -0.251 N 
ATOM     10  C   UNL     1      -7.439  -2.984   4.601  0.00  0.00    +0.404 C 
ATOM     11  O   UNL     1      -6.659  -2.082   4.833  0.00  0.00    -0.226 OA
ENDROOT
BRANCH   2  12
ATOM     12  C   UNL     1      -4.897  -3.209   0.926  0.00  0.00    -0.024 A 
ATOM     13  C   UNL     1      -3.829  -4.050   0.675  0.00  0.00    +0.005 A 
ATOM     14  C   UNL     1      -3.458  -4.325  -0.628  0.00  0.00    +0.000 A 
ATOM     15  C   UNL     1      -4.154  -3.759  -1.680  0.00  0.00    +0.000 A 
ATOM     16  C   UNL     1      -5.222  -2.918  -1.428  0.00  0.00    +0.000 A 
ATOM     17  C   UNL     1      -5.596  -2.647  -0.125  0.00  0.00    +0.005 A 
ENDBRANCH   2  12
BRANCH   1  18
ATOM     18  C   UNL     1      -3.029  -1.944   3.396  0.00  0.00    +0.204 C 
BRANCH  18  20
ATOM     19  N   UNL     1      -2.561   0.284   4.363  0.00  0.00    -0.314 N 
ATOM     20  C   UNL     1      -3.426  -0.737   4.207  0.00  0.00    +0.230 C 
ATOM     21  O   UNL     1      -4.525  -0.685   4.718  0.00  0.00    -0.274 OA
ATOM     22  H   UNL     1      -1.682   0.242   3.954  0.00  0.00    +0.149 HD
BRANCH  19  23
ATOM     23  C   UNL     1      -2.946   1.457   5.152  0.00  0.00    +0.108 C 
BRANCH  23  25
ATOM     24  C   UNL     1      -0.559   1.807   5.799  0.00  0.00    +0.010 C 
ATOM     25  C   UNL     1      -1.792   2.460   5.171  0.00  0.00    -0.034 C 
ATOM     26  C   UNL     1      -1.467   2.892   3.740  0.00  0.00    +0.010 C 
BRANCH  25  27
ATOM     27  C   UNL     1      -2.195   3.686   5.995  0.00  0.00    -0.072 C 
BRANCH  27  28
ATOM     28  N   UNL     1      -1.133   4.698   5.917  0.00  0.00    +0.376 N 
ATOM     29  C   UNL     1      -1.322   5.513   4.710  0.00  0.00    -0.097 C 
ATOM     30  C   UNL     1      -1.192   5.561   7.104  0.00  0.00    -0.097 C 
ATOM     31  H   UNL     1      -0.234   4.241   5.877  0.00  0.00    -0.083 HD
ENDBRANCH  27  28
ENDBRANCH  25  27
ENDBRANCH  23  25
ENDBRANCH  19  23
ENDBRANCH  18  20
ENDBRANCH   1  18
BRANCH  10  32
ATOM     32  O   UNL     1      -8.664  -2.975   5.160  0.00  0.00    -0.445 OA
BRANCH  32  33
ATOM     33  C   UNL     1      -8.979  -1.874   6.015  0.00  0.00    +0.269 C 
BRANCH  33  34
ATOM     34  C   UNL     1     -10.380  -2.034   6.545  0.00  0.00    -0.010 A 
ATOM     35  C   UNL     1     -11.448  -1.504   5.846  0.00  0.00    +0.007 A 
ATOM     36  C   UNL     1     -12.734  -1.651   6.331  0.00  0.00    +0.000 A 
ATOM     37  C   UNL     1     -12.952  -2.329   7.516  0.00  0.00    +0.000 A 
ATOM     38  C   UNL     1     -11.884  -2.860   8.215  0.00  0.00    +0.000 A 
ATOM     39  C   UNL     1     -10.599  -2.717   7.727  0.00  0.00    +0.007 A 
ENDBRANCH  33  34
ENDBRANCH  32  33
ENDBRANCH  10  32
TORSDOF 10
