REMARK  Name = ZINC39882024
REMARK  12 active torsions:
REMARK  status: ('A' for Active; 'I' for Inactive)
REMARK    1  A    between atoms: C_1  and  C_2
REMARK    2  A    between atoms: C_2  and  C_3
REMARK    3  A    between atoms: C_2  and  C_4
REMARK    4  A    between atoms: C_2  and  C_5
REMARK    5  A    between atoms: N_7  and  C_8
REMARK    6  A    between atoms: C_8  and  C_19
REMARK    7  A    between atoms: C_9  and  C_10
REMARK    8  A    between atoms: C_13  and  N_16
REMARK    9  A    between atoms: N_16  and  C_17
REMARK   10  A    between atoms: N_16  and  C_18
REMARK   11  A    between atoms: N_21  and  C_22
REMARK   12  A    between atoms: C_25  and  N_28
REMARK                            x       y       z     vdW  Elec       q    Type
REMARK                         _______ _______ _______ _____ _____    ______ ____
ROOT
ATOM      1  C   UNL     1       0.962  -2.020  -2.575  0.00  0.00    +0.097 C 
ATOM      2  C   UNL     1       1.523  -3.199  -2.216  0.00  0.00    +0.036 C 
ENDROOT
BRANCH   2   3
ATOM      3  C   UNL     1       2.912  -3.497  -2.593  0.00  0.00    -0.023 A 
ATOM      4  C   UNL     1       3.851  -2.463  -2.688  0.00  0.00    +0.010 A 
ATOM      5  C   UNL     1       5.150  -2.747  -3.041  0.00  0.00    +0.023 A 
ATOM      6  C   UNL     1       5.531  -4.059  -3.304  0.00  0.00    +0.029 A 
ATOM      7  C   UNL     1       4.601  -5.090  -3.212  0.00  0.00    +0.023 A 
ATOM      8  C   UNL     1       3.301  -4.817  -2.853  0.00  0.00    +0.010 A 
BRANCH   6   9
ATOM      9  N   UNL     1       6.848  -4.341  -3.662  0.00  0.00    -0.336 N 
ATOM     10  C   UNL     1       7.857  -3.280  -3.636  0.00  0.00    +0.129 C 
ATOM     11  C   UNL     1       7.222  -5.700  -4.063  0.00  0.00    +0.129 C 
ENDBRANCH   6   9
ENDBRANCH   2   3
BRANCH   1  14
ATOM     12  C   UNL     1      -0.921  -0.565  -2.549  0.00  0.00    +0.223 C 
ATOM     13  O   UNL     1      -0.350   0.169  -3.328  0.00  0.00    -0.275 OA
ATOM     14  N   UNL     1      -0.303  -1.670  -2.088  0.00  0.00    -0.281 N 
ATOM     15  H   UNL     1      -0.735  -2.223  -1.418  0.00  0.00    +0.155 HD
BRANCH  12  17
ATOM     16  C   UNL     1      -2.785   1.056  -2.765  0.00  0.00    +0.020 C 
ATOM     17  C   UNL     1      -2.322  -0.240  -2.098  0.00  0.00    +0.039 C 
ATOM     18  C   UNL     1      -2.340  -0.066  -0.578  0.00  0.00    +0.020 C 
ATOM     19  C   UNL     1      -3.262  -1.381  -2.492  0.00  0.00    +0.020 C 
ENDBRANCH  12  17
ENDBRANCH   1  14
BRANCH   1  20
ATOM     20  C   UNL     1       1.680  -1.110  -3.474  0.00  0.00    +0.262 C 
ATOM     21  O   UNL     1       2.176  -0.088  -3.037  0.00  0.00    -0.268 OA
ATOM     22  N   UNL     1       1.789  -1.405  -4.785  0.00  0.00    -0.280 N 
ATOM     23  H   UNL     1       1.329  -2.177  -5.148  0.00  0.00    +0.155 HD
BRANCH  22  24
ATOM     24  C   UNL     1       2.567  -0.598  -5.620  0.00  0.00    +0.034 A 
ATOM     25  C   UNL     1       3.719   0.004  -5.131  0.00  0.00    +0.025 A 
ATOM     26  C   UNL     1       4.486   0.800  -5.960  0.00  0.00    +0.034 A 
ATOM     27  C   UNL     1       4.106   0.999  -7.274  0.00  0.00    +0.126 A 
ATOM     28  C   UNL     1       2.960   0.402  -7.765  0.00  0.00    +0.034 A 
ATOM     29  C   UNL     1       2.192  -0.400  -6.943  0.00  0.00    +0.025 A 
BRANCH  27  30
ATOM     30  N   UNL     1       4.930   1.854  -8.159  0.00  0.00    +0.056 N 
ATOM     31  O   UNL     1       5.932   2.377  -7.732  0.00  0.00    -0.126 OA
ATOM     32  O   UNL     1       4.600   2.029  -9.309  0.00  0.00    -0.126 OA
ENDBRANCH  27  30
ENDBRANCH  22  24
ENDBRANCH   1  20
TORSDOF 7
