REMARK  Name = ZINC08868804
REMARK  9 active torsions:
REMARK  status: ('A' for Active; 'I' for Inactive)
REMARK    1  A    between atoms: C_1  and  C_2
REMARK    2  A    between atoms: C_5  and  S_8
REMARK    3  A    between atoms: S_8  and  N_11
REMARK    4  A    between atoms: C_15  and  C_17
REMARK    5  A    between atoms: N_19  and  C_20
REMARK    6  A    between atoms: C_20  and  C_21
REMARK    7  A    between atoms: C_21  and  N_60
REMARK    8  A    between atoms: C_22  and  N_60
REMARK    9  A    between atoms: C_23  and  N_60
REMARK                            x       y       z     vdW  Elec       q    Type
REMARK                         _______ _______ _______ _____ _____    ______ ____
ROOT
ATOM      1  C   UNL     1       0.512   8.962   0.461  0.00  0.00    +0.240 C 
ATOM      2  O   UNL     1      -0.593   8.541   0.731  0.00  0.00    -0.273 OA
ATOM      3  N   UNL     1       1.549   8.109   0.349  0.00  0.00    -0.251 N 
ATOM      4  C   UNL     1       1.336   6.743   0.437  0.00  0.00    +0.168 A 
ATOM      5  N   UNL     1       0.209   6.096   0.626  0.00  0.00    -0.224 NA
ATOM      6  C   UNL     1       0.148   4.748   0.692  0.00  0.00    +0.080 A 
ATOM      7  C   UNL     1      -0.991   3.935   0.889  0.00  0.00    +0.030 A 
ATOM      8  C   UNL     1      -0.880   2.570   0.925  0.00  0.00    +0.022 A 
ATOM      9  C   UNL     1       0.348   1.938   0.782  0.00  0.00    +0.042 A 
ATOM     10  C   UNL     1       1.485   2.704   0.587  0.00  0.00    +0.037 A 
ATOM     11  C   UNL     1       1.381   4.072   0.544  0.00  0.00    +0.042 A 
ATOM     12  S   UNL     1       2.525   5.413   0.324  0.00  0.00    -0.052 S 
ATOM     13 CL   UNL     1       0.457   0.207   0.840  0.00  0.00    -0.084 Cl
ENDROOT
BRANCH   1  18
ATOM     14  N   UNL     1      -0.508  11.053  -0.263  0.00  0.00    -0.165 NA
ATOM     15  C   UNL     1      -0.976  12.059   0.708  0.00  0.00    +0.110 C 
ATOM     16  C   UNL     1       0.293  12.471   1.495  0.00  0.00    +0.019 C 
ATOM     17  C   UNL     1       1.052  11.119   1.598  0.00  0.00    +0.031 C 
ATOM     18  C   UNL     1       0.724  10.439   0.252  0.00  0.00    +0.166 C 
BRANCH  14  19
ATOM     19  S   UNL     1      -1.248  10.678  -1.696  0.00  0.00    +0.062 S 
ATOM     20  O   UNL     1      -2.020  11.813  -2.064  0.00  0.00    -0.153 OA
ATOM     21  O   UNL     1      -0.244  10.134  -2.542  0.00  0.00    -0.153 OA
BRANCH  19  26
ATOM     22  C   UNL     1      -5.158   6.222  -0.573  0.00  0.00    +0.044 C 
ATOM     23  C   UNL     1      -4.182   7.335  -0.855  0.00  0.00    -0.050 A 
ATOM     24  C   UNL     1      -4.553   8.650  -0.644  0.00  0.00    +0.005 A 
ATOM     25  C   UNL     1      -3.657   9.671  -0.901  0.00  0.00    +0.029 A 
ATOM     26  C   UNL     1      -2.390   9.377  -1.369  0.00  0.00    +0.106 A 
ATOM     27  C   UNL     1      -2.021   8.063  -1.585  0.00  0.00    +0.029 A 
ATOM     28  C   UNL     1      -2.915   7.042  -1.323  0.00  0.00    +0.005 A 
ENDBRANCH  19  26
ENDBRANCH  14  19
ENDBRANCH   1  18
BRANCH   3  29
ATOM     29  C   UNL     1       2.903   8.627   0.134  0.00  0.00    +0.097 C 
BRANCH  29  30
ATOM     30  C   UNL     1       3.213   8.636  -1.364  0.00  0.00    -0.060 C 
BRANCH  30  33
ATOM     31  C   UNL     1       4.993   8.960  -2.974  0.00  0.00    -0.097 C 
ATOM     32  C   UNL     1       4.660  10.570  -1.196  0.00  0.00    -0.097 C 
ATOM     33  N   UNL     1       4.588   9.140  -1.564  0.00  0.00    +0.377 N 
ATOM     34  H   UNL     1       5.228   8.609  -0.962  0.00  0.00    -0.083 HD
ENDBRANCH  30  33
ENDBRANCH  29  30
ENDBRANCH   3  29
TORSDOF 6
