REMARK  Name = ZINC43219028
REMARK  10 active torsions:
REMARK  status: ('A' for Active; 'I' for Inactive)
REMARK    1  A    between atoms: C_1  and  C_2
REMARK    2  A    between atoms: C_4  and  C_10
REMARK    3  A    between atoms: C_6  and  C_9
REMARK    4  A    between atoms: C_7  and  O_8
REMARK    5  A    between atoms: N_18  and  C_21
REMARK    6  A    between atoms: C_21  and  C_22
REMARK    7  A    between atoms: C_21  and  C_23
REMARK    8  A    between atoms: C_21  and  C_24
REMARK    9  A    between atoms: C_25  and  C_27
REMARK   10  A    between atoms: C_25  and  C_33
REMARK                            x       y       z     vdW  Elec       q    Type
REMARK                         _______ _______ _______ _____ _____    ______ ____
ROOT
ATOM      1  C   UNL     1       0.028  -2.816  -2.516  0.00  0.00    -0.026 C 
ATOM      2  C   UNL     1       1.427  -3.329  -2.841  0.00  0.00    +0.077 C 
ATOM      3  C   UNL     1       0.999  -4.403  -3.912  0.00  0.00    +0.090 C 
ATOM      4  C   UNL     1       2.245  -4.662  -4.591  0.00  0.00    +0.226 C 
ATOM      5  O   UNL     1       2.620  -5.711  -5.069  0.00  0.00    -0.275 OA
ATOM      6  N   UNL     1       2.913  -3.463  -4.577  0.00  0.00    -0.236 N 
ATOM      7  C   UNL     1       2.355  -2.543  -3.713  0.00  0.00    +0.225 C 
ATOM      8  O   UNL     1       2.561  -1.350  -3.669  0.00  0.00    -0.275 OA
ATOM      9  C   UNL     1      -0.096  -5.125  -3.252  0.00  0.00    +0.074 C 
ATOM     10  N   UNL     1      -0.784  -4.072  -2.414  0.00  0.00    +0.398 N 
ATOM     11  H   UNL     1      -0.818  -4.380  -1.454  0.00  0.00    -0.083 HD
ATOM     12  H   UNL     1      -1.718  -3.905  -2.755  0.00  0.00    -0.083 HD
ENDROOT
BRANCH   1  16
ATOM     13  C   UNL     1      -0.018   1.503   0.010  0.00  0.00    +0.047 C 
ATOM     14  C   UNL     1       0.002  -0.004   0.002  0.00  0.00    -0.009 A 
ATOM     15  C   UNL     1       0.006  -0.689  -1.198  0.00  0.00    +0.009 A 
ATOM     16  C   UNL     1       0.024  -2.071  -1.206  0.00  0.00    -0.060 A 
ATOM     17  C   UNL     1       0.040  -2.772  -0.014  0.00  0.00    +0.009 A 
ATOM     18  C   UNL     1       0.036  -2.092   1.188  0.00  0.00    -0.009 A 
ATOM     19  C   UNL     1       0.023  -0.705   1.199  0.00  0.00    +0.123 A 
ATOM     20  C   UNL     1       0.052  -2.856   2.487  0.00  0.00    +0.047 C 
BRANCH  19  21
ATOM     21  O   UNL     1       0.025  -0.033   2.381  0.00  0.00    -0.506 OA
ATOM     22  H   UNL     1      -0.857   0.149   2.731  0.00  0.00    +0.292 HD
ENDBRANCH  19  21
ENDBRANCH   1  16
BRANCH   9  23
ATOM     23  C   UNL     1      -1.058  -5.670  -4.276  0.00  0.00    -0.047 A 
ATOM     24  C   UNL     1      -0.603  -6.027  -5.532  0.00  0.00    +0.003 A 
ATOM     25  C   UNL     1      -1.485  -6.526  -6.471  0.00  0.00    +0.000 A 
ATOM     26  C   UNL     1      -2.824  -6.670  -6.155  0.00  0.00    +0.000 A 
ATOM     27  C   UNL     1      -3.279  -6.314  -4.899  0.00  0.00    +0.000 A 
ATOM     28  C   UNL     1      -2.396  -5.818  -3.958  0.00  0.00    +0.003 A 
ENDBRANCH   9  23
BRANCH   6  29
ATOM     29  C   UNL     1       4.104  -3.189  -5.385  0.00  0.00    +0.036 C 
ATOM     30  C   UNL     1       3.762  -3.346  -6.868  0.00  0.00    +0.031 C 
ATOM     31  C   UNL     1       4.582  -1.760  -5.120  0.00  0.00    +0.031 C 
ATOM     32  C   UNL     1       5.212  -4.175  -5.010  0.00  0.00    +0.031 C 
ENDBRANCH   6  29
BRANCH   9  33
ATOM     33  C   UNL     1       0.450  -6.240  -2.397  0.00  0.00    +0.350 C 
ATOM     34  O   UNL     1       0.231  -6.251  -1.198  0.00  0.00    -0.248 OA
ATOM     35  O   UNL     1       1.110  -7.130  -2.905  0.00  0.00    -0.248 OA
ENDBRANCH   9  33
TORSDOF 5
