REMARK  Name = ZINC39630585
REMARK  13 active torsions:
REMARK  status: ('A' for Active; 'I' for Inactive)
REMARK    1  A    between atoms: C_1  and  C_2
REMARK    2  A    between atoms: C_2  and  O_4
REMARK    3  A    between atoms: O_4  and  C_5
REMARK    4  A    between atoms: C_10  and  C_11
REMARK    5  A    between atoms: C_15  and  C_24
REMARK    6  A    between atoms: N_26  and  C_27
REMARK    7  A    between atoms: C_27  and  C_28
REMARK    8  A    between atoms: C_28  and  C_29
REMARK    9  A    between atoms: C_28  and  C_30
REMARK   10  A    between atoms: C_28  and  C_31
REMARK   11  A    between atoms: C_31  and  N_32
REMARK   12  A    between atoms: N_32  and  C_33
REMARK   13  A    between atoms: N_32  and  C_34
REMARK                            x       y       z     vdW  Elec       q    Type
REMARK                         _______ _______ _______ _____ _____    ______ ____
ROOT
ATOM      1  C   UNL     1      -1.229  -3.384  -2.077  0.00  0.00    +0.250 C 
ATOM      2  O   UNL     1      -1.379  -2.186  -1.935  0.00  0.00    -0.270 OA
ATOM      3  N   UNL     1      -1.103  -3.906  -3.313  0.00  0.00    -0.296 N 
ATOM      4  C   UNL     1      -0.835  -5.316  -3.681  0.00  0.00    +0.121 C 
ATOM      5  C   UNL     1      -1.722  -5.572  -4.920  0.00  0.00    +0.100 C 
ATOM      6  C   UNL     1      -1.958  -4.180  -5.528  0.00  0.00    -0.004 C 
ATOM      7  C   UNL     1      -1.209  -3.200  -4.613  0.00  0.00    +0.115 C 
ATOM      8  C   UNL     1      -3.448  -3.852  -5.535  0.00  0.00    -0.010 C 
ATOM      9  C   UNL     1      -3.662  -2.487  -6.196  0.00  0.00    -0.082 C 
ATOM     10  N   UNL     1      -3.141  -2.519  -7.568  0.00  0.00    +0.379 N 
ATOM     11  C   UNL     1      -1.691  -2.743  -7.548  0.00  0.00    -0.082 C 
ATOM     12  C   UNL     1      -1.393  -4.118  -6.944  0.00  0.00    -0.010 C 
ATOM     13  H   UNL     1      -3.588  -3.265  -8.079  0.00  0.00    -0.086 HD
ATOM     14  H   UNL     1      -3.338  -1.639  -8.021  0.00  0.00    -0.086 HD
ENDROOT
BRANCH   1  20
ATOM     15  C   UNL     1      -2.026  -4.023   0.198  0.00  0.00    +0.144 A 
ATOM     16  C   UNL     1      -1.980  -4.863   1.301  0.00  0.00    +0.047 A 
ATOM     17  C   UNL     1      -1.105  -5.930   1.323  0.00  0.00    +0.004 A 
ATOM     18  C   UNL     1      -0.267  -6.171   0.246  0.00  0.00    +0.001 A 
ATOM     19  C   UNL     1      -0.299  -5.346  -0.858  0.00  0.00    +0.017 A 
ATOM     20  C   UNL     1      -1.185  -4.267  -0.895  0.00  0.00    +0.079 A 
BRANCH  15  21
ATOM     21  O   UNL     1      -2.887  -2.974   0.176  0.00  0.00    -0.425 OA
BRANCH  21  23
ATOM     22  C   UNL     1      -5.111  -2.052  -0.374  0.00  0.00    +0.136 C 
ATOM     23  C   UNL     1      -4.077  -3.147  -0.422  0.00  0.00    +0.309 C 
ATOM     24  O   UNL     1      -4.319  -4.181  -0.999  0.00  0.00    -0.251 OA
ENDBRANCH  21  23
ENDBRANCH  15  21
ENDBRANCH   1  20
BRANCH   5  25
ATOM     25  C   UNL     1      -1.005  -6.462  -5.903  0.00  0.00    +0.218 C 
ATOM     26  O   UNL     1       0.207  -6.494  -5.920  0.00  0.00    -0.275 OA
ATOM     27  N   UNL     1      -1.711  -7.222  -6.763  0.00  0.00    -0.315 N 
ATOM     28  H   UNL     1      -2.681  -7.196  -6.750  0.00  0.00    +0.149 HD
BRANCH  27  29
ATOM     29  C   UNL     1      -1.015  -8.086  -7.719  0.00  0.00    +0.108 C 
BRANCH  29  30
ATOM     30  C   UNL     1      -2.041  -8.835  -8.572  0.00  0.00    -0.034 C 
ATOM     31  C   UNL     1      -2.931  -9.688  -7.666  0.00  0.00    +0.010 C 
ATOM     32  C   UNL     1      -2.905  -7.827  -9.332  0.00  0.00    +0.010 C 
BRANCH  30  33
ATOM     33  C   UNL     1      -1.314  -9.738  -9.570  0.00  0.00    -0.072 C 
BRANCH  33  34
ATOM     34  N   UNL     1      -2.298 -10.428 -10.414  0.00  0.00    +0.376 N 
ATOM     35  C   UNL     1      -2.649  -9.573 -11.556  0.00  0.00    -0.097 C 
ATOM     36  C   UNL     1      -1.726 -11.689 -10.903  0.00  0.00    -0.097 C 
ATOM     37  H   UNL     1      -3.127 -10.623  -9.873  0.00  0.00    -0.083 HD
ENDBRANCH  33  34
ENDBRANCH  30  33
ENDBRANCH  29  30
ENDBRANCH  27  29
ENDBRANCH   5  25
TORSDOF 8
