REMARK  Name = ZINC21558487
REMARK  6 active torsions:
REMARK  status: ('A' for Active; 'I' for Inactive)
REMARK    1  A    between atoms: C_1  and  C_2
REMARK    2  A    between atoms: C_2  and  C_3
REMARK    3  A    between atoms: C_3  and  C_5
REMARK    4  A    between atoms: C_3  and  N_12
REMARK    5  A    between atoms: C_13  and  C_15
REMARK    6  A    between atoms: C_15  and  N_16
REMARK                            x       y       z     vdW  Elec       q    Type
REMARK                         _______ _______ _______ _____ _____    ______ ____
ROOT
ATOM      1  N   UNL     1      -3.931   2.809  -2.472  0.00  0.00    -0.215 N 
ATOM      2  C   UNL     1      -5.170   3.079  -2.011  0.00  0.00    +0.252 C 
ATOM      3  O   UNL     1      -6.008   2.282  -1.647  0.00  0.00    -0.272 OA
ATOM      4  C   UNL     1      -5.292   4.585  -2.043  0.00  0.00    +0.144 C 
ATOM      5  C   UNL     1      -6.422   5.007  -2.977  0.00  0.00    +0.081 C 
ATOM      6  C   UNL     1      -6.686   6.505  -2.772  0.00  0.00    +0.232 C 
ATOM      7  O   UNL     1      -7.141   6.704  -1.433  0.00  0.00    -0.492 OA
ATOM      8  C   UNL     1      -6.422   6.146  -0.424  0.00  0.00    +0.126 A 
ATOM      9  C   UNL     1      -5.519   5.121  -0.657  0.00  0.00    +0.027 A 
ATOM     10  C   UNL     1      -4.811   4.577   0.401  0.00  0.00    +0.010 A 
ATOM     11  C   UNL     1      -4.997   5.051   1.684  0.00  0.00    +0.001 A 
ATOM     12  C   UNL     1      -5.895   6.076   1.918  0.00  0.00    +0.004 A 
ATOM     13  C   UNL     1      -6.606   6.623   0.869  0.00  0.00    +0.046 A 
ATOM     14  N   UNL     1      -3.997   5.038  -2.564  0.00  0.00    -0.281 N 
ATOM     15  C   UNL     1      -3.265   3.928  -2.780  0.00  0.00    +0.310 C 
ATOM     16  O   UNL     1      -2.128   3.941  -3.211  0.00  0.00    -0.252 OA
ATOM     17  H   UNL     1      -3.721   5.955  -2.718  0.00  0.00    +0.152 HD
ENDROOT
BRANCH   1  18
ATOM     18  C   UNL     1      -3.381   1.458  -2.613  0.00  0.00    +0.213 C 
BRANCH  18  20
ATOM     19  N   UNL     1      -2.105  -0.148  -1.230  0.00  0.00    -0.307 N 
ATOM     20  C   UNL     1      -2.690   1.062  -1.334  0.00  0.00    +0.231 C 
ATOM     21  O   UNL     1      -2.659   1.832  -0.397  0.00  0.00    -0.274 OA
ATOM     22  H   UNL     1      -2.130  -0.764  -1.980  0.00  0.00    +0.149 HD
BRANCH  19  23
ATOM     23  C   UNL     1      -1.433  -0.534   0.013  0.00  0.00    +0.103 C 
BRANCH  23  24
ATOM     24  C   UNL     1      -1.414  -2.036   0.129  0.00  0.00    -0.027 A 
ATOM     25  C   UNL     1      -1.167  -2.812  -0.989  0.00  0.00    +0.007 A 
ATOM     26  C   UNL     1      -1.149  -4.190  -0.883  0.00  0.00    +0.020 A 
ATOM     27  C   UNL     1      -1.377  -4.793   0.341  0.00  0.00    +0.041 A 
ATOM     28  C   UNL     1      -1.624  -4.016   1.458  0.00  0.00    +0.020 A 
ATOM     29  C   UNL     1      -1.637  -2.638   1.353  0.00  0.00    +0.007 A 
ATOM     30 CL   UNL     1      -1.355  -6.524   0.473  0.00  0.00    -0.084 Cl
ENDBRANCH  23  24
BRANCH  23  32
ATOM     31  C   UNL     1      -0.019   1.526   0.010  0.00  0.00    +0.006 C 
ATOM     32  C   UNL     1       0.002  -0.004   0.002  0.00  0.00    +0.024 C 
ENDBRANCH  23  32
ENDBRANCH  19  23
ENDBRANCH  18  20
ENDBRANCH   1  18
TORSDOF 5
