REMARK  Name = ZINC64435463
REMARK  7 active torsions:
REMARK  status: ('A' for Active; 'I' for Inactive)
REMARK    1  A    between atoms: C_4  and  C_7
REMARK    2  A    between atoms: C_7  and  C_8
REMARK    3  A    between atoms: C_11  and  N_14
REMARK    4  A    between atoms: C_15  and  C_17
REMARK    5  A    between atoms: C_20  and  O_24
REMARK    6  A    between atoms: O_24  and  C_25
REMARK    7  A    between atoms: C_25  and  C_26
REMARK                            x       y       z     vdW  Elec       q    Type
REMARK                         _______ _______ _______ _____ _____    ______ ____
ROOT
ATOM      1  N   UNL     1       6.412  -0.827   4.377  0.00  0.00    -0.282 N 
ATOM      2  C   UNL     1       7.568  -1.408   4.756  0.00  0.00    +0.262 C 
ATOM      3  O   UNL     1       7.742  -2.595   4.568  0.00  0.00    -0.269 OA
ATOM      4  H   UNL     1       6.274   0.121   4.528  0.00  0.00    +0.152 HD
ENDROOT
BRANCH   2   5
ATOM      5  C   UNL     1       8.626  -0.598   5.403  0.00  0.00    +0.106 A 
ATOM      6  N   UNL     1       9.793  -1.192   5.785  0.00  0.00    -0.354 N 
ATOM      7  C   UNL     1      10.784  -0.484   6.378  0.00  0.00    +0.133 A 
ATOM      8  C   UNL     1      10.643   0.847   6.613  0.00  0.00    +0.183 A 
ATOM      9  C   UNL     1       9.445   1.496   6.230  0.00  0.00    +0.224 A 
ATOM     10  O   UNL     1       9.293   2.693   6.430  0.00  0.00    -0.284 OA
ATOM     11  C   UNL     1       8.427   0.734   5.607  0.00  0.00    +0.085 A 
ATOM     12  H   UNL     1       9.916  -2.141   5.628  0.00  0.00    +0.166 HD
BRANCH   8  13
ATOM     13  O   UNL     1      11.644   1.548   7.210  0.00  0.00    -0.482 OA
BRANCH  13  14
ATOM     14  C   UNL     1      12.821   0.822   7.567  0.00  0.00    +0.264 C 
BRANCH  14  15
ATOM     15  C   UNL     1      13.812   1.757   8.212  0.00  0.00    -0.010 A 
ATOM     16  C   UNL     1      14.735   2.429   7.434  0.00  0.00    +0.008 A 
ATOM     17  C   UNL     1      15.644   3.287   8.024  0.00  0.00    +0.020 A 
ATOM     18  C   UNL     1      15.629   3.472   9.395  0.00  0.00    +0.041 A 
ATOM     19  C   UNL     1      14.705   2.799  10.174  0.00  0.00    +0.020 A 
ATOM     20  C   UNL     1      13.793   1.946   9.582  0.00  0.00    +0.008 A 
ATOM     21 CL   UNL     1      16.771   4.549  10.138  0.00  0.00    -0.084 Cl
ENDBRANCH  14  15
ENDBRANCH  13  14
ENDBRANCH   8  13
ENDBRANCH   2   5
BRANCH   1  25
ATOM     22  C   UNL     1       4.164  -0.959   1.377  0.00  0.00    +0.099 C 
ATOM     23  N   UNL     1       3.568  -0.631   2.474  0.00  0.00    -0.182 NA
ATOM     24  N   UNL     1       4.070  -0.911   3.725  0.00  0.00    -0.238 N 
ATOM     25  C   UNL     1       5.365  -1.628   3.737  0.00  0.00    +0.241 C 
ATOM     26  S   UNL     1       5.648  -1.789   1.926  0.00  0.00    -0.065 S 
ATOM     27  H   UNL     1       3.608  -0.657   4.539  0.00  0.00    +0.171 HD
BRANCH  22  28
ATOM     28  C   UNL     1       3.711  -0.707  -0.038  0.00  0.00    +0.099 C 
BRANCH  28  32
ATOM     29  C   UNL     1      -0.017   1.378   0.010  0.00  0.00    +0.000 A 
ATOM     30  C   UNL     1       1.171   2.086   0.002  0.00  0.00    +0.000 A 
ATOM     31  C   UNL     1       2.377   1.411  -0.013  0.00  0.00    +0.004 A 
ATOM     32  C   UNL     1       2.396   0.029  -0.020  0.00  0.00    -0.041 A 
ATOM     33  C   UNL     1       1.208  -0.679  -0.012  0.00  0.00    +0.004 A 
ATOM     34  C   UNL     1       0.002  -0.004   0.002  0.00  0.00    +0.000 A 
ENDBRANCH  28  32
ENDBRANCH  22  28
ENDBRANCH   1  25
TORSDOF 7
