REMARK  Name = ZINC09504034
REMARK  11 active torsions:
REMARK  status: ('A' for Active; 'I' for Inactive)
REMARK    1  A    between atoms: C_1  and  C_2
REMARK    2  A    between atoms: C_2  and  C_3
REMARK    3  A    between atoms: C_2  and  C_4
REMARK    4  A    between atoms: C_7  and  C_10
REMARK    5  A    between atoms: C_10  and  C_12
REMARK    6  A    between atoms: C_10  and  N_50
REMARK    7  A    between atoms: C_13  and  C_15
REMARK    8  A    between atoms: C_13  and  C_16
REMARK    9  A    between atoms: C_13  and  N_50
REMARK   10  A    between atoms: N_18  and  C_19
REMARK   11  A    between atoms: C_21  and  N_26
REMARK                            x       y       z     vdW  Elec       q    Type
REMARK                         _______ _______ _______ _____ _____    ______ ____
ROOT
ATOM      1  C   UNL     1      -4.918   3.687   4.056  0.00  0.00    +0.014 C 
ATOM      2  C   UNL     1      -5.800   3.670   5.306  0.00  0.00    -0.004 C 
ENDROOT
BRANCH   1   3
ATOM      3  C   UNL     1      -5.487   4.656   3.053  0.00  0.00    +0.203 C 
ATOM      4  O   UNL     1      -4.825   5.601   2.679  0.00  0.00    -0.277 OA
ATOM      5  N   UNL     1      -6.732   4.472   2.570  0.00  0.00    -0.286 N 
ATOM      6  H   UNL     1      -7.282   3.749   2.910  0.00  0.00    +0.155 HD
BRANCH   5   7
ATOM      7  C   UNL     1      -7.232   5.325   1.579  0.00  0.00    +0.054 A 
ATOM      8  C   UNL     1      -6.735   6.616   1.457  0.00  0.00    +0.057 A 
ATOM      9  C   UNL     1      -7.230   7.455   0.477  0.00  0.00    +0.128 A 
ATOM     10  C   UNL     1      -8.219   7.011  -0.381  0.00  0.00    +0.034 A 
ATOM     11  C   UNL     1      -8.716   5.726  -0.263  0.00  0.00    +0.024 A 
ATOM     12  C   UNL     1      -8.221   4.880   0.711  0.00  0.00    +0.062 A 
ATOM     13 CL   UNL     1      -8.841   3.264   0.855  0.00  0.00    -0.082 Cl
BRANCH   9  14
ATOM     14  N   UNL     1      -6.700   8.831   0.347  0.00  0.00    +0.056 N 
ATOM     15  O   UNL     1      -5.829   9.223   1.102  0.00  0.00    -0.126 OA
ATOM     16  O   UNL     1      -7.136   9.572  -0.516  0.00  0.00    -0.126 OA
ENDBRANCH   9  14
ENDBRANCH   5   7
ENDBRANCH   1   3
BRANCH   1  17
ATOM     17  N   UNL     1      -3.554   4.114   4.422  0.00  0.00    +0.391 N 
ATOM     18  H   UNL     1      -3.124   4.595   3.623  0.00  0.00    -0.084 HD
ATOM     19  H   UNL     1      -3.603   4.756   5.222  0.00  0.00    -0.084 HD
BRANCH  17  20
ATOM     20  C   UNL     1      -2.731   2.945   4.786  0.00  0.00    -0.043 C 
ATOM     21  C   UNL     1      -1.676   3.372   5.808  0.00  0.00    -0.009 C 
BRANCH  20  25
ATOM     22  C   UNL     1      -0.798   1.421   1.295  0.00  0.00    -0.045 A 
ATOM     23  C   UNL     1      -0.908   2.786   1.484  0.00  0.00    +0.004 A 
ATOM     24  C   UNL     1      -1.539   3.279   2.611  0.00  0.00    +0.002 A 
ATOM     25  C   UNL     1      -2.050   2.407   3.554  0.00  0.00    -0.062 A 
ATOM     26  C   UNL     1      -1.935   1.042   3.368  0.00  0.00    +0.002 A 
ATOM     27  C   UNL     1      -1.310   0.549   2.238  0.00  0.00    +0.004 A 
BRANCH  22  29
ATOM     28  C   UNL     1       1.329   1.385   0.021  0.00  0.00    +0.012 C 
ATOM     29  C   UNL     1      -0.116   0.883   0.064  0.00  0.00    +0.013 C 
ATOM     30  C   UNL     1      -0.860   1.365  -1.183  0.00  0.00    +0.012 C 
ENDBRANCH  22  29
ENDBRANCH  20  25
ENDBRANCH  17  20
ENDBRANCH   1  17
TORSDOF 7
