REMARK  Name = ZINC48687464
REMARK  3 active torsions:
REMARK  status: ('A' for Active; 'I' for Inactive)
REMARK    1  A    between atoms: C_1  and  N_2
REMARK    2  A    between atoms: C_3  and  C_9
REMARK    3  A    between atoms: C_15  and  C_17
REMARK                            x       y       z     vdW  Elec       q    Type
REMARK                         _______ _______ _______ _____ _____    ______ ____
ROOT
ATOM      1  C   UNL     1       0.214  -0.342  -2.505  0.00  0.00    +0.264 C 
ATOM      2  O   UNL     1       0.169  -1.145  -3.419  0.00  0.00    -0.268 OA
ATOM      3  N   UNL     1       0.384   0.969  -2.768  0.00  0.00    -0.288 N 
ATOM      4  C   UNL     1       0.586   2.028  -1.763  0.00  0.00    +0.109 C 
ATOM      5  C   UNL     1       1.324   3.159  -2.522  0.00  0.00    +0.021 C 
ATOM      6  C   UNL     1       0.649   3.090  -3.917  0.00  0.00    +0.030 C 
ATOM      7  C   UNL     1       0.404   1.578  -4.106  0.00  0.00    +0.123 C 
ENDROOT
BRANCH   1  10
ATOM      8  C   UNL     1       0.113  -3.292  -1.561  0.00  0.00    +0.150 C 
ATOM      9  N   UNL     1       0.039  -2.111  -0.696  0.00  0.00    -0.329 N 
ATOM     10  C   UNL     1       0.085  -0.801  -1.119  0.00  0.00    +0.107 A 
ATOM     11  C   UNL     1      -0.014   0.002  -0.001  0.00  0.00    +0.054 A 
ATOM     12  C   UNL     1      -0.120  -0.846   1.105  0.00  0.00    +0.078 A 
ATOM     13  C   UNL     1      -0.091  -2.126   0.654  0.00  0.00    +0.128 A 
ATOM     14 CL   UNL     1      -0.199  -3.548   1.643  0.00  0.00    -0.062 Cl
ATOM     15 CL   UNL     1      -0.269  -0.350   2.762  0.00  0.00    -0.080 Cl
ENDBRANCH   1  10
BRANCH   7  16
ATOM     16  C   UNL     1      -0.921   1.358  -4.790  0.00  0.00    +0.037 A 
ATOM     17  C   UNL     1      -2.128   1.343  -4.189  0.00  0.00    +0.024 A 
ATOM     18  C   UNL     1      -3.093   1.107  -5.187  0.00  0.00    +0.019 A 
ATOM     19  C   UNL     1      -2.439   0.986  -6.361  0.00  0.00    +0.083 A 
ATOM     20  N   UNL     1      -1.106   1.145  -6.124  0.00  0.00    -0.363 N 
ATOM     21  H   UNL     1      -0.405   1.110  -6.793  0.00  0.00    +0.165 HD
ENDBRANCH   7  16
TORSDOF 2
