REMARK  Name = ZINC43041374
REMARK  5 active torsions:
REMARK  status: ('A' for Active; 'I' for Inactive)
REMARK    1  A    between atoms: C_4  and  O_29
REMARK    2  A    between atoms: C_5  and  C_7
REMARK    3  A    between atoms: C_7  and  N_8
REMARK    4  A    between atoms: C_12  and  C_15
REMARK    5  A    between atoms: C_16  and  C_21
REMARK                            x       y       z     vdW  Elec       q    Type
REMARK                         _______ _______ _______ _____ _____    ______ ____
ROOT
ATOM      1  N   UNL     1       1.369  -2.675   1.372  0.00  0.00    -0.297 NA
ATOM      2  C   UNL     1       2.620  -2.201   1.977  0.00  0.00    +0.085 C 
ATOM      3  C   UNL     1       2.660  -2.606   3.452  0.00  0.00    +0.016 C 
ATOM      4  C   UNL     1       2.564  -4.130   3.562  0.00  0.00    +0.012 C 
ATOM      5  C   UNL     1       1.275  -4.601   2.882  0.00  0.00    +0.052 C 
ATOM      6  C   UNL     1       1.275  -4.139   1.423  0.00  0.00    +0.094 C 
ENDROOT
BRANCH   5   7
ATOM      7  C   UNL     1       1.200  -6.106   2.934  0.00  0.00    +0.048 A 
ATOM      8  C   UNL     1       0.220  -6.843   3.530  0.00  0.00    +0.028 A 
ATOM      9  C   UNL     1       0.538  -8.203   3.344  0.00  0.00    +0.143 A 
ATOM     10  N   UNL     1       1.655  -8.270   2.670  0.00  0.00    -0.181 NA
ATOM     11  N   UNL     1       2.088  -6.967   2.395  0.00  0.00    -0.281 N 
ATOM     12  H   UNL     1       2.889  -6.725   1.904  0.00  0.00    +0.189 HD
BRANCH   8  13
ATOM     13  C   UNL     1      -0.967  -6.310   4.245  0.00  0.00    +0.056 A 
ATOM     14  C   UNL     1      -2.152  -6.069   3.551  0.00  0.00    +0.134 A 
ATOM     15  C   UNL     1      -3.255  -5.572   4.223  0.00  0.00    +0.039 A 
ATOM     16  C   UNL     1      -3.183  -5.315   5.580  0.00  0.00    +0.006 A 
ATOM     17  C   UNL     1      -2.010  -5.552   6.274  0.00  0.00    +0.039 A 
ATOM     18  C   UNL     1      -0.903  -6.054   5.615  0.00  0.00    +0.134 A 
ATOM     19  F   UNL     1       0.240  -6.291   6.295  0.00  0.00    -0.205 F 
ATOM     20  F   UNL     1      -2.224  -6.320   2.226  0.00  0.00    -0.205 F 
ENDBRANCH   8  13
ENDBRANCH   5   7
BRANCH   1  21
ATOM     21  C   UNL     1       1.232  -2.186  -0.006  0.00  0.00    +0.123 C 
BRANCH  21  26
ATOM     22  C   UNL     1       1.678   1.552  -0.295  0.00  0.00    +0.001 A 
ATOM     23  C   UNL     1       0.419   2.011   0.044  0.00  0.00    +0.004 A 
ATOM     24  C   UNL     1      -0.580   1.114   0.368  0.00  0.00    +0.046 A 
ATOM     25  C   UNL     1      -0.319  -0.249   0.352  0.00  0.00    +0.121 A 
ATOM     26  C   UNL     1       0.945  -0.707   0.011  0.00  0.00    +0.008 A 
ATOM     27  C   UNL     1       1.941   0.195  -0.311  0.00  0.00    +0.008 A 
BRANCH  25  28
ATOM     28  O   UNL     1      -1.301  -1.134   0.670  0.00  0.00    -0.506 OA
ATOM     29  H   UNL     1      -1.879  -1.364  -0.070  0.00  0.00    +0.292 HD
ENDBRANCH  25  28
ENDBRANCH  21  26
ENDBRANCH   1  21
TORSDOF 5
