REMARK  Name = ZINC36602544
REMARK  14 active torsions:
REMARK  status: ('A' for Active; 'I' for Inactive)
REMARK    1  A    between atoms: C_1  and  C_2
REMARK    2  A    between atoms: C_5  and  C_7
REMARK    3  A    between atoms: C_7  and  N_8
REMARK    4  A    between atoms: N_8  and  C_9
REMARK    5  A    between atoms: C_9  and  C_11
REMARK    6  A    between atoms: C_9  and  C_20
REMARK    7  A    between atoms: C_12  and  O_19
REMARK    8  A    between atoms: C_14  and  O_18
REMARK    9  A    between atoms: C_16  and  O_17
REMARK   10  A    between atoms: N_22  and  C_23
REMARK   11  A    between atoms: C_23  and  C_24
REMARK   12  A    between atoms: C_23  and  C_25
REMARK   13  A    between atoms: C_23  and  C_26
REMARK   14  A    between atoms: C_27  and  C_29
REMARK                            x       y       z     vdW  Elec       q    Type
REMARK                         _______ _______ _______ _____ _____    ______ ____
ROOT
ATOM      1  C   UNL     1       2.911  -1.211  -3.354  0.00  0.00    +0.200 C 
ENDROOT
BRANCH   1   2
ATOM      2  C   UNL     1       1.413  -1.111  -3.491  0.00  0.00    +0.065 A 
ATOM      3  C   UNL     1       0.676  -0.408  -2.550  0.00  0.00    +0.129 A 
ATOM      4  C   UNL     1      -0.702  -0.317  -2.677  0.00  0.00    +0.091 A 
ATOM      5  C   UNL     1      -1.343  -0.927  -3.744  0.00  0.00    +0.124 A 
ATOM      6  C   UNL     1      -0.605  -1.630  -4.685  0.00  0.00    +0.091 A 
ATOM      7  C   UNL     1       0.773  -1.718  -4.561  0.00  0.00    +0.129 A 
BRANCH   7   8
ATOM      8  O   UNL     1       1.496  -2.402  -5.486  0.00  0.00    -0.506 OA
ATOM      9  H   UNL     1       1.139  -3.276  -5.696  0.00  0.00    +0.292 HD
ENDBRANCH   7   8
BRANCH   5  10
ATOM     10  O   UNL     1      -2.693  -0.838  -3.867  0.00  0.00    -0.507 OA
ATOM     11  H   UNL     1      -2.991  -0.075  -4.380  0.00  0.00    +0.292 HD
ENDBRANCH   5  10
BRANCH   3  12
ATOM     12  O   UNL     1       1.304   0.190  -1.504  0.00  0.00    -0.506 OA
ATOM     13  H   UNL     1       1.448   1.139  -1.623  0.00  0.00    +0.292 HD
ENDBRANCH   3  12
ENDBRANCH   1   2
BRANCH   1  14
ATOM     14  C   UNL     1       3.386  -2.505  -3.963  0.00  0.00    +0.239 C 
ATOM     15  O   UNL     1       3.549  -3.481  -3.262  0.00  0.00    -0.273 OA
ATOM     16  N   UNL     1       3.629  -2.577  -5.287  0.00  0.00    -0.309 N 
ATOM     17  H   UNL     1       3.361  -1.850  -5.870  0.00  0.00    +0.149 HD
BRANCH  16  18
ATOM     18  C   UNL     1       4.298  -3.755  -5.845  0.00  0.00    +0.026 C 
ATOM     19  C   UNL     1       3.456  -5.001  -5.565  0.00  0.00    +0.031 C 
ATOM     20  C   UNL     1       4.463  -3.579  -7.356  0.00  0.00    +0.031 C 
ATOM     21  C   UNL     1       5.676  -3.914  -5.197  0.00  0.00    +0.031 C 
ENDBRANCH  16  18
ENDBRANCH   1  14
BRANCH   1  22
ATOM     22  N   UNL     1       3.274  -1.177  -1.935  0.00  0.00    -0.274 N 
ATOM     23  C   UNL     1       2.658  -1.998  -1.061  0.00  0.00    +0.249 C 
ATOM     24  O   UNL     1       3.172  -2.237   0.014  0.00  0.00    -0.270 OA
BRANCH  23  25
ATOM     25  C   UNL     1       1.358  -2.607  -1.411  0.00  0.00    +0.055 A 
ATOM     26  C   UNL     1       1.080  -2.956  -2.734  0.00  0.00    +0.014 A 
ATOM     27  C   UNL     1      -0.135  -3.525  -3.053  0.00  0.00    +0.001 A 
ATOM     28  C   UNL     1      -1.078  -3.750  -2.066  0.00  0.00    +0.001 A 
ATOM     29  C   UNL     1      -0.811  -3.407  -0.754  0.00  0.00    +0.021 A 
ATOM     30  C   UNL     1       0.404  -2.842  -0.418  0.00  0.00    +0.053 A 
ATOM     31 CL   UNL     1       0.741  -2.419   1.231  0.00  0.00    -0.083 Cl
ENDBRANCH  23  25
BRANCH  22  32
ATOM     32  C   UNL     1       4.308  -0.250  -1.466  0.00  0.00    +0.183 C 
BRANCH  32  37
ATOM     33  C   UNL     1       2.448   4.437  -1.592  0.00  0.00    +0.086 C 
ATOM     34  C   UNL     1       2.856   3.078  -1.082  0.00  0.00    +0.102 A 
ATOM     35  C   UNL     1       2.689   2.626   0.174  0.00  0.00    +0.045 A 
ATOM     36  C   UNL     1       3.210   1.312   0.209  0.00  0.00    +0.046 A 
ATOM     37  C   UNL     1       3.664   1.040  -1.028  0.00  0.00    +0.122 A 
ATOM     38  O   UNL     1       3.441   2.111  -1.807  0.00  0.00    -0.463 OA
ENDBRANCH  32  37
ENDBRANCH  22  32
ENDBRANCH   1  22
TORSDOF 10
