REMARK  Name = ZINC04410002
REMARK  6 active torsions:
REMARK  status: ('A' for Active; 'I' for Inactive)
REMARK    1  A    between atoms: C_1  and  O_2
REMARK    2  A    between atoms: O_2  and  C_3
REMARK    3  A    between atoms: C_5  and  C_10
REMARK    4  A    between atoms: C_8  and  O_9
REMARK    5  A    between atoms: N_11  and  N_12
REMARK    6  A    between atoms: C_15  and  C_18
REMARK                            x       y       z     vdW  Elec       q    Type
REMARK                         _______ _______ _______ _____ _____    ______ ____
ROOT
ATOM      1  N   UNL     1      -7.102   0.290   0.055  0.00  0.00    -0.124 NA
ATOM      2  C   UNL     1      -8.271  -0.332   0.063  0.00  0.00    +0.192 A 
ATOM      3  N   UNL     1      -9.538   0.199   0.068  0.00  0.00    -0.332 N 
ATOM      4  C   UNL     1     -10.607  -0.652   0.076  0.00  0.00    +0.055 A 
ATOM      5  C   UNL     1     -10.398  -1.986   0.079  0.00  0.00    +0.075 A 
ATOM      6  S   UNL     1      -8.616  -2.085   0.062  0.00  0.00    -0.056 S 
ATOM      7  H   UNL     1      -9.671   1.160   0.066  0.00  0.00    +0.168 HD
ENDROOT
BRANCH   4   8
ATOM      8  C   UNL     1     -11.985  -0.114   0.082  0.00  0.00    -0.001 A 
ATOM      9  C   UNL     1     -12.199   1.265   0.073  0.00  0.00    +0.011 A 
ATOM     10  C   UNL     1     -13.487   1.760   0.078  0.00  0.00    +0.016 A 
ATOM     11  C   UNL     1     -14.565   0.892   0.092  0.00  0.00    +0.018 A 
ATOM     12  C   UNL     1     -14.359  -0.477   0.101  0.00  0.00    +0.016 A 
ATOM     13  C   UNL     1     -13.076  -0.985   0.090  0.00  0.00    +0.011 A 
ATOM     14 BR   UNL     1     -16.327   1.579   0.099  0.00  0.00    -0.050 Br
ENDBRANCH   4   8
BRANCH   1  16
ATOM     15  C   UNL     1      -4.854   0.222   0.038  0.00  0.00    +0.143 C 
ATOM     16  N   UNL     1      -6.008  -0.393   0.046  0.00  0.00    -0.155 NA
BRANCH  15  19
ATOM     17  C   UNL     1      -1.201  -0.638   0.010  0.00  0.00    +0.162 A 
ATOM     18  C   UNL     1      -2.370   0.099   0.019  0.00  0.00    +0.059 A 
ATOM     19  C   UNL     1      -3.606  -0.556   0.028  0.00  0.00    -0.002 A 
ATOM     20  C   UNL     1      -3.651  -1.954   0.026  0.00  0.00    +0.013 A 
ATOM     21  C   UNL     1      -2.480  -2.681   0.017  0.00  0.00    +0.050 A 
ATOM     22  C   UNL     1      -1.255  -2.030   0.003  0.00  0.00    +0.158 A 
BRANCH  17  24
ATOM     23  C   UNL     1      -0.017   1.425   0.010  0.00  0.00    +0.277 C 
ATOM     24  O   UNL     1       0.002  -0.004   0.002  0.00  0.00    -0.491 OA
ENDBRANCH  17  24
BRANCH  22  25
ATOM     25  O   UNL     1      -0.103  -2.753  -0.012  0.00  0.00    -0.503 OA
ATOM     26  H   UNL     1       0.239  -2.966   0.867  0.00  0.00    +0.292 HD
ENDBRANCH  22  25
ENDBRANCH  15  19
ENDBRANCH   1  16
TORSDOF 5
