REMARK  Name = ZINC09080717
REMARK  14 active torsions:
REMARK  status: ('A' for Active; 'I' for Inactive)
REMARK    1  A    between atoms: C_1  and  N_2
REMARK    2  A    between atoms: N_2  and  C_3
REMARK    3  A    between atoms: N_2  and  C_4
REMARK    4  A    between atoms: C_7  and  C_10
REMARK    5  A    between atoms: C_10  and  C_12
REMARK    6  A    between atoms: C_10  and  S_29
REMARK    7  A    between atoms: C_12  and  N_13
REMARK    8  A    between atoms: C_14  and  C_16
REMARK    9  A    between atoms: N_18  and  C_19
REMARK   10  A    between atoms: C_19  and  C_20
REMARK   11  A    between atoms: C_20  and  C_21
REMARK   12  A    between atoms: C_25  and  O_27
REMARK   13  A    between atoms: O_27  and  C_28
REMARK   14  A    between atoms: S_29  and  C_32
REMARK                            x       y       z     vdW  Elec       q    Type
REMARK                         _______ _______ _______ _____ _____    ______ ____
ROOT
ATOM      1  C   UNL     1      -2.439   0.671   0.017  0.00  0.00    +0.183 C 
ENDROOT
BRANCH   1   5
ATOM      2  C   UNL     1      -6.169   2.757   0.046  0.00  0.00    +0.029 A 
ATOM      3  C   UNL     1      -5.860   1.899  -1.001  0.00  0.00    +0.023 A 
ATOM      4  C   UNL     1      -4.654   1.226  -1.007  0.00  0.00    +0.007 A 
ATOM      5  C   UNL     1      -3.754   1.407   0.028  0.00  0.00    -0.021 A 
ATOM      6  C   UNL     1      -4.061   2.256   1.074  0.00  0.00    +0.007 A 
ATOM      7  C   UNL     1      -5.263   2.937   1.084  0.00  0.00    +0.023 A 
BRANCH   2   9
ATOM      8  C   UNL     1      -8.342   3.249  -1.039  0.00  0.00    +0.129 C 
ATOM      9  N   UNL     1      -7.388   3.439   0.056  0.00  0.00    -0.336 N 
ATOM     10  C   UNL     1      -7.712   4.344   1.161  0.00  0.00    +0.129 C 
ENDBRANCH   2   9
ENDBRANCH   1   5
BRANCH   1  11
ATOM     11  S   UNL     1      -2.322  -0.379   1.492  0.00  0.00    +0.005 S 
ATOM     12  O   UNL     1      -3.476  -1.200   1.601  0.00  0.00    -0.169 OA
ATOM     13  O   UNL     1      -1.020  -0.940   1.591  0.00  0.00    -0.169 OA
BRANCH  11  14
ATOM     14  C   UNL     1      -2.434   0.737   2.852  0.00  0.00    +0.089 A 
ATOM     15  C   UNL     1      -1.287   1.296   3.383  0.00  0.00    +0.030 A 
ATOM     16  C   UNL     1      -1.374   2.174   4.446  0.00  0.00    +0.040 A 
ATOM     17  C   UNL     1      -2.610   2.487   4.986  0.00  0.00    +0.124 A 
ATOM     18  C   UNL     1      -3.758   1.922   4.456  0.00  0.00    +0.040 A 
ATOM     19  C   UNL     1      -3.669   1.048   3.389  0.00  0.00    +0.030 A 
ATOM     20  F   UNL     1      -2.697   3.342   6.028  0.00  0.00    -0.205 F 
ENDBRANCH  11  14
ENDBRANCH   1  11
BRANCH   1  21
ATOM     21  C   UNL     1      -1.290   1.681   0.017  0.00  0.00    +0.136 C 
BRANCH  21  22
ATOM     22  N   UNL     1      -0.011   0.966   0.007  0.00  0.00    -0.305 N 
ATOM     23  C   UNL     1       1.147   1.655   0.000  0.00  0.00    +0.299 C 
ATOM     24  O   UNL     1       1.130   2.869   0.007  0.00  0.00    -0.265 OA
ATOM     25  H   UNL     1       0.002  -0.004   0.002  0.00  0.00    +0.149 HD
BRANCH  23  26
ATOM     26  C   UNL     1       2.451   0.926  -0.016  0.00  0.00    +0.299 C 
ATOM     27  O   UNL     1       2.467  -0.287  -0.023  0.00  0.00    -0.265 OA
ATOM     28  N   UNL     1       3.609   1.616  -0.024  0.00  0.00    -0.307 N 
ATOM     29  H   UNL     1       3.596   2.586  -0.018  0.00  0.00    +0.149 HD
BRANCH  28  30
ATOM     30  C   UNL     1       4.887   0.900  -0.040  0.00  0.00    +0.109 C 
BRANCH  30  31
ATOM     31  C   UNL     1       6.037   1.911  -0.045  0.00  0.00    +0.054 C 
BRANCH  31  32
ATOM     32  C   UNL     1       7.352   1.175  -0.062  0.00  0.00    -0.042 A 
ATOM     33  C   UNL     1       7.969   0.836   1.129  0.00  0.00    +0.004 A 
ATOM     34  C   UNL     1       9.173   0.156   1.117  0.00  0.00    +0.004 A 
ATOM     35  C   UNL     1       9.768  -0.176  -0.085  0.00  0.00    +0.045 A 
ATOM     36  C   UNL     1       9.153   0.167  -1.280  0.00  0.00    +0.120 A 
ATOM     37  C   UNL     1       7.943   0.844  -1.266  0.00  0.00    +0.049 A 
BRANCH  36  38
ATOM     38  O   UNL     1       9.737  -0.159  -2.464  0.00  0.00    -0.495 OA
ATOM     39  C   UNL     1      10.983  -0.856  -2.402  0.00  0.00    +0.277 C 
ENDBRANCH  36  38
ENDBRANCH  31  32
ENDBRANCH  30  31
ENDBRANCH  28  30
ENDBRANCH  23  26
ENDBRANCH  21  22
ENDBRANCH   1  21
TORSDOF 11
