REMARK  Name = ZINC21664021
REMARK  7 active torsions:
REMARK  status: ('A' for Active; 'I' for Inactive)
REMARK    1  A    between atoms: C_1  and  C_2
REMARK    2  A    between atoms: C_2  and  N_3
REMARK    3  A    between atoms: N_6  and  C_9
REMARK    4  A    between atoms: C_9  and  C_10
REMARK    5  A    between atoms: C_10  and  C_11
REMARK    6  A    between atoms: C_11  and  N_12
REMARK    7  A    between atoms: C_13  and  C_15
REMARK                            x       y       z     vdW  Elec       q    Type
REMARK                         _______ _______ _______ _____ _____    ______ ____
ROOT
ATOM      1  C   UNL     1      -3.726  -6.266  -0.989  0.00  0.00    +0.092 C 
ATOM      2  C   UNL     1      -5.146  -6.834  -1.063  0.00  0.00    +0.016 C 
ATOM      3  C   UNL     1      -5.074  -8.330  -1.380  0.00  0.00    +0.020 C 
ATOM      4  C   UNL     1      -4.316  -8.532  -2.694  0.00  0.00    +0.107 C 
ATOM      5  N   UNL     1      -2.964  -7.973  -2.572  0.00  0.00    -0.307 N 
ATOM      6  C   UNL     1      -3.008  -6.528  -2.315  0.00  0.00    +0.119 C 
ATOM      7  C   UNL     1      -2.208  -8.254  -3.697  0.00  0.00    +0.184 A 
ATOM      8  N   UNL     1      -1.181  -9.052  -3.818  0.00  0.00    -0.139 NA
ATOM      9  N   UNL     1      -0.531  -9.218  -5.037  0.00  0.00    -0.169 N 
ATOM     10  C   UNL     1       0.546 -10.012  -5.297  0.00  0.00    +0.279 A 
ATOM     11  O   UNL     1       1.042 -10.676  -4.400  0.00  0.00    -0.265 OA
ATOM     12  C   UNL     1       1.088 -10.070  -6.589  0.00  0.00    +0.040 A 
ATOM     13  C   UNL     1       0.523  -9.320  -7.589  0.00  0.00    +0.053 A 
ATOM     14  N   UNL     1      -0.529  -8.550  -7.299  0.00  0.00    -0.226 NA
ATOM     15  C   UNL     1      -1.026  -8.503  -6.091  0.00  0.00    +0.201 A 
ATOM     16  S   UNL     1      -2.388  -7.623  -5.357  0.00  0.00    -0.013 S 
ATOM     17  C   UNL     1       1.033  -9.328  -9.004  0.00  0.00    +0.056 C 
ATOM     18  C   UNL     1       2.450  -9.896  -9.059  0.00  0.00    +0.006 C 
ATOM     19  C   UNL     1       2.463 -11.235  -8.312  0.00  0.00    +0.005 C 
ATOM     20  C   UNL     1       2.282 -10.958  -6.820  0.00  0.00    +0.042 C 
ENDROOT
BRANCH   1  22
ATOM     21  N   UNL     1      -2.653  -4.066  -0.636  0.00  0.00    -0.315 N 
ATOM     22  C   UNL     1      -3.790  -4.782  -0.736  0.00  0.00    +0.218 C 
ATOM     23  O   UNL     1      -4.865  -4.232  -0.622  0.00  0.00    -0.275 OA
ATOM     24  H   UNL     1      -1.678  -4.564  -0.740  0.00  0.00    +0.149 HD
BRANCH  21  25
ATOM     25  C   UNL     1      -2.715  -2.623  -0.390  0.00  0.00    +0.105 C 
BRANCH  25  26
ATOM     26  C   UNL     1      -1.296  -2.055  -0.321  0.00  0.00    +0.034 C 
BRANCH  26  27
ATOM     27  C   UNL     1      -1.361  -0.549  -0.064  0.00  0.00    +0.086 C 
BRANCH  27  31
ATOM     28  N   UNL     1       2.138   1.472   1.171  0.00  0.00    +0.381 N 
ATOM     29  C   UNL     1       1.419   1.992  -0.001  0.00  0.00    -0.063 C 
ATOM     30  C   UNL     1      -0.018   1.465   0.010  0.00  0.00    +0.066 C 
ATOM     31  N   UNL     1       0.002  -0.004   0.002  0.00  0.00    -0.306 NA
ATOM     32  C   UNL     1       0.721  -0.525   1.173  0.00  0.00    +0.066 C 
ATOM     33  C   UNL     1       2.158   0.003   1.162  0.00  0.00    -0.063 C 
ATOM     34  H   UNL     1       1.600   1.799   2.072  0.00  0.00    -0.082 HD
BRANCH  28  36
ATOM     35  C   UNL     1       3.436   3.523   1.494  0.00  0.00    -0.017 C 
ATOM     36  C   UNL     1       3.501   2.017   1.237  0.00  0.00    -0.082 C 
ENDBRANCH  28  36
ENDBRANCH  27  31
ENDBRANCH  26  27
ENDBRANCH  25  26
ENDBRANCH  21  25
ENDBRANCH   1  22
TORSDOF 6
