REMARK  Name = ZINC14511512
REMARK  12 active torsions:
REMARK  status: ('A' for Active; 'I' for Inactive)
REMARK    1  A    between atoms: C_1  and  C_2
REMARK    2  A    between atoms: C_5  and  C_37
REMARK    3  A    between atoms: N_6  and  C_7
REMARK    4  A    between atoms: C_10  and  C_13
REMARK    5  A    between atoms: N_15  and  C_16
REMARK    6  A    between atoms: N_15  and  C_20
REMARK    7  A    between atoms: C_16  and  C_17
REMARK    8  A    between atoms: C_17  and  O_18
REMARK    9  A    between atoms: O_18  and  C_19
REMARK   10  A    between atoms: C_21  and  N_36
REMARK   11  A    between atoms: N_22  and  C_29
REMARK   12  A    between atoms: C_29  and  C_30
REMARK                            x       y       z     vdW  Elec       q    Type
REMARK                         _______ _______ _______ _____ _____    ______ ____
ROOT
ATOM      1  C   UNL     1      -4.511  -3.446   0.033  0.00  0.00    +0.251 C 
ATOM      2  O   UNL     1      -3.485  -2.793   0.037  0.00  0.00    -0.270 OA
ATOM      3  N   UNL     1      -5.402  -3.308   1.036  0.00  0.00    -0.258 N 
ENDROOT
BRANCH   3   4
ATOM      4  C   UNL     1      -6.546  -4.131   1.081  0.00  0.00    +0.140 A 
ATOM      5  C   UNL     1      -7.500  -4.063   0.086  0.00  0.00    +0.128 A 
ATOM      6  N   UNL     1      -8.602  -4.883   0.155  0.00  0.00    -0.276 N 
ATOM      7  C   UNL     1      -8.754  -5.733   1.186  0.00  0.00    +0.331 A 
ATOM      8  O   UNL     1      -9.739  -6.446   1.232  0.00  0.00    -0.246 OA
ATOM      9  N   UNL     1      -7.838  -5.810   2.167  0.00  0.00    -0.273 N 
ATOM     10  H   UNL     1      -7.975  -6.452   2.922  0.00  0.00    +0.173 HD
ATOM     11  C   UNL     1      -6.737  -5.033   2.145  0.00  0.00    +0.277 A 
ATOM     12  O   UNL     1      -5.912  -5.111   3.040  0.00  0.00    -0.266 OA
BRANCH   5  13
ATOM     13  N   UNL     1      -7.347  -3.189  -0.964  0.00  0.00    -0.343 N 
ATOM     14  H   UNL     1      -6.537  -2.663  -1.043  0.00  0.00    +0.144 HD
ATOM     15  H   UNL     1      -8.051  -3.100  -1.626  0.00  0.00    +0.144 HD
ENDBRANCH   5  13
BRANCH   6  16
ATOM     16  C   UNL     1      -9.620  -4.824  -0.897  0.00  0.00    +0.163 C 
BRANCH  16  17
ATOM     17  C   UNL     1     -10.663  -3.800  -0.531  0.00  0.00    -0.028 A 
ATOM     18  C   UNL     1     -11.776  -4.176   0.197  0.00  0.00    +0.005 A 
ATOM     19  C   UNL     1     -12.730  -3.235   0.536  0.00  0.00    +0.000 A 
ATOM     20  C   UNL     1     -12.576  -1.920   0.140  0.00  0.00    +0.000 A 
ATOM     21  C   UNL     1     -11.465  -1.545  -0.593  0.00  0.00    +0.000 A 
ATOM     22  C   UNL     1     -10.509  -2.485  -0.928  0.00  0.00    +0.005 A 
ENDBRANCH  16  17
ENDBRANCH   6  16
ENDBRANCH   3   4
BRANCH   1  26
ATOM     23  C   UNL     1      -5.290  -6.160  -3.140  0.00  0.00    +0.047 A 
ATOM     24  C   UNL     1      -5.824  -6.396  -1.878  0.00  0.00    +0.027 A 
ATOM     25  C   UNL     1      -5.569  -5.522  -0.845  0.00  0.00    +0.015 A 
ATOM     26  C   UNL     1      -4.782  -4.390  -1.069  0.00  0.00    +0.037 A 
ATOM     27  C   UNL     1      -4.251  -4.152  -2.340  0.00  0.00    +0.015 A 
ATOM     28  C   UNL     1      -4.505  -5.035  -3.366  0.00  0.00    +0.027 A 
BRANCH  23  34
ATOM     29  C   UNL     1      -4.302  -9.063  -3.200  0.00  0.00    +0.064 C 
ATOM     30  C   UNL     1      -5.125  -8.352  -4.243  0.00  0.00    +0.021 A 
ATOM     31  C   UNL     1      -5.568  -8.886  -5.399  0.00  0.00    +0.023 A 
ATOM     32  C   UNL     1      -6.289  -7.883  -6.080  0.00  0.00    +0.023 A 
ATOM     33  C   UNL     1      -6.260  -6.774  -5.315  0.00  0.00    +0.021 A 
ATOM     34  N   UNL     1      -5.546  -7.054  -4.184  0.00  0.00    -0.318 N 
ATOM     35  C   UNL     1      -6.903  -5.452  -5.650  0.00  0.00    +0.064 C 
ENDBRANCH  23  34
ENDBRANCH   1  26
BRANCH   3  36
ATOM     36  C   UNL     1      -5.181  -2.303   2.078  0.00  0.00    +0.142 C 
BRANCH  36  37
ATOM     37  C   UNL     1      -5.925  -1.017   1.713  0.00  0.00    +0.179 C 
BRANCH  37  38
ATOM     38  O   UNL     1      -7.333  -1.264   1.718  0.00  0.00    -0.381 OA
ATOM     39  C   UNL     1      -8.125  -0.121   1.388  0.00  0.00    +0.194 C 
ENDBRANCH  37  38
ENDBRANCH  36  37
ENDBRANCH   3  36
TORSDOF 9
