REMARK  Name = ZINC35781262
REMARK  12 active torsions:
REMARK  status: ('A' for Active; 'I' for Inactive)
REMARK    1  A    between atoms: C_1  and  O_2
REMARK    2  A    between atoms: O_2  and  C_3
REMARK    3  A    between atoms: C_6  and  O_9
REMARK    4  A    between atoms: O_9  and  C_10
REMARK    5  A    between atoms: C_10  and  C_11
REMARK    6  A    between atoms: C_11  and  C_13
REMARK    7  A    between atoms: C_11  and  O_39
REMARK    8  A    between atoms: C_13  and  N_14
REMARK    9  A    between atoms: N_14  and  C_15
REMARK   10  A    between atoms: N_14  and  C_22
REMARK   11  A    between atoms: C_15  and  C_16
REMARK   12  A    between atoms: C_22  and  C_23
REMARK                            x       y       z     vdW  Elec       q    Type
REMARK                         _______ _______ _______ _____ _____    ______ ____
ROOT
ATOM      1  N   UNL     1       3.917  -6.195  -6.941  0.00  0.00    +0.389 N 
ATOM      2  H   UNL     1       3.622  -5.776  -7.810  0.00  0.00    -0.081 HD
ENDROOT
BRANCH   1   3
ATOM      3  C   UNL     1       3.122  -5.640  -5.837  0.00  0.00    -0.043 C 
BRANCH   3   4
ATOM      4  C   UNL     1       3.027  -4.121  -5.989  0.00  0.00    +0.135 C 
BRANCH   4   5
ATOM      5  O   UNL     1       4.318  -3.540  -5.790  0.00  0.00    -0.390 OA
ATOM      6  H   UNL     1       4.712  -3.745  -4.931  0.00  0.00    +0.210 HD
ENDBRANCH   4   5
BRANCH   4   7
ATOM      7  C   UNL     1       2.051  -3.564  -4.951  0.00  0.00    +0.258 C 
BRANCH   7   8
ATOM      8  O   UNL     1       1.873  -2.163  -5.168  0.00  0.00    -0.489 OA
BRANCH   8  12
ATOM      9  C   UNL     1      -0.689  -0.180  -2.610  0.00  0.00    +0.120 A 
ATOM     10  C   UNL     1      -0.046   0.515  -3.623  0.00  0.00    +0.049 A 
ATOM     11  C   UNL     1       0.811  -0.149  -4.479  0.00  0.00    +0.049 A 
ATOM     12  C   UNL     1       1.030  -1.510  -4.325  0.00  0.00    +0.121 A 
ATOM     13  C   UNL     1       0.388  -2.204  -3.311  0.00  0.00    +0.049 A 
ATOM     14  C   UNL     1      -0.466  -1.540  -2.452  0.00  0.00    +0.049 A 
BRANCH   9  16
ATOM     15  C   UNL     1      -1.715   1.873  -1.987  0.00  0.00    +0.277 C 
ATOM     16  O   UNL     1      -1.533   0.473  -1.767  0.00  0.00    -0.495 OA
ENDBRANCH   9  16
ENDBRANCH   8  12
ENDBRANCH   7   8
ENDBRANCH   4   7
ENDBRANCH   3   4
ENDBRANCH   1   3
BRANCH   1  17
ATOM     17  C   UNL     1       5.339  -5.906  -6.715  0.00  0.00    -0.042 C 
BRANCH  17  18
ATOM     18  C   UNL     1       5.822  -6.673  -5.511  0.00  0.00    -0.064 A 
ATOM     19  C   UNL     1       5.678  -6.136  -4.245  0.00  0.00    +0.002 A 
ATOM     20  C   UNL     1       6.122  -6.840  -3.141  0.00  0.00    +0.000 A 
ATOM     21  C   UNL     1       6.708  -8.081  -3.303  0.00  0.00    +0.000 A 
ATOM     22  C   UNL     1       6.851  -8.619  -4.568  0.00  0.00    +0.000 A 
ATOM     23  C   UNL     1       6.404  -7.917  -5.672  0.00  0.00    +0.002 A 
ENDBRANCH  17  18
ENDBRANCH   1  17
BRANCH   1  24
ATOM     24  C   UNL     1       3.716  -7.649  -7.006  0.00  0.00    -0.003 C 
BRANCH  24  25
ATOM     25  C   UNL     1       4.391  -8.194  -8.239  0.00  0.00    +0.094 A 
ATOM     26  N   UNL     1       4.317  -9.523  -8.507  0.00  0.00    -0.312 N 
ATOM     27  H   UNL     1       3.829 -10.103  -7.901  0.00  0.00    +0.170 HD
ATOM     28  C   UNL     1       4.905 -10.052  -9.596  0.00  0.00    +0.260 A 
ATOM     29  O   UNL     1       4.829 -11.247  -9.823  0.00  0.00    -0.267 OA
ATOM     30  C   UNL     1       5.622  -9.184 -10.484  0.00  0.00    +0.075 A 
ATOM     31  C   UNL     1       6.332  -9.538 -11.717  0.00  0.00    -0.023 A 
ATOM     32  C   UNL     1       6.937  -8.530 -12.378  0.00  0.00    -0.004 A 
ATOM     33  S   UNL     1       6.593  -7.076 -11.421  0.00  0.00    -0.073 S 
ATOM     34  C   UNL     1       5.643  -7.829 -10.126  0.00  0.00    +0.116 A 
ATOM     35  N   UNL     1       5.032  -7.378  -9.033  0.00  0.00    -0.229 NA
ATOM     36  C   UNL     1       7.740  -8.609 -13.639  0.00  0.00    +0.043 C 
ATOM     37  C   UNL     1       6.958  -9.414 -14.687  0.00  0.00    +0.005 C 
ATOM     38  C   UNL     1       7.326 -10.886 -14.536  0.00  0.00    +0.001 C 
ATOM     39  C   UNL     1       7.610 -11.206 -13.069  0.00  0.00    +0.005 C 
ATOM     40  C   UNL     1       6.365 -10.978 -12.221  0.00  0.00    +0.037 C 
ENDBRANCH  24  25
ENDBRANCH   1  24
TORSDOF 11
