REMARK  Name = ZINC45696441
REMARK  9 active torsions:
REMARK  status: ('A' for Active; 'I' for Inactive)
REMARK    1  A    between atoms: C_4  and  C_7
REMARK    2  A    between atoms: C_7  and  C_8
REMARK    3  A    between atoms: C_7  and  C_25
REMARK    4  A    between atoms: C_8  and  C_9
REMARK    5  A    between atoms: C_9  and  N_10
REMARK    6  A    between atoms: N_13  and  C_14
REMARK    7  A    between atoms: C_19  and  S_20
REMARK    8  A    between atoms: S_20  and  C_21
REMARK    9  A    between atoms: C_21  and  C_22
REMARK                            x       y       z     vdW  Elec       q    Type
REMARK                         _______ _______ _______ _____ _____    ______ ____
ROOT
ATOM      1  N   UNL     1       4.089  -1.287   3.613  0.00  0.00    -0.299 N 
ATOM      2  C   UNL     1       4.217  -0.661   4.800  0.00  0.00    +0.304 C 
ATOM      3  O   UNL     1       4.199   0.554   4.851  0.00  0.00    -0.253 OA
ATOM      4  N   UNL     1       4.365  -1.381   5.929  0.00  0.00    -0.268 N 
ATOM      5  H   UNL     1       4.104  -2.256   3.572  0.00  0.00    +0.150 HD
ATOM      6  H   UNL     1       4.466  -2.344   5.881  0.00  0.00    +0.156 HD
ENDROOT
BRANCH   4   7
ATOM      7  C   UNL     1       4.373  -0.737   7.175  0.00  0.00    +0.048 A 
ATOM      8  C   UNL     1       3.745   0.490   7.327  0.00  0.00    +0.024 A 
ATOM      9  C   UNL     1       3.755   1.123   8.556  0.00  0.00    +0.002 A 
ATOM     10  C   UNL     1       4.389   0.537   9.636  0.00  0.00    +0.001 A 
ATOM     11  C   UNL     1       5.017  -0.686   9.494  0.00  0.00    +0.016 A 
ATOM     12  C   UNL     1       5.007  -1.332   8.266  0.00  0.00    +0.030 A 
BRANCH  12  13
ATOM     13  S   UNL     1       5.801  -2.894   8.082  0.00  0.00    -0.114 S 
BRANCH  13  14
ATOM     14  C   UNL     1       6.464  -3.246   9.734  0.00  0.00    +0.169 C 
BRANCH  14  15
ATOM     15  C   UNL     1       7.178  -4.573   9.716  0.00  0.00    +0.221 C 
ATOM     16  O   UNL     1       7.233  -5.218   8.691  0.00  0.00    -0.275 OA
ATOM     17  N   UNL     1       7.754  -5.043  10.840  0.00  0.00    -0.329 N 
ATOM     18  H   UNL     1       7.710  -4.527  11.660  0.00  0.00    +0.145 HD
ATOM     19  H   UNL     1       8.214  -5.897  10.829  0.00  0.00    +0.145 HD
ENDBRANCH  14  15
ENDBRANCH  13  14
ENDBRANCH  12  13
ENDBRANCH   4   7
BRANCH   1  20
ATOM     20  C   UNL     1       3.929  -0.504   2.385  0.00  0.00    +0.106 C 
BRANCH  20  21
ATOM     21  C   UNL     1       3.806  -1.451   1.190  0.00  0.00    +0.031 C 
BRANCH  21  22
ATOM     22  C   UNL     1       3.639  -0.634  -0.093  0.00  0.00    +0.050 C 
BRANCH  22  26
ATOM     23  C   UNL     1      -0.064   1.492   0.046  0.00  0.00    +0.000 A 
ATOM     24  C   UNL     1       1.043   2.070  -0.547  0.00  0.00    +0.000 A 
ATOM     25  C   UNL     1       2.241   1.382  -0.592  0.00  0.00    +0.004 A 
ATOM     26  C   UNL     1       2.333   0.116  -0.043  0.00  0.00    -0.040 A 
ATOM     27  C   UNL     1       1.226  -0.461   0.551  0.00  0.00    +0.004 A 
ATOM     28  C   UNL     1       0.027   0.226   0.594  0.00  0.00    +0.000 A 
ENDBRANCH  22  26
BRANCH  22  29
ATOM     29  C   UNL     1       3.641  -1.559  -1.282  0.00  0.00    -0.040 A 
ATOM     30  C   UNL     1       2.623  -2.480  -1.444  0.00  0.00    +0.004 A 
ATOM     31  C   UNL     1       2.625  -3.329  -2.535  0.00  0.00    +0.000 A 
ATOM     32  C   UNL     1       3.646  -3.257  -3.465  0.00  0.00    +0.000 A 
ATOM     33  C   UNL     1       4.664  -2.336  -3.303  0.00  0.00    +0.000 A 
ATOM     34  C   UNL     1       4.660  -1.484  -2.214  0.00  0.00    +0.004 A 
ENDBRANCH  22  29
ENDBRANCH  21  22
ENDBRANCH  20  21
ENDBRANCH   1  20
TORSDOF 9
