REMARK  Name = ZINC04313342
REMARK  8 active torsions:
REMARK  status: ('A' for Active; 'I' for Inactive)
REMARK    1  A    between atoms: C_1  and  C_2
REMARK    2  A    between atoms: C_8  and  C_14
REMARK    3  A    between atoms: C_10  and  O_13
REMARK    4  A    between atoms: C_14  and  C_15
REMARK    5  A    between atoms: C_14  and  C_16
REMARK    6  A    between atoms: C_14  and  C_17
REMARK    7  A    between atoms: N_21  and  C_22
REMARK    8  A    between atoms: C_26  and  C_28
REMARK                            x       y       z     vdW  Elec       q    Type
REMARK                         _______ _______ _______ _____ _____    ______ ____
ROOT
ATOM      1  C   UNL     1      -1.273  -1.337   0.073  0.00  0.00    +0.079 C 
ATOM      2  C   UNL     1      -0.032  -0.448  -0.043  0.00  0.00    +0.185 C 
ATOM      3  C   UNL     1       1.061  -0.974   0.898  0.00  0.00    +0.096 C 
ATOM      4  C   UNL     1       2.317  -0.127   0.638  0.00  0.00    +0.114 C 
ATOM      5  C   UNL     1       1.950   1.330   0.810  0.00  0.00    +0.019 A 
ATOM      6  C   UNL     1       2.948   2.241   1.115  0.00  0.00    +0.013 A 
ATOM      7  C   UNL     1       2.645   3.579   1.271  0.00  0.00    -0.038 A 
ATOM      8  C   UNL     1       1.341   4.014   1.123  0.00  0.00    +0.053 A 
ATOM      9  C   UNL     1       0.339   3.108   0.820  0.00  0.00    +0.159 A 
ATOM     10  C   UNL     1       0.639   1.751   0.630  0.00  0.00    +0.170 A 
ATOM     11  O   UNL     1      -0.365   0.882   0.342  0.00  0.00    -0.464 OA
ATOM     12  N   UNL     1       2.711  -0.335  -0.765  0.00  0.00    -0.292 N 
ATOM     13  C   UNL     1       1.765  -0.467  -1.710  0.00  0.00    +0.310 C 
ATOM     14  O   UNL     1       2.109  -0.575  -2.871  0.00  0.00    -0.252 OA
ATOM     15  N   UNL     1       0.463  -0.484  -1.416  0.00  0.00    -0.216 N 
ATOM     16  H   UNL     1       3.650  -0.378  -1.006  0.00  0.00    +0.151 HD
ENDROOT
BRANCH  15  17
ATOM     17  C   UNL     1      -0.460  -0.536  -2.468  0.00  0.00    +0.042 A 
ATOM     18  C   UNL     1      -1.033   0.635  -2.949  0.00  0.00    +0.024 A 
ATOM     19  C   UNL     1      -1.940   0.589  -3.990  0.00  0.00    +0.003 A 
ATOM     20  C   UNL     1      -2.291  -0.621  -4.554  0.00  0.00    +0.015 A 
ATOM     21  C   UNL     1      -1.724  -1.804  -4.075  0.00  0.00    +0.065 A 
ATOM     22  C   UNL     1      -0.804  -1.757  -3.027  0.00  0.00    +0.038 A 
BRANCH  21  23
ATOM     23  C   UNL     1      -2.098  -3.101  -4.676  0.00  0.00    +0.387 C 
ATOM     24  O   UNL     1      -1.604  -4.129  -4.258  0.00  0.00    -0.241 OA
ATOM     25  O   UNL     1      -2.986  -3.143  -5.688  0.00  0.00    -0.241 OA
ENDBRANCH  21  23
ENDBRANCH  15  17
BRANCH   7  26
ATOM     26  C   UNL     1       3.735   4.566   1.603  0.00  0.00    -0.013 C 
ATOM     27  C   UNL     1       4.789   4.553   0.494  0.00  0.00    +0.015 C 
ATOM     28  C   UNL     1       3.136   5.968   1.720  0.00  0.00    +0.015 C 
ATOM     29  C   UNL     1       4.387   4.177   2.932  0.00  0.00    +0.015 C 
ENDBRANCH   7  26
BRANCH   9  30
ATOM     30  O   UNL     1      -0.943   3.537   0.674  0.00  0.00    -0.503 OA
ATOM     31  H   UNL     1      -1.172   3.792  -0.230  0.00  0.00    +0.292 HD
ENDBRANCH   9  30
TORSDOF 4
