REMARK  Name = ZINC33072197
REMARK  9 active torsions:
REMARK  status: ('A' for Active; 'I' for Inactive)
REMARK    1  A    between atoms: C_1  and  C_2
REMARK    2  A    between atoms: C_2  and  C_3
REMARK    3  A    between atoms: C_3  and  S_4
REMARK    4  A    between atoms: S_4  and  C_5
REMARK    5  A    between atoms: C_5  and  C_6
REMARK    6  A    between atoms: C_6  and  C_7
REMARK    7  A    between atoms: C_7  and  N_8
REMARK    8  A    between atoms: C_9  and  C_11
REMARK    9  A    between atoms: C_23  and  C_28
REMARK                            x       y       z     vdW  Elec       q    Type
REMARK                         _______ _______ _______ _____ _____    ______ ____
ROOT
ATOM      1  C   UNL     1       7.883  -0.663  -0.220  0.00  0.00    +0.092 C 
ATOM      2  C   UNL     1       8.503   0.121   0.939  0.00  0.00    +0.016 C 
ATOM      3  C   UNL     1       7.918   1.536   0.958  0.00  0.00    +0.020 C 
ATOM      4  C   UNL     1       6.396   1.452   1.084  0.00  0.00    +0.108 C 
ATOM      5  N   UNL     1       5.851   0.694  -0.049  0.00  0.00    -0.302 N 
ATOM      6  C   UNL     1       6.361  -0.683  -0.060  0.00  0.00    +0.120 C 
ATOM      7  C   UNL     1       4.472   0.709  -0.036  0.00  0.00    +0.174 A 
ATOM      8  N   UNL     1       3.700   1.836  -0.023  0.00  0.00    -0.327 N 
ATOM      9  H   UNL     1       4.175   2.828  -0.023  0.00  0.00    +0.169 HD
ATOM     10  C   UNL     1       2.377   1.427  -0.013  0.00  0.00    +0.066 A 
ATOM     11  C   UNL     1       1.163   2.098   0.002  0.00  0.00    +0.031 A 
ATOM     12  C   UNL     1      -0.017   1.383   0.010  0.00  0.00    -0.048 A 
ATOM     13  C   UNL     1       0.002  -0.004   0.002  0.00  0.00    +0.005 A 
ATOM     14  C   UNL     1       1.198  -0.687  -0.013  0.00  0.00    +0.028 A 
ATOM     15  C   UNL     1       2.401   0.022  -0.020  0.00  0.00    +0.065 A 
ATOM     16  N   UNL     1       3.707  -0.354  -0.035  0.00  0.00    -0.327 N 
ATOM     17  C   UNL     1      -1.335   2.114   0.020  0.00  0.00    +0.044 C 
ATOM     18  H   UNL     1       4.160  -1.357  -0.044  0.00  0.00    +0.169 HD
ENDROOT
BRANCH   1  20
ATOM     19  N   UNL     1       9.731  -2.303  -0.339  0.00  0.00    -0.315 N 
ATOM     20  C   UNL     1       8.409  -2.075  -0.211  0.00  0.00    +0.218 C 
ATOM     21  O   UNL     1       7.642  -3.007  -0.088  0.00  0.00    -0.275 OA
ATOM     22  H   UNL     1      10.426  -1.458  -0.450  0.00  0.00    +0.149 HD
BRANCH  19  23
ATOM     23  C   UNL     1      10.242  -3.676  -0.329  0.00  0.00    +0.105 C 
BRANCH  23  24
ATOM     24  C   UNL     1      11.763  -3.655  -0.489  0.00  0.00    +0.029 C 
BRANCH  24  25
ATOM     25  C   UNL     1      12.297  -5.089  -0.479  0.00  0.00    +0.070 C 
BRANCH  25  26
ATOM     26  S   UNL     1      14.101  -5.064  -0.669  0.00  0.00    -0.161 S 
BRANCH  26  27
ATOM     27  C   UNL     1      14.570  -6.816  -0.637  0.00  0.00    +0.069 C 
BRANCH  27  29
ATOM     28  C   UNL     1      16.483  -8.419  -0.764  0.00  0.00    +0.004 C 
ATOM     29  C   UNL     1      16.087  -6.941  -0.790  0.00  0.00    +0.007 C 
ENDBRANCH  27  29
ENDBRANCH  26  27
ENDBRANCH  25  26
ENDBRANCH  24  25
ENDBRANCH  23  24
ENDBRANCH  19  23
ENDBRANCH   1  20
TORSDOF 7
