REMARK  Name = ZINC08790572
REMARK  11 active torsions:
REMARK  status: ('A' for Active; 'I' for Inactive)
REMARK    1  A    between atoms: C_1  and  C_2
REMARK    2  A    between atoms: C_2  and  C_3
REMARK    3  A    between atoms: C_17  and  C_19
REMARK    4  A    between atoms: C_19  and  C_20
REMARK    5  A    between atoms: N_25  and  C_28
REMARK    6  A    between atoms: C_28  and  C_29
REMARK    7  A    between atoms: C_29  and  C_30
REMARK    8  A    between atoms: C_33  and  O_38
REMARK    9  A    between atoms: C_34  and  O_36
REMARK   10  A    between atoms: O_36  and  C_37
REMARK   11  A    between atoms: O_38  and  C_39
REMARK                            x       y       z     vdW  Elec       q    Type
REMARK                         _______ _______ _______ _____ _____    ______ ____
ROOT
ATOM      1  C   UNL     1       3.549  -3.492  -5.189  0.00  0.00    -0.026 A 
ATOM      2  C   UNL     1       2.962  -2.364  -5.725  0.00  0.00    +0.005 A 
ATOM      3  C   UNL     1       3.379  -1.106  -5.331  0.00  0.00    +0.001 A 
ATOM      4  C   UNL     1       4.390  -0.978  -4.395  0.00  0.00    +0.004 A 
ATOM      5  C   UNL     1       4.979  -2.100  -3.858  0.00  0.00    -0.027 A 
ATOM      6  C   UNL     1       4.566  -3.372  -4.247  0.00  0.00    +0.039 A 
ATOM      7  N   UNL     1       5.303  -4.346  -3.570  0.00  0.00    -0.286 N 
ATOM      8  C   UNL     1       6.208  -3.807  -2.730  0.00  0.00    +0.211 C 
ATOM      9  O   UNL     1       6.982  -4.409  -2.016  0.00  0.00    -0.277 OA
ATOM     10  C   UNL     1       6.072  -2.313  -2.850  0.00  0.00    +0.050 C 
ATOM     11  C   UNL     1       5.729  -1.672  -1.500  0.00  0.00    +0.088 C 
ATOM     12  C   UNL     1       6.491  -0.318  -1.504  0.00  0.00    +0.073 C 
ATOM     13  C   UNL     1       7.203  -0.269  -2.873  0.00  0.00    -0.049 C 
ATOM     14  C   UNL     1       5.380   0.707  -1.493  0.00  0.00    +0.224 C 
ATOM     15  O   UNL     1       5.535   1.910  -1.493  0.00  0.00    -0.275 OA
ATOM     16  N   UNL     1       4.197   0.082  -1.479  0.00  0.00    -0.241 N 
ATOM     17  C   UNL     1       4.276  -1.254  -1.486  0.00  0.00    +0.225 C 
ATOM     18  O   UNL     1       3.329  -2.012  -1.483  0.00  0.00    -0.275 OA
ATOM     19  H   UNL     1       5.179  -5.301  -3.691  0.00  0.00    +0.155 HD
ATOM     20  N   UNL     1       7.309  -1.676  -3.267  0.00  0.00    +0.394 N 
ATOM     21  H   UNL     1       7.422  -1.752  -4.285  0.00  0.00    -0.083 HD
ATOM     22  H   UNL     1       8.110  -2.116  -2.800  0.00  0.00    -0.083 HD
ENDROOT
BRANCH   1  24
ATOM     23  C   UNL     1       2.037  -5.380  -4.641  0.00  0.00    +0.009 C 
ATOM     24  C   UNL     1       3.086  -4.859  -5.625  0.00  0.00    +0.033 C 
ENDBRANCH   1  24
BRANCH  13  25
ATOM     25  C   UNL     1       8.584   0.376  -2.732  0.00  0.00    +0.080 C 
BRANCH  25  26
ATOM     26  C   UNL     1       9.241   0.456  -4.086  0.00  0.00    +0.209 C 
ATOM     27  O   UNL     1       8.663   0.037  -5.066  0.00  0.00    -0.276 OA
ATOM     28  N   UNL     1      10.472   0.992  -4.207  0.00  0.00    -0.329 N 
ATOM     29  H   UNL     1      10.934   1.326  -3.422  0.00  0.00    +0.145 HD
ATOM     30  H   UNL     1      10.896   1.042  -5.078  0.00  0.00    +0.145 HD
ENDBRANCH  25  26
ENDBRANCH  13  25
BRANCH  16  31
ATOM     31  C   UNL     1       2.920   0.800  -1.463  0.00  0.00    +0.121 C 
BRANCH  31  32
ATOM     32  C   UNL     1       2.489   1.043  -0.016  0.00  0.00    +0.054 C 
BRANCH  32  33
ATOM     33  C   UNL     1       1.176   1.782   0.000  0.00  0.00    -0.042 A 
ATOM     34  C   UNL     1      -0.013   1.076   0.008  0.00  0.00    +0.007 A 
ATOM     35  C   UNL     1      -1.220   1.749   0.017  0.00  0.00    +0.049 A 
ATOM     36  C   UNL     1      -1.240   3.135   0.030  0.00  0.00    +0.161 A 
ATOM     37  C   UNL     1      -0.044   3.845   0.023  0.00  0.00    +0.162 A 
ATOM     38  C   UNL     1       1.163   3.164   0.008  0.00  0.00    +0.053 A 
BRANCH  37  39
ATOM     39  O   UNL     1      -0.059   5.205   0.030  0.00  0.00    -0.491 OA
ATOM     40  C   UNL     1       1.207   5.868   0.021  0.00  0.00    +0.277 C 
ENDBRANCH  37  39
BRANCH  36  41
ATOM     41  O   UNL     1      -2.427   3.799   0.044  0.00  0.00    -0.491 OA
ATOM     42  C   UNL     1      -3.615   3.004   0.051  0.00  0.00    +0.277 C 
ENDBRANCH  36  41
ENDBRANCH  32  33
ENDBRANCH  31  32
ENDBRANCH  16  31
TORSDOF 8
