REMARK  Name = ZINC15959299
REMARK  6 active torsions:
REMARK  status: ('A' for Active; 'I' for Inactive)
REMARK    1  A    between atoms: C_4  and  C_7
REMARK    2  A    between atoms: C_7  and  C_8
REMARK    3  A    between atoms: C_8  and  N_9
REMARK    4  A    between atoms: C_14  and  C_32
REMARK    5  A    between atoms: C_32  and  C_33
REMARK    6  A    between atoms: C_36  and  O_39
REMARK                            x       y       z     vdW  Elec       q    Type
REMARK                         _______ _______ _______ _____ _____    ______ ____
ROOT
ATOM      1  N   UNL     1       5.450  -1.678   1.382  0.00  0.00    -0.241 N 
ATOM      2  C   UNL     1       5.532  -3.014   1.369  0.00  0.00    +0.227 C 
ATOM      3  O   UNL     1       4.587  -3.774   1.371  0.00  0.00    -0.275 OA
ATOM      4  C   UNL     1       6.986  -3.428   1.349  0.00  0.00    +0.107 C 
ATOM      5  C   UNL     1       7.339  -4.113   2.686  0.00  0.00    +0.072 C 
ATOM      6  N   UNL     1       7.720  -3.001   3.596  0.00  0.00    -0.295 NA
ATOM      7  C   UNL     1       8.472  -2.070   2.733  0.00  0.00    +0.136 C 
ATOM      8  C   UNL     1       7.745  -2.072   1.365  0.00  0.00    +0.122 C 
ATOM      9  C   UNL     1       6.631  -1.049   1.373  0.00  0.00    +0.228 C 
ATOM     10  O   UNL     1       6.784   0.153   1.374  0.00  0.00    -0.275 OA
ATOM     11  C   UNL     1       8.533  -0.692   3.326  0.00  0.00    +0.005 A 
ATOM     12  C   UNL     1       7.574   0.226   3.694  0.00  0.00    +0.027 A 
ATOM     13  C   UNL     1       7.952   1.446   4.228  0.00  0.00    +0.041 A 
ATOM     14  C   UNL     1       9.294   1.740   4.392  0.00  0.00    +0.022 A 
ATOM     15  C   UNL     1      10.257   0.823   4.025  0.00  0.00    +0.025 A 
ATOM     16  C   UNL     1       9.885  -0.406   3.486  0.00  0.00    +0.039 A 
ATOM     17  N   UNL     1      10.661  -1.481   3.044  0.00  0.00    -0.283 N 
ATOM     18  C   UNL     1       9.907  -2.498   2.585  0.00  0.00    +0.243 C 
ATOM     19  O   UNL     1      10.306  -3.553   2.139  0.00  0.00    -0.273 OA
ATOM     20 CL   UNL     1       6.744   2.604   4.692  0.00  0.00    -0.084 Cl
ATOM     21  H   UNL     1       6.903  -2.554   3.984  0.00  0.00    +0.124 HD
ATOM     22  H   UNL     1      11.631  -1.493   3.065  0.00  0.00    +0.155 HD
ENDROOT
BRANCH   1  23
ATOM     23  C   UNL     1       4.171  -0.963   1.399  0.00  0.00    +0.121 C 
BRANCH  23  24
ATOM     24  C   UNL     1       3.711  -0.707  -0.038  0.00  0.00    +0.054 C 
BRANCH  24  28
ATOM     25  C   UNL     1      -0.017   1.378   0.010  0.00  0.00    +0.000 A 
ATOM     26  C   UNL     1       1.171   2.086   0.002  0.00  0.00    +0.000 A 
ATOM     27  C   UNL     1       2.377   1.411  -0.013  0.00  0.00    +0.004 A 
ATOM     28  C   UNL     1       2.396   0.029  -0.020  0.00  0.00    -0.046 A 
ATOM     29  C   UNL     1       1.208  -0.679  -0.012  0.00  0.00    +0.004 A 
ATOM     30  C   UNL     1       0.002  -0.004   0.002  0.00  0.00    +0.000 A 
ENDBRANCH  24  28
ENDBRANCH  23  24
ENDBRANCH   1  23
BRANCH   5  31
ATOM     31  C   UNL     1       6.124  -4.862   3.238  0.00  0.00    +0.054 C 
BRANCH  31  32
ATOM     32  C   UNL     1       6.523  -5.623   4.476  0.00  0.00    -0.046 A 
ATOM     33  C   UNL     1       6.991  -6.920   4.368  0.00  0.00    +0.007 A 
ATOM     34  C   UNL     1       7.357  -7.620   5.502  0.00  0.00    +0.045 A 
ATOM     35  C   UNL     1       7.255  -7.020   6.749  0.00  0.00    +0.117 A 
ATOM     36  C   UNL     1       6.785  -5.719   6.854  0.00  0.00    +0.045 A 
ATOM     37  C   UNL     1       6.426  -5.022   5.717  0.00  0.00    +0.007 A 
BRANCH  35  38
ATOM     38  O   UNL     1       7.614  -7.707   7.865  0.00  0.00    -0.507 OA
ATOM     39  H   UNL     1       8.543  -7.602   8.110  0.00  0.00    +0.292 HD
ENDBRANCH  35  38
ENDBRANCH  31  32
ENDBRANCH   5  31
TORSDOF 6
