REMARK  Name = ZINC39688320
REMARK  7 active torsions:
REMARK  status: ('A' for Active; 'I' for Inactive)
REMARK    1  A    between atoms: C_6  and  C_7
REMARK    2  A    between atoms: C_10  and  C_12
REMARK    3  A    between atoms: C_16  and  C_25
REMARK    4  A    between atoms: N_27  and  C_28
REMARK    5  A    between atoms: C_28  and  C_29
REMARK    6  A    between atoms: C_29  and  O_30
REMARK    7  A    between atoms: O_30  and  C_31
REMARK                            x       y       z     vdW  Elec       q    Type
REMARK                         _______ _______ _______ _____ _____    ______ ____
ROOT
ATOM      1  C   UNL     1      -5.029  -1.060   0.074  0.00  0.00    +0.282 C 
ATOM      2  O   UNL     1      -5.782  -2.015   0.024  0.00  0.00    -0.267 OA
ATOM      3  N   UNL     1      -5.525   0.192   0.044  0.00  0.00    -0.294 N 
ATOM      4  C   UNL     1      -4.773   1.468   0.088  0.00  0.00    +0.121 C 
ATOM      5  C   UNL     1      -5.514   2.392  -0.904  0.00  0.00    +0.100 C 
ATOM      6  C   UNL     1      -6.940   1.821  -0.983  0.00  0.00    -0.004 C 
ATOM      7  C   UNL     1      -6.947   0.604  -0.046  0.00  0.00    +0.115 C 
ATOM      8  C   UNL     1      -7.951   2.860  -0.509  0.00  0.00    -0.010 C 
ATOM      9  C   UNL     1      -9.366   2.290  -0.651  0.00  0.00    -0.082 C 
ATOM     10  N   UNL     1      -9.615   1.939  -2.054  0.00  0.00    +0.379 N 
ATOM     11  C   UNL     1      -8.698   0.873  -2.474  0.00  0.00    -0.082 C 
ATOM     12  C   UNL     1      -7.256   1.383  -2.410  0.00  0.00    -0.010 C 
ATOM     13  H   UNL     1     -10.568   1.621  -2.155  0.00  0.00    -0.086 HD
ATOM     14  H   UNL     1      -9.472   2.753  -2.633  0.00  0.00    -0.086 HD
ENDROOT
BRANCH   1  18
ATOM     15  C   UNL     1      -1.426  -0.874   0.306  0.00  0.00    +0.136 A 
ATOM     16  C   UNL     1      -1.575  -2.231   0.294  0.00  0.00    +0.050 A 
ATOM     17  C   UNL     1      -2.945  -2.494   0.205  0.00  0.00    +0.055 A 
ATOM     18  C   UNL     1      -3.583  -1.273   0.167  0.00  0.00    +0.190 A 
ATOM     19  O   UNL     1      -2.642  -0.307   0.234  0.00  0.00    -0.450 OA
BRANCH  15  25
ATOM     20  C   UNL     1      -0.125   1.248   0.400  0.00  0.00    +0.014 A 
ATOM     21  C   UNL     1       1.077   1.919   0.479  0.00  0.00    +0.039 A 
ATOM     22  C   UNL     1       2.266   1.210   0.549  0.00  0.00    +0.123 A 
ATOM     23  C   UNL     1       2.255  -0.176   0.539  0.00  0.00    +0.039 A 
ATOM     24  C   UNL     1       1.060  -0.858   0.460  0.00  0.00    +0.014 A 
ATOM     25  C   UNL     1      -0.142  -0.149   0.390  0.00  0.00    +0.017 A 
ATOM     26  F   UNL     1       3.441   1.873   0.626  0.00  0.00    -0.205 F 
ENDBRANCH  15  25
ENDBRANCH   1  18
BRANCH   5  27
ATOM     27  C   UNL     1      -5.540   3.807  -0.386  0.00  0.00    +0.218 C 
ATOM     28  O   UNL     1      -5.556   4.014   0.809  0.00  0.00    -0.275 OA
ATOM     29  N   UNL     1      -5.546   4.841  -1.249  0.00  0.00    -0.312 N 
ATOM     30  H   UNL     1      -5.533   4.675  -2.205  0.00  0.00    +0.149 HD
BRANCH  29  31
ATOM     31  C   UNL     1      -5.571   6.216  -0.745  0.00  0.00    +0.145 C 
BRANCH  31  32
ATOM     32  C   UNL     1      -5.572   7.192  -1.923  0.00  0.00    +0.247 C 
BRANCH  32  33
ATOM     33  O   UNL     1      -6.783   7.040  -2.667  0.00  0.00    -0.490 OA
BRANCH  33  34
ATOM     34  C   UNL     1      -6.945   7.839  -3.755  0.00  0.00    +0.121 A 
ATOM     35  C   UNL     1      -5.955   8.746  -4.102  0.00  0.00    +0.048 A 
ATOM     36  C   UNL     1      -6.120   9.558  -5.208  0.00  0.00    +0.042 A 
ATOM     37  C   UNL     1      -7.273   9.466  -5.969  0.00  0.00    +0.124 A 
ATOM     38  C   UNL     1      -8.262   8.560  -5.623  0.00  0.00    +0.042 A 
ATOM     39  C   UNL     1      -8.097   7.743  -4.521  0.00  0.00    +0.048 A 
ATOM     40  F   UNL     1      -7.434  10.260  -7.050  0.00  0.00    -0.205 F 
ENDBRANCH  33  34
ENDBRANCH  32  33
ENDBRANCH  31  32
ENDBRANCH  29  31
ENDBRANCH   5  27
TORSDOF 7
