REMARK  Name = ZINC27754510
REMARK  6 active torsions:
REMARK  status: ('A' for Active; 'I' for Inactive)
REMARK    1  A    between atoms: C_5  and  C_7
REMARK    2  A    between atoms: C_10  and  C_12
REMARK    3  A    between atoms: C_14  and  C_29
REMARK    4  A    between atoms: C_16  and  C_21
REMARK    5  A    between atoms: C_16  and  O_28
REMARK    6  A    between atoms: C_29  and  C_31
REMARK                            x       y       z     vdW  Elec       q    Type
REMARK                         _______ _______ _______ _____ _____    ______ ____
ROOT
ATOM      1  C   UNL     1       0.033   7.653   1.460  0.00  0.00    +0.156 C 
ATOM      2  C   UNL     1      -0.064   6.124   1.478  0.00  0.00    +0.147 C 
ATOM      3  C   UNL     1      -0.074   5.619   0.032  0.00  0.00    +0.172 C 
ATOM      4  N   UNL     1       1.109   6.128  -0.664  0.00  0.00    -0.267 N 
ATOM      5  C   UNL     1       1.676   7.292  -0.316  0.00  0.00    +0.303 C 
ATOM      6  O   UNL     1       2.651   7.675  -0.933  0.00  0.00    -0.253 OA
ATOM      7  N   UNL     1       1.210   8.052   0.687  0.00  0.00    -0.289 N 
ATOM      8  H   UNL     1       1.551   5.552  -1.491  0.00  0.00    +0.153 HD
ATOM      9  H   UNL     1       1.731   8.991   0.923  0.00  0.00    +0.151 HD
ENDROOT
BRANCH   3  10
ATOM     10  C   UNL     1      -0.054   4.112   0.024  0.00  0.00    +0.003 A 
ATOM     11  C   UNL     1       1.153   3.438   0.009  0.00  0.00    +0.011 A 
ATOM     12  C   UNL     1       1.173   2.056   0.002  0.00  0.00    +0.039 A 
ATOM     13  C   UNL     1      -0.016   1.347   0.009  0.00  0.00    +0.123 A 
ATOM     14  C   UNL     1      -1.224   2.023   0.019  0.00  0.00    +0.039 A 
ATOM     15  C   UNL     1      -1.242   3.405   0.031  0.00  0.00    +0.011 A 
ATOM     16  F   UNL     1       0.002  -0.004   0.002  0.00  0.00    -0.205 F 
ENDBRANCH   3  10
BRANCH   1  20
ATOM     17  C   UNL     1      -2.648   8.873  -0.701  0.00  0.00    +0.137 A 
ATOM     18  C   UNL     1      -3.190   9.166   0.511  0.00  0.00    +0.050 A 
ATOM     19  C   UNL     1      -2.259   8.749   1.483  0.00  0.00    +0.047 A 
ATOM     20  C   UNL     1      -1.206   8.227   0.823  0.00  0.00    +0.127 A 
ATOM     21  O   UNL     1      -1.443   8.309  -0.496  0.00  0.00    -0.458 OA
BRANCH  17  26
ATOM     22  C   UNL     1      -3.137  10.026  -4.242  0.00  0.00    +0.001 A 
ATOM     23  C   UNL     1      -4.439   9.623  -4.479  0.00  0.00    +0.001 A 
ATOM     24  C   UNL     1      -5.161   8.976  -3.493  0.00  0.00    +0.021 A 
ATOM     25  C   UNL     1      -4.584   8.724  -2.264  0.00  0.00    +0.052 A 
ATOM     26  C   UNL     1      -3.272   9.134  -2.016  0.00  0.00    +0.036 A 
ATOM     27  C   UNL     1      -2.550   9.786  -3.017  0.00  0.00    +0.013 A 
ATOM     28 CL   UNL     1      -5.489   7.907  -1.028  0.00  0.00    -0.083 Cl
ENDBRANCH  17  26
ENDBRANCH   1  20
BRANCH   3  29
ATOM     29  O   UNL     1      -1.253   6.084  -0.629  0.00  0.00    -0.367 OA
ATOM     30  H   UNL     1      -1.435   5.820  -1.681  0.00  0.00    +0.212 HD
ENDBRANCH   3  29
BRANCH   2  31
ATOM     31  C   UNL     1       1.124   5.551   2.206  0.00  0.00    +0.245 C 
ATOM     32  O   UNL     1       2.136   5.293   1.601  0.00  0.00    -0.287 OA
BRANCH  31  33
ATOM     33  C   UNL     1       1.049   5.299   3.690  0.00  0.00    +0.451 C 
ATOM     34  F   UNL     1       2.265   4.769   4.135  0.00  0.00    -0.163 F 
ATOM     35  F   UNL     1       0.794   6.503   4.355  0.00  0.00    -0.163 F 
ATOM     36  F   UNL     1       0.019   4.391   3.958  0.00  0.00    -0.163 F 
ENDBRANCH  31  33
ENDBRANCH   2  31
TORSDOF 6
