REMARK  Name = ZINC20208297
REMARK  10 active torsions:
REMARK  status: ('A' for Active; 'I' for Inactive)
REMARK    1  A    between atoms: C_1  and  C_2
REMARK    2  A    between atoms: C_2  and  O_3
REMARK    3  A    between atoms: O_3  and  C_4
REMARK    4  A    between atoms: C_6  and  C_19
REMARK    5  A    between atoms: C_9  and  O_10
REMARK    6  A    between atoms: O_10  and  C_11
REMARK    7  A    between atoms: C_11  and  C_12
REMARK    8  A    between atoms: C_29  and  S_31
REMARK    9  A    between atoms: S_31  and  C_34
REMARK   10  A    between atoms: C_34  and  C_35
REMARK                            x       y       z     vdW  Elec       q    Type
REMARK                         _______ _______ _______ _____ _____    ______ ____
ROOT
ATOM      1  C   UNL     1      -1.292  -1.813  -0.264  0.00  0.00    +0.162 A 
ATOM      2  C   UNL     1      -0.215  -2.671  -0.346  0.00  0.00    +0.057 A 
ATOM      3  C   UNL     1      -0.394  -4.040  -0.101  0.00  0.00    -0.021 A 
ATOM      4  C   UNL     1      -1.667  -4.528   0.226  0.00  0.00    +0.012 A 
ATOM      5  C   UNL     1      -2.735  -3.664   0.305  0.00  0.00    +0.050 A 
ATOM      6  C   UNL     1      -2.555  -2.307   0.067  0.00  0.00    +0.162 A 
ENDROOT
BRANCH   3   7
ATOM      7  C   UNL     1       0.745  -4.957  -0.186  0.00  0.00    +0.024 C 
ATOM      8  C   UNL     1       0.557  -6.250  -0.619  0.00  0.00    +0.081 C 
ATOM      9  C   UNL     1      -0.745  -6.708  -1.183  0.00  0.00    +0.153 C 
ATOM     10  N   UNL     1      -1.538  -5.935  -1.875  0.00  0.00    -0.283 NA
ATOM     11  N   UNL     1      -1.035  -8.059  -0.896  0.00  0.00    -0.150 N 
ATOM     12  C   UNL     1       0.026  -8.892  -0.614  0.00  0.00    +0.182 C 
ATOM     13  N   UNL     1       1.287  -8.563  -0.483  0.00  0.00    -0.152 NA
ATOM     14  C   UNL     1       1.641  -7.262  -0.555  0.00  0.00    +0.273 C 
ATOM     15  O   UNL     1       2.814  -6.927  -0.564  0.00  0.00    -0.268 OA
ATOM     16  S   UNL     1      -0.770 -10.469  -0.461  0.00  0.00    -0.015 S 
ATOM     17  C   UNL     1      -2.452  -9.905  -0.679  0.00  0.00    +0.235 C 
ATOM     18  N   UNL     1      -2.290  -8.629  -0.884  0.00  0.00    -0.145 NA
ATOM     19  H   UNL     1      -2.375  -6.283  -2.220  0.00  0.00    +0.188 HD
BRANCH  17  20
ATOM     20  S   UNL     1      -3.946 -10.836  -0.628  0.00  0.00    +0.022 S 
ATOM     21  O   UNL     1      -3.687 -11.888   0.291  0.00  0.00    -0.167 OA
ATOM     22  O   UNL     1      -4.962  -9.878  -0.364  0.00  0.00    -0.167 OA
BRANCH  20  23
ATOM     23  C   UNL     1      -4.137 -11.504  -2.304  0.00  0.00    +0.171 C 
ATOM     24  C   UNL     1      -5.416 -12.339  -2.377  0.00  0.00    +0.028 C 
ENDBRANCH  20  23
ENDBRANCH  17  20
ENDBRANCH   3   7
BRANCH   1  25
ATOM     25  O   UNL     1      -1.122  -0.485  -0.501  0.00  0.00    -0.489 OA
BRANCH  25  27
ATOM     26  C   UNL     1       0.191   1.464  -1.064  0.00  0.00    +0.048 C 
ATOM     27  C   UNL     1       0.197  -0.049  -0.835  0.00  0.00    +0.226 C 
ENDBRANCH  25  27
ENDBRANCH   1  25
BRANCH   6  28
ATOM     28  O   UNL     1      -3.611  -1.459   0.151  0.00  0.00    -0.484 OA
BRANCH  28  29
ATOM     29  C   UNL     1      -4.876  -2.030   0.494  0.00  0.00    +0.264 C 
BRANCH  29  30
ATOM     30  C   UNL     1      -5.921  -0.945   0.541  0.00  0.00    -0.010 A 
ATOM     31  C   UNL     1      -6.161  -0.268   1.722  0.00  0.00    +0.010 A 
ATOM     32  C   UNL     1      -7.119   0.728   1.766  0.00  0.00    +0.039 A 
ATOM     33  C   UNL     1      -7.838   1.046   0.626  0.00  0.00    +0.123 A 
ATOM     34  C   UNL     1      -7.597   0.366  -0.556  0.00  0.00    +0.039 A 
ATOM     35  C   UNL     1      -6.635  -0.625  -0.599  0.00  0.00    +0.010 A 
ATOM     36  F   UNL     1      -8.775   2.018   0.668  0.00  0.00    -0.205 F 
ENDBRANCH  29  30
ENDBRANCH  28  29
ENDBRANCH   6  28
TORSDOF 8
