REMARK  Name = ZINC01714726
REMARK  13 active torsions:
REMARK  status: ('A' for Active; 'I' for Inactive)
REMARK    1  A    between atoms: C_1  and  C_2
REMARK    2  A    between atoms: C_2  and  N_3
REMARK    3  A    between atoms: N_3  and  C_4
REMARK    4  A    between atoms: N_3  and  C_6
REMARK    5  A    between atoms: C_4  and  C_5
REMARK    6  A    between atoms: C_6  and  C_7
REMARK    7  A    between atoms: C_7  and  C_8
REMARK    8  A    between atoms: C_8  and  C_9
REMARK    9  A    between atoms: C_9  and  C_11
REMARK   10  A    between atoms: C_9  and  N_12
REMARK   11  A    between atoms: N_12  and  C_13
REMARK   12  A    between atoms: C_15  and  N_30
REMARK   13  A    between atoms: C_21  and  C_23
REMARK                            x       y       z     vdW  Elec       q    Type
REMARK                         _______ _______ _______ _____ _____    ______ ____
ROOT
ATOM      1  C   UNL     1       3.034  -3.147  -3.978  0.00  0.00    +0.060 A 
ATOM      2  C   UNL     1       4.411  -3.064  -4.051  0.00  0.00    +0.066 A 
ATOM      3  C   UNL     1       5.018  -2.683  -5.251  0.00  0.00    +0.097 A 
ATOM      4  N   UNL     1       4.307  -2.399  -6.326  0.00  0.00    -0.327 N 
ATOM      5  C   UNL     1       2.971  -2.461  -6.321  0.00  0.00    +0.160 A 
ATOM      6  C   UNL     1       2.284  -2.845  -5.144  0.00  0.00    +0.127 A 
ATOM      7  N   UNL     1       0.951  -2.913  -5.139  0.00  0.00    -0.248 NA
ATOM      8  C   UNL     1       0.278  -2.628  -6.229  0.00  0.00    +0.140 A 
ATOM      9  C   UNL     1       0.951  -2.253  -7.404  0.00  0.00    +0.091 A 
ATOM     10  N   UNL     1       2.271  -2.168  -7.423  0.00  0.00    -0.226 NA
ATOM     11  H   UNL     1       4.765  -2.139  -7.140  0.00  0.00    +0.169 HD
ENDROOT
BRANCH   9  12
ATOM     12  C   UNL     1       0.176  -1.935  -8.627  0.00  0.00    +0.002 A 
ATOM     13  C   UNL     1       0.837  -1.669  -9.825  0.00  0.00    +0.011 A 
ATOM     14  C   UNL     1       0.111  -1.375 -10.960  0.00  0.00    +0.016 A 
ATOM     15  C   UNL     1      -1.272  -1.343 -10.911  0.00  0.00    +0.018 A 
ATOM     16  C   UNL     1      -1.934  -1.607  -9.724  0.00  0.00    +0.016 A 
ATOM     17  C   UNL     1      -1.218  -1.908  -8.584  0.00  0.00    +0.011 A 
ATOM     18 BR   UNL     1      -2.261  -0.938 -12.471  0.00  0.00    -0.050 Br
ENDBRANCH   9  12
BRANCH   3  19
ATOM     19  N   UNL     1       6.400  -2.603  -5.314  0.00  0.00    -0.345 N 
ATOM     20  H   UNL     1       6.934  -2.808  -4.531  0.00  0.00    +0.144 HD
ATOM     21  H   UNL     1       6.833  -2.340  -6.141  0.00  0.00    +0.144 HD
ENDBRANCH   3  19
BRANCH   1  22
ATOM     22  N   UNL     1       2.404  -3.522  -2.801  0.00  0.00    -0.339 N 
ATOM     23  H   UNL     1       1.436  -3.580  -2.766  0.00  0.00    +0.146 HD
BRANCH  22  24
ATOM     24  C   UNL     1       3.199  -3.829  -1.609  0.00  0.00    +0.067 C 
ATOM     25  C   UNL     1       3.650  -5.291  -1.661  0.00  0.00    +0.028 C 
BRANCH  24  26
ATOM     26  C   UNL     1       2.351  -3.601  -0.357  0.00  0.00    +0.020 C 
BRANCH  26  27
ATOM     27  C   UNL     1       2.004  -2.115  -0.240  0.00  0.00    -0.017 C 
BRANCH  27  28
ATOM     28  C   UNL     1       1.156  -1.887   1.013  0.00  0.00    -0.079 C 
BRANCH  28  29
ATOM     29  N   UNL     1       0.823  -0.461   1.126  0.00  0.00    +0.379 N 
ATOM     30  H   UNL     1       1.671   0.085   1.109  0.00  0.00    -0.082 HD
BRANCH  29  32
ATOM     31  C   UNL     1      -0.264   1.445   0.037  0.00  0.00    -0.017 C 
ATOM     32  C   UNL     1      -0.034  -0.067  -0.001  0.00  0.00    -0.082 C 
ENDBRANCH  29  32
BRANCH  29  33
ATOM     33  C   UNL     1       0.111  -0.222   2.389  0.00  0.00    -0.082 C 
ATOM     34  C   UNL     1       1.053  -0.495   3.563  0.00  0.00    -0.017 C 
ENDBRANCH  29  33
ENDBRANCH  28  29
ENDBRANCH  27  28
ENDBRANCH  26  27
ENDBRANCH  24  26
ENDBRANCH  22  24
ENDBRANCH   1  22
TORSDOF 10
