REMARK  Name = ZINC36779139
REMARK  15 active torsions:
REMARK  status: ('A' for Active; 'I' for Inactive)
REMARK    1  A    between atoms: C_1  and  C_2
REMARK    2  A    between atoms: C_2  and  C_3
REMARK    3  A    between atoms: C_3  and  C_5
REMARK    4  A    between atoms: C_3  and  N_23
REMARK    5  A    between atoms: C_5  and  C_7
REMARK    6  A    between atoms: C_5  and  O_22
REMARK    7  A    between atoms: C_9  and  C_18
REMARK    8  A    between atoms: C_10  and  O_17
REMARK    9  A    between atoms: C_11  and  C_13
REMARK   10  A    between atoms: C_13  and  C_14
REMARK   11  A    between atoms: C_13  and  C_15
REMARK   12  A    between atoms: C_13  and  C_16
REMARK   13  A    between atoms: C_18  and  C_19
REMARK   14  A    between atoms: C_18  and  C_20
REMARK   15  A    between atoms: C_18  and  C_21
REMARK                            x       y       z     vdW  Elec       q    Type
REMARK                         _______ _______ _______ _____ _____    ______ ____
ROOT
ATOM      1  C   UNL     1       1.490  -2.545   2.446  0.00  0.00    -0.020 A 
ATOM      2  C   UNL     1       0.692  -2.802   3.546  0.00  0.00    +0.013 A 
ATOM      3  C   UNL     1       1.256  -3.270   4.717  0.00  0.00    +0.000 A 
ATOM      4  C   UNL     1       2.625  -3.483   4.788  0.00  0.00    +0.124 A 
ATOM      5  C   UNL     1       3.424  -3.225   3.684  0.00  0.00    +0.000 A 
ATOM      6  C   UNL     1       2.854  -2.762   2.514  0.00  0.00    +0.013 A 
ENDROOT
BRANCH   5   7
ATOM      7  C   UNL     1       4.912  -3.455   3.759  0.00  0.00    -0.009 C 
ATOM      8  C   UNL     1       5.551  -3.096   2.416  0.00  0.00    +0.015 C 
ATOM      9  C   UNL     1       5.509  -2.577   4.859  0.00  0.00    +0.015 C 
ATOM     10  C   UNL     1       5.185  -4.927   4.076  0.00  0.00    +0.015 C 
ENDBRANCH   5   7
BRANCH   3  11
ATOM     11  C   UNL     1       0.386  -3.549   5.915  0.00  0.00    -0.009 C 
ATOM     12  C   UNL     1      -1.071  -3.232   5.571  0.00  0.00    +0.015 C 
ATOM     13  C   UNL     1       0.510  -5.023   6.303  0.00  0.00    +0.015 C 
ATOM     14  C   UNL     1       0.835  -2.673   7.086  0.00  0.00    +0.015 C 
ENDBRANCH   3  11
BRANCH   4  15
ATOM     15  O   UNL     1       3.183  -3.943   5.939  0.00  0.00    -0.506 OA
ATOM     16  H   UNL     1       3.230  -4.907   5.995  0.00  0.00    +0.292 HD
ENDBRANCH   4  15
BRANCH   1  17
ATOM     17  C   UNL     1       0.872  -2.034   1.171  0.00  0.00    +0.130 C 
BRANCH  17  18
ATOM     18  O   UNL     1      -0.423  -2.615   1.003  0.00  0.00    -0.389 OA
ATOM     19  H   UNL     1      -1.040  -2.414   1.720  0.00  0.00    +0.210 HD
ENDBRANCH  17  18
BRANCH  17  20
ATOM     20  C   UNL     1       0.742  -0.511   1.242  0.00  0.00    -0.042 C 
BRANCH  20  21
ATOM     21  N   UNL     1      -0.010  -0.139   2.447  0.00  0.00    +0.382 N 
ATOM     22  H   UNL     1      -0.929  -0.554   2.411  0.00  0.00    -0.090 HD
ATOM     23  H   UNL     1       0.478  -0.473   3.265  0.00  0.00    -0.090 HD
ATOM     24  H   UNL     1      -0.096   0.865   2.494  0.00  0.00    -0.090 HD
ENDBRANCH  20  21
BRANCH  20  26
ATOM     25  C   UNL     1      -0.019   1.526   0.010  0.00  0.00    +0.002 C 
ATOM     26  C   UNL     1       0.002  -0.004   0.002  0.00  0.00    -0.017 C 
ENDBRANCH  20  26
ENDBRANCH  17  20
ENDBRANCH   1  17
TORSDOF 8
