REMARK  Name = ZINC11903862
REMARK  9 active torsions:
REMARK  status: ('A' for Active; 'I' for Inactive)
REMARK    1  A    between atoms: C_1  and  O_2
REMARK    2  A    between atoms: O_2  and  C_3
REMARK    3  A    between atoms: C_6  and  C_9
REMARK    4  A    between atoms: C_11  and  C_22
REMARK    5  A    between atoms: N_13  and  C_14
REMARK    6  A    between atoms: N_24  and  C_25
REMARK    7  A    between atoms: C_25  and  C_26
REMARK    8  A    between atoms: C_26  and  C_28
REMARK    9  A    between atoms: C_26  and  N_65
REMARK                            x       y       z     vdW  Elec       q    Type
REMARK                         _______ _______ _______ _____ _____    ______ ____
ROOT
ATOM      1  C   UNL     1       2.719   4.217   0.094  0.00  0.00    +0.070 A 
ATOM      2  C   UNL     1       2.637   5.384  -0.612  0.00  0.00    +0.062 A 
ATOM      3  C   UNL     1       2.062   5.034  -1.853  0.00  0.00    +0.148 A 
ATOM      4  N   UNL     1       1.843   3.734  -1.831  0.00  0.00    -0.166 NA
ATOM      5  N   UNL     1       2.212   3.236  -0.706  0.00  0.00    -0.258 N 
ENDROOT
BRANCH   5   6
ATOM      6  C   UNL     1       2.109   1.821  -0.340  0.00  0.00    +0.130 C 
ATOM      7  C   UNL     1       2.664   0.948  -1.478  0.00  0.00    +0.051 C 
ATOM      8  C   UNL     1       2.272  -0.531  -1.247  0.00  0.00    +0.168 C 
ATOM      9  S   UNL     1       0.706  -0.391  -0.293  0.00  0.00    -0.029 S 
ATOM     10  O   UNL     1       0.894  -0.967   0.992  0.00  0.00    -0.174 OA
ATOM     11  O   UNL     1      -0.372  -0.832  -1.107  0.00  0.00    -0.174 OA
ATOM     12  C   UNL     1       0.617   1.442  -0.121  0.00  0.00    +0.192 C 
ENDBRANCH   5   6
BRANCH   1  16
ATOM     13  C   UNL     1       4.257   3.736   4.027  0.00  0.00    +0.120 A 
ATOM     14  C   UNL     1       4.727   4.763   3.220  0.00  0.00    +0.046 A 
ATOM     15  C   UNL     1       4.231   4.922   1.944  0.00  0.00    +0.013 A 
ATOM     16  C   UNL     1       3.255   4.049   1.463  0.00  0.00    +0.000 A 
ATOM     17  C   UNL     1       2.780   3.021   2.279  0.00  0.00    +0.013 A 
ATOM     18  C   UNL     1       3.285   2.865   3.552  0.00  0.00    +0.046 A 
BRANCH  13  20
ATOM     19  C   UNL     1       4.221   2.504   6.060  0.00  0.00    +0.277 C 
ATOM     20  O   UNL     1       4.749   3.582   5.285  0.00  0.00    -0.495 OA
ENDBRANCH  13  20
ENDBRANCH   1  16
BRANCH   3  21
ATOM     21  C   UNL     1       1.766   5.953  -2.971  0.00  0.00    +0.264 C 
ATOM     22  O   UNL     1       2.021   7.137  -2.868  0.00  0.00    -0.268 OA
ATOM     23  N   UNL     1       1.212   5.479  -4.104  0.00  0.00    -0.311 N 
ATOM     24  H   UNL     1       1.008   4.534  -4.186  0.00  0.00    +0.149 HD
BRANCH  23  25
ATOM     25  C   UNL     1       0.918   6.391  -5.213  0.00  0.00    +0.097 C 
BRANCH  25  26
ATOM     26  C   UNL     1       0.181   5.630  -6.317  0.00  0.00    +0.016 C 
BRANCH  26  31
ATOM     27  C   UNL     1       1.305   6.980  -8.003  0.00  0.00    -0.078 C 
ATOM     28  C   UNL     1       0.970   7.413  -9.453  0.00  0.00    -0.020 C 
ATOM     29  C   UNL     1      -0.062   6.353  -9.901  0.00  0.00    -0.020 C 
ATOM     30  C   UNL     1      -0.648   5.785  -8.595  0.00  0.00    -0.078 C 
ATOM     31  N   UNL     1      -0.000   6.516  -7.506  0.00  0.00    +0.387 N 
ATOM     32  H   UNL     1      -0.576   7.324  -7.239  0.00  0.00    -0.081 HD
ENDBRANCH  26  31
BRANCH  26  33
ATOM     33  C   UNL     1      -1.165   5.183  -5.807  0.00  0.00    +0.093 A 
ATOM     34  C   UNL     1      -1.468   3.949  -5.365  0.00  0.00    +0.043 A 
ATOM     35  C   UNL     1      -2.830   3.973  -4.987  0.00  0.00    +0.041 A 
ATOM     36  C   UNL     1      -3.277   5.220  -5.220  0.00  0.00    +0.195 A 
ATOM     37  O   UNL     1      -2.263   5.950  -5.711  0.00  0.00    -0.469 OA
ENDBRANCH  26  33
ENDBRANCH  25  26
ENDBRANCH  23  25
ENDBRANCH   3  21
TORSDOF 8
