REMARK  Name = ZINC63216938
REMARK  4 active torsions:
REMARK  status: ('A' for Active; 'I' for Inactive)
REMARK    1  A    between atoms: C_1  and  C_2
REMARK    2  A    between atoms: C_2  and  C_3
REMARK    3  A    between atoms: C_2  and  C_4
REMARK    4  A    between atoms: C_7  and  C_10
REMARK                            x       y       z     vdW  Elec       q    Type
REMARK                         _______ _______ _______ _____ _____    ______ ____
ROOT
ATOM      1  C   UNL     1       2.797  -1.919   4.683  0.00  0.00    +0.070 C 
ATOM      2  C   UNL     1       2.158  -1.347   5.925  0.00  0.00    -0.010 A 
ATOM      3  C   UNL     1       1.485  -0.117   5.867  0.00  0.00    -0.012 A 
ATOM      4  C   UNL     1       1.397   0.610   4.666  0.00  0.00    +0.009 A 
ATOM      5  C   UNL     1       0.736   1.798   4.645  0.00  0.00    +0.001 A 
ATOM      6  C   UNL     1       0.143   2.310   5.798  0.00  0.00    +0.001 A 
ATOM      7  C   UNL     1       0.208   1.635   6.979  0.00  0.00    +0.008 A 
ATOM      8  C   UNL     1       0.881   0.403   7.039  0.00  0.00    -0.017 A 
ATOM      9  C   UNL     1       0.966  -0.323   8.240  0.00  0.00    +0.010 A 
ATOM     10  C   UNL     1       1.627  -1.509   8.271  0.00  0.00    +0.024 A 
ATOM     11  C   UNL     1       2.231  -2.032   7.118  0.00  0.00    +0.036 A 
ATOM     12  N   UNL     1       2.918  -3.247   7.196  0.00  0.00    -0.304 N 
ATOM     13  C   UNL     1       3.245  -3.921   6.067  0.00  0.00    +0.106 C 
ATOM     14  N   UNL     1       4.026  -4.966   6.136  0.00  0.00    -0.151 NA
ATOM     15  C   UNL     1       4.474  -5.600   5.046  0.00  0.00    +0.331 C 
ATOM     16  O   UNL     1       5.105  -6.631   5.181  0.00  0.00    -0.250 OA
ATOM     17  N   UNL     1       4.248  -5.130   3.808  0.00  0.00    -0.238 N 
ATOM     18  C   UNL     1       3.430  -4.082   3.604  0.00  0.00    +0.231 C 
ATOM     19  O   UNL     1       3.277  -3.651   2.482  0.00  0.00    -0.275 OA
ATOM     20  C   UNL     1       2.709  -3.442   4.745  0.00  0.00    +0.148 C 
ATOM     21  H   UNL     1       3.162  -3.609   8.062  0.00  0.00    +0.153 HD
ATOM     22  H   UNL     1       4.681  -5.553   3.050  0.00  0.00    +0.159 HD
ENDROOT
BRANCH   1  26
ATOM     23  C   UNL     1       0.730  -0.499   1.225  0.00  0.00    -0.045 A 
ATOM     24  C   UNL     1       0.025  -1.085   2.260  0.00  0.00    +0.004 A 
ATOM     25  C   UNL     1       0.694  -1.544   3.379  0.00  0.00    +0.004 A 
ATOM     26  C   UNL     1       2.068  -1.419   3.463  0.00  0.00    -0.039 A 
ATOM     27  C   UNL     1       2.773  -0.834   2.428  0.00  0.00    +0.004 A 
ATOM     28  C   UNL     1       2.105  -0.378   1.307  0.00  0.00    +0.004 A 
BRANCH  23  30
ATOM     29  C   UNL     1      -0.742  -1.160  -0.658  0.00  0.00    +0.012 C 
ATOM     30  C   UNL     1       0.001   0.002   0.005  0.00  0.00    +0.013 C 
ATOM     31  C   UNL     1      -1.003   1.080   0.418  0.00  0.00    +0.012 C 
ENDBRANCH  23  30
ENDBRANCH   1  26
TORSDOF 2
