REMARK  Name = ZINC13165743
REMARK  6 active torsions:
REMARK  status: ('A' for Active; 'I' for Inactive)
REMARK    1  A    between atoms: C_1  and  C_2
REMARK    2  A    between atoms: C_6  and  N_8
REMARK    3  A    between atoms: N_8  and  C_9
REMARK    4  A    between atoms: N_19  and  C_22
REMARK    5  A    between atoms: C_27  and  O_28
REMARK    6  A    between atoms: O_28  and  C_29
REMARK                            x       y       z     vdW  Elec       q    Type
REMARK                         _______ _______ _______ _____ _____    ______ ____
ROOT
ATOM      1  C   UNL     1       3.490   3.293  -0.014  0.00  0.00    +0.087 C 
ATOM      2  C   UNL     1       4.625   4.066  -0.111  0.00  0.00    +0.059 C 
ATOM      3  C   UNL     1       4.544   5.542  -0.102  0.00  0.00    +0.000 A 
ATOM      4  C   UNL     1       3.330   6.207   0.016  0.00  0.00    +0.009 A 
ATOM      5  C   UNL     1       3.307   7.587   0.025  0.00  0.00    +0.001 A 
ATOM      6  C   UNL     1       4.485   8.312  -0.076  0.00  0.00    +0.001 A 
ATOM      7  C   UNL     1       5.699   7.670  -0.189  0.00  0.00    +0.014 A 
ATOM      8  C   UNL     1       5.745   6.275  -0.200  0.00  0.00    +0.046 A 
ATOM      9  C   UNL     1       7.018   5.552  -0.318  0.00  0.00    +0.258 C 
ATOM     10  O   UNL     1       8.056   6.180  -0.408  0.00  0.00    -0.269 OA
ATOM     11  N   UNL     1       7.054   4.210  -0.329  0.00  0.00    -0.199 N 
ATOM     12  C   UNL     1       5.952   3.449  -0.234  0.00  0.00    +0.259 C 
ATOM     13  O   UNL     1       6.053   2.236  -0.249  0.00  0.00    -0.269 OA
ENDROOT
BRANCH  11  14
ATOM     14  C   UNL     1       8.299   3.574  -0.443  0.00  0.00    +0.086 A 
ATOM     15  C   UNL     1       8.810   3.265  -1.696  0.00  0.00    +0.027 A 
ATOM     16  C   UNL     1      10.037   2.639  -1.806  0.00  0.00    +0.002 A 
ATOM     17  C   UNL     1      10.758   2.320  -0.671  0.00  0.00    +0.004 A 
ATOM     18  C   UNL     1      10.257   2.625   0.581  0.00  0.00    +0.047 A 
ATOM     19  C   UNL     1       9.029   3.257   0.700  0.00  0.00    +0.142 A 
BRANCH  19  20
ATOM     20  O   UNL     1       8.537   3.562   1.930  0.00  0.00    -0.493 OA
ATOM     21  C   UNL     1       9.340   3.207   3.057  0.00  0.00    +0.277 C 
ENDBRANCH  19  20
ENDBRANCH  11  14
BRANCH   1  22
ATOM     22  N   UNL     1       2.392   3.775   0.631  0.00  0.00    -0.306 N 
ATOM     23  H   UNL     1       2.447   4.731   1.171  0.00  0.00    +0.153 HD
BRANCH  22  29
ATOM     24  C   UNL     1      -2.195   3.465   1.967  0.00  0.00    +0.063 C 
ATOM     25  C   UNL     1      -1.013   2.883   1.236  0.00  0.00    +0.014 A 
ATOM     26  C   UNL     1      -1.149   1.680   0.570  0.00  0.00    +0.021 A 
ATOM     27  C   UNL     1      -0.055   1.145  -0.097  0.00  0.00    +0.005 A 
ATOM     28  C   UNL     1       1.137   1.849  -0.080  0.00  0.00    +0.042 A 
ATOM     29  C   UNL     1       1.200   3.057   0.605  0.00  0.00    +0.100 A 
ATOM     30  N   UNL     1       0.135   3.531   1.235  0.00  0.00    -0.347 N 
ATOM     31  H   UNL     1       0.226   4.490   1.765  0.00  0.00    +0.167 HD
ENDBRANCH  22  29
ENDBRANCH   1  22
TORSDOF 4
