REMARK  Name = ZINC20912499
REMARK  10 active torsions:
REMARK  status: ('A' for Active; 'I' for Inactive)
REMARK    1  A    between atoms: C_1  and  C_2
REMARK    2  A    between atoms: C_2  and  S_3
REMARK    3  A    between atoms: S_3  and  C_4
REMARK    4  A    between atoms: C_9  and  N_10
REMARK    5  A    between atoms: C_11  and  C_13
REMARK    6  A    between atoms: C_13  and  S_14
REMARK    7  A    between atoms: S_14  and  C_15
REMARK    8  A    between atoms: N_19  and  N_20
REMARK    9  A    between atoms: N_21  and  N_22
REMARK   10  A    between atoms: C_23  and  C_24
REMARK                            x       y       z     vdW  Elec       q    Type
REMARK                         _______ _______ _______ _____ _____    ______ ____
ROOT
ATOM      1  C   UNL     1      -1.501  -1.974  -0.141  0.00  0.00    +0.210 A 
ATOM      2  N   UNL     1      -2.039  -0.778  -0.165  0.00  0.00    -0.119 NA
ATOM      3  N   UNL     1      -1.002   0.164  -0.168  0.00  0.00    -0.109 NA
ATOM      4  C   UNL     1       0.136  -0.487  -0.153  0.00  0.00    +0.254 A 
ATOM      5  N   UNL     1      -0.143  -1.826  -0.133  0.00  0.00    -0.211 N 
ATOM      6  N   UNL     1       1.401   0.082  -0.152  0.00  0.00    -0.204 N 
ATOM      7  H   UNL     1       2.294  -0.562  -0.134  0.00  0.00    +0.177 HD
ENDROOT
BRANCH   5   8
ATOM      8  N   UNL     1       0.775  -2.837  -0.109  0.00  0.00    -0.294 N 
ATOM      9  H   UNL     1       1.850  -2.604  -0.104  0.00  0.00    +0.163 HD
ATOM     10  H   UNL     1       0.439  -3.885  -0.095  0.00  0.00    +0.163 HD
ENDBRANCH   5   8
BRANCH   6  11
ATOM     11  N   UNL     1       1.543   1.475  -0.174  0.00  0.00    -0.187 NA
ATOM     12  C   UNL     1       2.729   2.008  -0.174  0.00  0.00    +0.139 C 
BRANCH  12  13
ATOM     13  C   UNL     1       2.877   3.471  -0.197  0.00  0.00    +0.002 A 
ATOM     14  C   UNL     1       4.133   4.055  -0.310  0.00  0.00    +0.010 A 
ATOM     15  C   UNL     1       4.269   5.436  -0.339  0.00  0.00    +0.001 A 
ATOM     16  C   UNL     1       3.194   6.266  -0.246  0.00  0.00    +0.008 A 
ATOM     17  C   UNL     1       1.895   5.745  -0.123  0.00  0.00    -0.017 A 
ATOM     18  C   UNL     1       1.707   4.342  -0.097  0.00  0.00    -0.009 A 
ATOM     19  C   UNL     1       0.414   3.819   0.025  0.00  0.00    +0.009 A 
ATOM     20  C   UNL     1      -0.649   4.667   0.116  0.00  0.00    +0.001 A 
ATOM     21  C   UNL     1      -0.468   6.048   0.090  0.00  0.00    +0.001 A 
ATOM     22  C   UNL     1       0.775   6.590  -0.027  0.00  0.00    +0.008 A 
ENDBRANCH  12  13
ENDBRANCH   6  11
BRANCH   1  23
ATOM     23  S   UNL     1      -2.376  -3.503  -0.122  0.00  0.00    -0.075 S 
BRANCH  23  24
ATOM     24  C   UNL     1      -4.079  -2.891  -0.146  0.00  0.00    +0.173 C 
BRANCH  24  26
ATOM     25  N   UNL     1      -6.363  -3.841  -0.148  0.00  0.00    -0.284 N 
ATOM     26  C   UNL     1      -5.033  -4.058  -0.134  0.00  0.00    +0.228 C 
ATOM     27  O   UNL     1      -4.603  -5.192  -0.111  0.00  0.00    -0.275 OA
ATOM     28  H   UNL     1      -6.754  -2.814  -0.093  0.00  0.00    +0.155 HD
BRANCH  25  34
ATOM     29  C   UNL     1      -8.442  -4.797  -0.944  0.00  0.00    +0.029 A 
ATOM     30  C   UNL     1      -9.314  -5.874  -1.024  0.00  0.00    +0.016 A 
ATOM     31  C   UNL     1      -8.999  -7.067  -0.401  0.00  0.00    +0.001 A 
ATOM     32  C   UNL     1      -7.815  -7.192   0.303  0.00  0.00    +0.002 A 
ATOM     33  C   UNL     1      -6.938  -6.126   0.384  0.00  0.00    +0.024 A 
ATOM     34  C   UNL     1      -7.248  -4.924  -0.233  0.00  0.00    +0.047 A 
BRANCH  29  35
ATOM     35  S   UNL     1      -8.841  -3.276  -1.737  0.00  0.00    -0.124 S 
BRANCH  35  37
ATOM     36  C   UNL     1     -10.921  -2.336  -3.246  0.00  0.00    +0.015 C 
ATOM     37  C   UNL     1     -10.451  -3.593  -2.512  0.00  0.00    +0.071 C 
ENDBRANCH  35  37
ENDBRANCH  29  35
ENDBRANCH  25  34
ENDBRANCH  24  26
ENDBRANCH  23  24
ENDBRANCH   1  23
TORSDOF 9
