REMARK  Name = ZINC20709314
REMARK  9 active torsions:
REMARK  status: ('A' for Active; 'I' for Inactive)
REMARK    1  A    between atoms: C_1  and  C_2
REMARK    2  A    between atoms: C_2  and  O_3
REMARK    3  A    between atoms: O_3  and  C_4
REMARK    4  A    between atoms: C_7  and  N_10
REMARK    5  A    between atoms: N_10  and  S_11
REMARK    6  A    between atoms: S_11  and  C_14
REMARK    7  A    between atoms: C_27  and  C_30
REMARK    8  A    between atoms: C_32  and  N_37
REMARK    9  A    between atoms: C_35  and  O_36
REMARK                            x       y       z     vdW  Elec       q    Type
REMARK                         _______ _______ _______ _____ _____    ______ ____
ROOT
ATOM      1  C   UNL     1       0.939  -0.438   0.904  0.00  0.00    +0.109 A 
ATOM      2  C   UNL     1      -0.273  -1.096   0.790  0.00  0.00    +0.030 A 
ATOM      3  C   UNL     1      -0.352  -2.440   1.096  0.00  0.00    +0.025 A 
ATOM      4  C   UNL     1       0.781  -3.126   1.516  0.00  0.00    +0.031 A 
ATOM      5  C   UNL     1       1.998  -2.471   1.629  0.00  0.00    -0.018 A 
ATOM      6  C   UNL     1       2.066  -1.120   1.314  0.00  0.00    +0.034 A 
ATOM      7  C   UNL     1       3.245  -3.168   2.070  0.00  0.00    +0.049 C 
ATOM      8  C   UNL     1       3.606  -2.806   3.491  0.00  0.00    -0.023 C 
ATOM      9  C   UNL     1       4.112  -3.846   4.110  0.00  0.00    -0.030 C 
ATOM     10  C   UNL     1       4.161  -5.044   3.181  0.00  0.00    +0.033 C 
ATOM     11  C   UNL     1       3.099  -4.702   2.095  0.00  0.00    +0.029 C 
ATOM     12  C   UNL     1       1.729  -5.087   2.662  0.00  0.00    +0.108 C 
ATOM     13  N   UNL     1       0.684  -4.486   1.827  0.00  0.00    -0.336 N 
ATOM     14  H   UNL     1      -0.150  -5.103   1.461  0.00  0.00    +0.147 HD
ENDROOT
BRANCH  12  15
ATOM     15  C   UNL     1       1.604  -4.573   4.073  0.00  0.00    +0.017 A 
ATOM     16  C   UNL     1       1.229  -3.263   4.302  0.00  0.00    +0.041 A 
ATOM     17  C   UNL     1       1.110  -2.792   5.596  0.00  0.00    +0.127 A 
ATOM     18  C   UNL     1       1.376  -3.628   6.665  0.00  0.00    +0.036 A 
ATOM     19  C   UNL     1       1.756  -4.936   6.442  0.00  0.00    +0.048 A 
ATOM     20  C   UNL     1       1.871  -5.413   5.144  0.00  0.00    +0.122 A 
BRANCH  17  21
ATOM     21  N   UNL     1       0.702  -1.390   5.838  0.00  0.00    +0.056 N 
ATOM     22  O   UNL     1       0.602  -0.973   6.978  0.00  0.00    -0.126 OA
ATOM     23  O   UNL     1       0.467  -0.653   4.897  0.00  0.00    -0.126 OA
ENDBRANCH  17  21
BRANCH  20  24
ATOM     24  O   UNL     1       2.246  -6.700   4.922  0.00  0.00    -0.506 OA
ATOM     25  H   UNL     1       2.458  -7.366   5.772  0.00  0.00    +0.292 HD
ENDBRANCH  20  24
ENDBRANCH  12  15
BRANCH   1  26
ATOM     26  S   UNL     1       1.044   1.278   0.516  0.00  0.00    +0.072 S 
ATOM     27  O   UNL     1       2.422   1.567   0.325  0.00  0.00    -0.150 OA
ATOM     28  O   UNL     1       0.068   1.529  -0.485  0.00  0.00    -0.150 OA
BRANCH  26  29
ATOM     29  N   UNL     1       0.568   2.115   1.863  0.00  0.00    -0.216 N 
ATOM     30  H   UNL     1       1.287   2.752   2.398  0.00  0.00    +0.174 HD
BRANCH  29  34
ATOM     31  C   UNL     1      -3.360   1.807   3.226  0.00  0.00    +0.121 A 
ATOM     32  C   UNL     1      -2.306   1.731   4.125  0.00  0.00    +0.047 A 
ATOM     33  C   UNL     1      -1.004   1.833   3.674  0.00  0.00    +0.028 A 
ATOM     34  C   UNL     1      -0.751   2.011   2.321  0.00  0.00    +0.048 A 
ATOM     35  C   UNL     1      -1.806   2.093   1.422  0.00  0.00    +0.028 A 
ATOM     36  C   UNL     1      -3.107   1.985   1.874  0.00  0.00    +0.047 A 
BRANCH  31  37
ATOM     37  O   UNL     1      -4.641   1.708   3.671  0.00  0.00    -0.492 OA
BRANCH  37  39
ATOM     38  C   UNL     1      -7.039   1.662   3.374  0.00  0.00    +0.048 C 
ATOM     39  C   UNL     1      -5.677   1.794   2.690  0.00  0.00    +0.225 C 
ENDBRANCH  37  39
ENDBRANCH  31  37
ENDBRANCH  29  34
ENDBRANCH  26  29
ENDBRANCH   1  26
TORSDOF 8
