REMARK  Name = ZINC16730957
REMARK  7 active torsions:
REMARK  status: ('A' for Active; 'I' for Inactive)
REMARK    1  A    between atoms: C_1  and  C_2
REMARK    2  A    between atoms: C_5  and  N_9
REMARK    3  A    between atoms: C_6  and  C_8
REMARK    4  A    between atoms: C_10  and  C_12
REMARK    5  A    between atoms: C_12  and  N_13
REMARK    6  A    between atoms: N_24  and  C_28
REMARK    7  A    between atoms: C_28  and  C_29
REMARK                            x       y       z     vdW  Elec       q    Type
REMARK                         _______ _______ _______ _____ _____    ______ ____
ROOT
ATOM      1  N   UNL     1      -3.163  -1.792   0.089  0.00  0.00    -0.258 N 
ATOM      2  C   UNL     1      -2.323  -2.894  -0.018  0.00  0.00    +0.045 A 
ATOM      3  C   UNL     1      -2.589  -4.258  -0.067  0.00  0.00    +0.024 A 
ATOM      4  C   UNL     1      -1.553  -5.162  -0.193  0.00  0.00    +0.002 A 
ATOM      5  C   UNL     1      -0.239  -4.727  -0.257  0.00  0.00    +0.001 A 
ATOM      6  C   UNL     1       0.046  -3.378  -0.205  0.00  0.00    +0.010 A 
ATOM      7  C   UNL     1      -0.992  -2.457  -0.087  0.00  0.00    +0.010 A 
ATOM      8  C   UNL     1      -1.032  -0.982  -0.007  0.00  0.00    +0.065 C 
ATOM      9  C   UNL     1       0.038  -0.109  -0.032  0.00  0.00    +0.089 C 
ATOM     10  C   UNL     1       1.498  -0.395   0.028  0.00  0.00    +0.259 C 
ATOM     11  O   UNL     1       1.927  -1.529   0.112  0.00  0.00    -0.269 OA
ATOM     12  N   UNL     1       2.303   0.654  -0.016  0.00  0.00    -0.248 N 
ATOM     13  C   UNL     1       1.822   1.909  -0.109  0.00  0.00    +0.121 C 
ATOM     14  S   UNL     1       2.699   3.378  -0.177  0.00  0.00    -0.027 S 
ATOM     15  S   UNL     1       0.053   1.675  -0.145  0.00  0.00    -0.060 S 
ATOM     16  C   UNL     1      -2.466  -0.643   0.100  0.00  0.00    +0.253 C 
ATOM     17  O   UNL     1      -2.933   0.477   0.185  0.00  0.00    -0.270 OA
ENDROOT
BRANCH   1  18
ATOM     18  C   UNL     1      -4.623  -1.873   0.177  0.00  0.00    +0.210 C 
BRANCH  18  20
ATOM     19  N   UNL     1      -6.549  -1.892  -1.376  0.00  0.00    -0.284 N 
ATOM     20  C   UNL     1      -5.213  -1.831  -1.210  0.00  0.00    +0.235 C 
ATOM     21  O   UNL     1      -4.485  -1.743  -2.176  0.00  0.00    -0.274 OA
ATOM     22  H   UNL     1      -7.134  -1.903  -0.602  0.00  0.00    +0.155 HD
BRANCH  19  27
ATOM     23  C   UNL     1      -8.752  -2.085  -6.600  0.00  0.00    +0.044 C 
ATOM     24  C   UNL     1      -8.167  -2.034  -5.212  0.00  0.00    -0.050 A 
ATOM     25  C   UNL     1      -6.929  -1.452  -5.006  0.00  0.00    +0.005 A 
ATOM     26  C   UNL     1      -6.393  -1.398  -3.735  0.00  0.00    +0.024 A 
ATOM     27  C   UNL     1      -7.093  -1.940  -2.664  0.00  0.00    +0.036 A 
ATOM     28  C   UNL     1      -8.335  -2.523  -2.874  0.00  0.00    -0.029 A 
ATOM     29  C   UNL     1      -8.869  -2.568  -4.147  0.00  0.00    +0.008 A 
ATOM     30  C   UNL     1      -9.100  -3.106  -1.714  0.00  0.00    +0.045 C 
ENDBRANCH  19  27
ENDBRANCH  18  20
ENDBRANCH   1  18
BRANCH  12  31
ATOM     31  C   UNL     1       3.752   0.445   0.039  0.00  0.00    +0.189 C 
BRANCH  31  32
ATOM     32  C   UNL     1       4.289   0.284  -1.360  0.00  0.00    +0.122 A 
ATOM     33  C   UNL     1       4.727   1.278  -2.154  0.00  0.00    +0.046 A 
ATOM     34  C   UNL     1       5.137   0.681  -3.368  0.00  0.00    +0.041 A 
ATOM     35  C   UNL     1       4.926  -0.642  -3.244  0.00  0.00    +0.195 A 
ATOM     36  O   UNL     1       4.417  -0.877  -2.023  0.00  0.00    -0.466 OA
ENDBRANCH  31  32
ENDBRANCH  12  31
TORSDOF 5
