REMARK  Name = ZINC13065550
REMARK  8 active torsions:
REMARK  status: ('A' for Active; 'I' for Inactive)
REMARK    1  A    between atoms: C_3  and  C_6
REMARK    2  A    between atoms: C_6  and  N_57
REMARK    3  A    between atoms: C_7  and  C_8
REMARK    4  A    between atoms: C_7  and  N_57
REMARK    5  A    between atoms: C_23  and  C_24
REMARK    6  A    between atoms: C_23  and  N_57
REMARK    7  A    between atoms: N_28  and  C_29
REMARK    8  A    between atoms: C_29  and  C_30
REMARK                            x       y       z     vdW  Elec       q    Type
REMARK                         _______ _______ _______ _____ _____    ______ ____
ROOT
ATOM      1  N   UNL     1       1.764  -2.727  -1.517  0.00  0.00    +0.392 N 
ATOM      2  H   UNL     1       0.957  -2.601  -2.139  0.00  0.00    -0.080 HD
ENDROOT
BRANCH   1   3
ATOM      3  C   UNL     1       2.975  -2.213  -2.191  0.00  0.00    -0.002 C 
BRANCH   3   6
ATOM      4  C   UNL     1       2.741  -2.925  -5.800  0.00  0.00    +0.041 A 
ATOM      5  C   UNL     1       2.515  -2.084  -4.686  0.00  0.00    +0.042 A 
ATOM      6  C   UNL     1       2.996  -2.728  -3.607  0.00  0.00    +0.089 A 
ATOM      7  O   UNL     1       3.503  -3.905  -4.008  0.00  0.00    -0.470 OA
ATOM      8  C   UNL     1       3.346  -4.033  -5.335  0.00  0.00    +0.195 A 
ENDBRANCH   3   6
ENDBRANCH   1   3
BRANCH   1   9
ATOM      9  C   UNL     1       1.922  -4.167  -1.222  0.00  0.00    -0.036 C 
BRANCH   9  10
ATOM     10  C   UNL     1       0.560  -4.762  -0.975  0.00  0.00    +0.001 A 
ATOM     11  C   UNL     1      -0.125  -5.332  -1.999  0.00  0.00    +0.017 A 
ATOM     12  C   UNL     1      -1.444  -5.902  -1.727  0.00  0.00    +0.002 A 
ATOM     13  C   UNL     1      -2.194  -6.504  -2.744  0.00  0.00    +0.059 A 
ATOM     14  C   UNL     1      -3.433  -7.033  -2.457  0.00  0.00    +0.167 A 
ATOM     15  C   UNL     1      -3.943  -6.969  -1.154  0.00  0.00    +0.168 A 
ATOM     16  C   UNL     1      -3.209  -6.376  -0.143  0.00  0.00    +0.075 A 
ATOM     17  C   UNL     1      -1.957  -5.839  -0.417  0.00  0.00    +0.053 A 
ATOM     18  N   UNL     1      -1.210  -5.244   0.580  0.00  0.00    -0.322 N 
ATOM     19  H   UNL     1      -1.564  -5.201   1.482  0.00  0.00    +0.169 HD
ATOM     20  C   UNL     1       0.004  -4.729   0.320  0.00  0.00    +0.251 A 
ATOM     21  O   UNL     1       0.639  -4.217   1.226  0.00  0.00    -0.268 OA
ATOM     22  O   UNL     1      -5.173  -7.559  -1.142  0.00  0.00    -0.453 OA
ATOM     23  C   UNL     1      -5.237  -8.346  -2.345  0.00  0.00    +0.466 C 
ATOM     24  O   UNL     1      -4.350  -7.663  -3.251  0.00  0.00    -0.453 OA
ENDBRANCH   9  10
ENDBRANCH   1   9
BRANCH   1  25
ATOM     25  C   UNL     1       1.526  -1.978  -0.265  0.00  0.00    +0.001 C 
BRANCH  25  26
ATOM     26  C   UNL     1       1.220  -0.543  -0.607  0.00  0.00    +0.135 A 
ATOM     27  N   UNL     1       2.090   0.418  -0.801  0.00  0.00    -0.115 NA
ATOM     28  N   UNL     1       1.438   1.496  -1.071  0.00  0.00    -0.023 NA
ATOM     29  N   UNL     1       0.175   1.248  -1.055  0.00  0.00    -0.044 NA
ATOM     30  N   UNL     1       0.000   0.001  -0.772  0.00  0.00    -0.227 N 
BRANCH  30  31
ATOM     31  C   UNL     1      -1.285  -0.692  -0.654  0.00  0.00    +0.182 C 
BRANCH  31  32
ATOM     32  C   UNL     1      -1.768  -1.094  -2.024  0.00  0.00    -0.026 A 
ATOM     33  C   UNL     1      -2.476  -0.194  -2.798  0.00  0.00    +0.008 A 
ATOM     34  C   UNL     1      -2.915  -0.560  -4.056  0.00  0.00    +0.038 A 
ATOM     35  C   UNL     1      -2.653  -1.832  -4.537  0.00  0.00    +0.123 A 
ATOM     36  C   UNL     1      -1.948  -2.734  -3.759  0.00  0.00    +0.038 A 
ATOM     37  C   UNL     1      -1.506  -2.364  -2.503  0.00  0.00    +0.008 A 
ATOM     38  F   UNL     1      -3.086  -2.192  -5.766  0.00  0.00    -0.205 F 
ENDBRANCH  31  32
ENDBRANCH  30  31
ENDBRANCH  25  26
ENDBRANCH   1  25
TORSDOF 8
