REMARK  Name = ZINC02201791
REMARK  7 active torsions:
REMARK  status: ('A' for Active; 'I' for Inactive)
REMARK    1  A    between atoms: C_1  and  C_2
REMARK    2  A    between atoms: C_9  and  N_20
REMARK    3  A    between atoms: C_10  and  C_13
REMARK    4  A    between atoms: C_14  and  C_15
REMARK    5  A    between atoms: C_14  and  C_17
REMARK    6  A    between atoms: C_23  and  C_26
REMARK    7  A    between atoms: C_26  and  C_27
REMARK                            x       y       z     vdW  Elec       q    Type
REMARK                         _______ _______ _______ _____ _____    ______ ____
ROOT
ATOM      1  C   UNL     1      -1.495  -1.380  -0.803  0.00  0.00    +0.047 C 
ATOM      2  C   UNL     1      -0.333  -0.515  -0.388  0.00  0.00    -0.007 A 
ATOM      3  C   UNL     1      -0.531   0.797  -0.074  0.00  0.00    +0.008 A 
ATOM      4  C   UNL     1       0.559   1.589   0.309  0.00  0.00    +0.019 A 
ATOM      5  C   UNL     1       1.799   1.052   0.366  0.00  0.00    +0.096 A 
ATOM      6  N   UNL     1       2.008  -0.258   0.054  0.00  0.00    -0.267 N 
ATOM      7  C   UNL     1       0.964  -1.055  -0.323  0.00  0.00    +0.145 A 
ATOM      8  N   UNL     1       1.147  -2.340  -0.632  0.00  0.00    -0.213 NA
ATOM      9  C   UNL     1       2.344  -2.903  -0.589  0.00  0.00    +0.136 A 
ATOM     10  C   UNL     1       3.467  -2.126  -0.205  0.00  0.00    +0.081 A 
ATOM     11  C   UNL     1       3.260  -0.761   0.122  0.00  0.00    +0.267 A 
ATOM     12  O   UNL     1       4.194  -0.054   0.456  0.00  0.00    -0.267 OA
ENDROOT
BRANCH   9  13
ATOM     13  N   UNL     1       2.498  -4.231  -0.914  0.00  0.00    -0.315 N 
ATOM     14  C   UNL     1       3.337  -4.386  -2.109  0.00  0.00    +0.107 C 
ATOM     15  C   UNL     1       3.606  -5.873  -2.355  0.00  0.00    +0.023 C 
ATOM     16  C   UNL     1       2.274  -6.603  -2.545  0.00  0.00    -0.004 C 
ATOM     17  C   UNL     1       1.400  -6.385  -1.307  0.00  0.00    +0.023 C 
ATOM     18  C   UNL     1       1.195  -4.884  -1.091  0.00  0.00    +0.107 C 
BRANCH  16  19
ATOM     19  C   UNL     1       2.531  -8.100  -2.732  0.00  0.00    +0.038 C 
BRANCH  19  20
ATOM     20  C   UNL     1       3.287  -8.323  -4.016  0.00  0.00    -0.047 A 
ATOM     21  C   UNL     1       2.597  -8.536  -5.196  0.00  0.00    +0.003 A 
ATOM     22  C   UNL     1       3.290  -8.736  -6.375  0.00  0.00    +0.000 A 
ATOM     23  C   UNL     1       4.673  -8.733  -6.373  0.00  0.00    +0.000 A 
ATOM     24  C   UNL     1       5.362  -8.525  -5.193  0.00  0.00    +0.000 A 
ATOM     25  C   UNL     1       4.669  -8.320  -4.015  0.00  0.00    +0.003 A 
ENDBRANCH  19  20
ENDBRANCH  16  19
ENDBRANCH   9  13
BRANCH  10  26
ATOM     26  C   UNL     1       4.752  -2.693  -0.149  0.00  0.00    +0.040 C 
ATOM     27  C   UNL     1       4.981  -3.817   0.633  0.00  0.00    +0.114 C 
BRANCH  27  28
ATOM     28  C   UNL     1       6.299  -4.461   0.624  0.00  0.00    +0.252 C 
ATOM     29  O   UNL     1       7.192  -4.010  -0.070  0.00  0.00    -0.270 OA
ATOM     30  N   UNL     1       6.522  -5.551   1.384  0.00  0.00    -0.325 N 
ATOM     31  H   UNL     1       5.810  -5.911   1.937  0.00  0.00    +0.145 HD
ATOM     32  H   UNL     1       7.393  -5.977   1.378  0.00  0.00    +0.145 HD
ENDBRANCH  27  28
BRANCH  27  33
ATOM     33  C   UNL     1       3.931  -4.348   1.450  0.00  0.00    +0.104 C 
ATOM     34  N   UNL     1       3.098  -4.768   2.097  0.00  0.00    -0.191 NA
ENDBRANCH  27  33
ENDBRANCH  10  26
TORSDOF 6
