REMARK  Name = ZINC15619315
REMARK  11 active torsions:
REMARK  status: ('A' for Active; 'I' for Inactive)
REMARK    1  A    between atoms: C_1  and  C_2
REMARK    2  A    between atoms: C_5  and  C_29
REMARK    3  A    between atoms: C_6  and  S_8
REMARK    4  A    between atoms: S_8  and  N_11
REMARK    5  A    between atoms: N_11  and  C_12
REMARK    6  A    between atoms: C_12  and  C_13
REMARK    7  A    between atoms: C_13  and  C_14
REMARK    8  A    between atoms: N_16  and  C_17
REMARK    9  A    between atoms: C_17  and  C_18
REMARK   10  A    between atoms: N_20  and  C_21
REMARK   11  A    between atoms: C_26  and  C_27
REMARK                            x       y       z     vdW  Elec       q    Type
REMARK                         _______ _______ _______ _____ _____    ______ ____
ROOT
ATOM      1  C   UNL     1       4.542   1.785  -0.459  0.00  0.00    +0.215 C 
ATOM      2  O   UNL     1       4.696   2.951  -0.162  0.00  0.00    -0.276 OA
ATOM      3  N   UNL     1       3.300   1.290  -0.626  0.00  0.00    -0.307 N 
ATOM      4  H   UNL     1       3.176   0.358  -0.863  0.00  0.00    +0.149 HD
ENDROOT
BRANCH   1   5
ATOM      5  C   UNL     1       5.740   0.889  -0.641  0.00  0.00    +0.112 C 
BRANCH   5   6
ATOM      6  C   UNL     1       7.019   1.693  -0.396  0.00  0.00    +0.115 C 
BRANCH   6   7
ATOM      7  N   UNL     1       8.184   0.822  -0.574  0.00  0.00    -0.189 NA
ATOM      8  H   UNL     1       8.071  -0.141  -0.600  0.00  0.00    +0.148 HD
BRANCH   7   9
ATOM      9  S   UNL     1       9.695   1.482  -0.730  0.00  0.00    +0.059 S 
ATOM     10  O   UNL     1      10.607   0.395  -0.809  0.00  0.00    -0.153 OA
ATOM     11  O   UNL     1       9.602   2.474  -1.744  0.00  0.00    -0.153 OA
BRANCH   9  17
ATOM     12  C   UNL     1      10.651   5.868   1.948  0.00  0.00    +0.044 C 
ATOM     13  C   UNL     1      10.484   4.370   1.949  0.00  0.00    -0.049 A 
ATOM     14  C   UNL     1      10.611   3.662   3.130  0.00  0.00    +0.004 A 
ATOM     15  C   UNL     1      10.458   2.288   3.131  0.00  0.00    +0.005 A 
ATOM     16  C   UNL     1      10.178   1.623   1.952  0.00  0.00    -0.024 A 
ATOM     17  C   UNL     1      10.051   2.331   0.772  0.00  0.00    +0.108 A 
ATOM     18  C   UNL     1      10.208   3.704   0.770  0.00  0.00    +0.032 A 
ATOM     19  C   UNL     1      10.013   0.125   1.954  0.00  0.00    +0.046 C 
ENDBRANCH   9  17
ENDBRANCH   7   9
ENDBRANCH   6   7
ENDBRANCH   5   6
ENDBRANCH   1   5
BRANCH   3  20
ATOM     20  C   UNL     1       2.135   2.161  -0.448  0.00  0.00    +0.200 C 
BRANCH  20  21
ATOM     21  C   UNL     1       0.875   1.369  -0.690  0.00  0.00    +0.234 C 
ATOM     22  O   UNL     1       0.943   0.194  -0.981  0.00  0.00    -0.274 OA
ATOM     23  N   UNL     1      -0.328   1.969  -0.587  0.00  0.00    -0.284 N 
ATOM     24  H   UNL     1      -0.388   2.885  -0.272  0.00  0.00    +0.155 HD
BRANCH  23  25
ATOM     25  C   UNL     1      -1.490   1.271  -0.934  0.00  0.00    +0.036 A 
ATOM     26  C   UNL     1      -1.410   0.148  -1.748  0.00  0.00    +0.024 A 
ATOM     27  C   UNL     1      -2.558  -0.539  -2.089  0.00  0.00    +0.017 A 
ATOM     28  C   UNL     1      -3.788  -0.110  -1.620  0.00  0.00    +0.018 A 
ATOM     29  C   UNL     1      -3.870   1.008  -0.810  0.00  0.00    +0.020 A 
ATOM     30  C   UNL     1      -2.724   1.696  -0.461  0.00  0.00    -0.028 A 
ATOM     31  C   UNL     1      -2.814   2.910   0.427  0.00  0.00    +0.046 C 
ATOM     32 BR   UNL     1      -5.358  -1.054  -2.089  0.00  0.00    -0.050 Br
ENDBRANCH  23  25
ENDBRANCH  20  21
ENDBRANCH   3  20
TORSDOF 8
