REMARK  Name = ZINC06833932
REMARK  6 active torsions:
REMARK  status: ('A' for Active; 'I' for Inactive)
REMARK    1  A    between atoms: C_7  and  C_11
REMARK    2  A    between atoms: C_11  and  C_13
REMARK    3  A    between atoms: C_11  and  C_25
REMARK    4  A    between atoms: C_13  and  C_14
REMARK    5  A    between atoms: N_16  and  C_17
REMARK    6  A    between atoms: C_17  and  C_18
REMARK                            x       y       z     vdW  Elec       q    Type
REMARK                         _______ _______ _______ _____ _____    ______ ____
ROOT
ATOM      1  C   UNL     1       1.237  -2.183  -0.021  0.00  0.00    +0.063 C 
ENDROOT
BRANCH   1   8
ATOM      2  C   UNL     1      -0.022  -4.906   3.581  0.00  0.00    +0.001 A 
ATOM      3  C   UNL     1       1.004  -5.102   4.495  0.00  0.00    +0.002 A 
ATOM      4  C   UNL     1       2.239  -4.525   4.300  0.00  0.00    +0.026 A 
ATOM      5  C   UNL     1       2.463  -3.737   3.175  0.00  0.00    +0.047 A 
ATOM      6  C   UNL     1       1.420  -3.541   2.252  0.00  0.00    +0.003 A 
ATOM      7  C   UNL     1       0.176  -4.136   2.470  0.00  0.00    +0.010 A 
ATOM      8  C   UNL     1       1.967  -2.681   1.200  0.00  0.00    -0.014 A 
ATOM      9  C   UNL     1       3.244  -2.424   1.527  0.00  0.00    +0.087 A 
ATOM     10  N   UNL     1       3.556  -3.042   2.707  0.00  0.00    -0.360 N 
ATOM     11  H   UNL     1       4.420  -3.000   3.147  0.00  0.00    +0.165 HD
ENDBRANCH   1   8
BRANCH   1  12
ATOM     12  C   UNL     1       1.213  -0.677  -0.013  0.00  0.00    +0.006 A 
ATOM     13  C   UNL     1       2.399   0.034  -0.021  0.00  0.00    +0.008 A 
ATOM     14  C   UNL     1       2.380   1.416  -0.013  0.00  0.00    +0.004 A 
ATOM     15  C   UNL     1       1.175   2.094   0.002  0.00  0.00    +0.049 A 
ATOM     16  C   UNL     1      -0.017   1.389   0.010  0.00  0.00    +0.167 A 
ATOM     17  C   UNL     1       0.002  -0.004   0.002  0.00  0.00    +0.170 A 
ATOM     18  O   UNL     1      -1.285  -0.458   0.012  0.00  0.00    -0.452 OA
ATOM     19  C   UNL     1      -2.092   0.666  -0.387  0.00  0.00    +0.466 C 
ATOM     20  O   UNL     1      -1.316   1.807   0.019  0.00  0.00    -0.453 OA
ENDBRANCH   1  12
BRANCH   1  21
ATOM     21  C   UNL     1       1.955  -2.675  -1.280  0.00  0.00    +0.108 C 
BRANCH  21  22
ATOM     22  C   UNL     1       1.159  -2.282  -2.498  0.00  0.00    +0.214 C 
ATOM     23  O   UNL     1       0.120  -1.670  -2.372  0.00  0.00    -0.276 OA
ATOM     24  N   UNL     1       1.602  -2.612  -3.727  0.00  0.00    -0.311 N 
ATOM     25  H   UNL     1       2.433  -3.102  -3.828  0.00  0.00    +0.149 HD
BRANCH  24  26
ATOM     26  C   UNL     1       0.828  -2.230  -4.911  0.00  0.00    +0.139 C 
BRANCH  26  27
ATOM     27  C   UNL     1       1.535  -2.714  -6.151  0.00  0.00    -0.030 A 
ATOM     28  C   UNL     1       2.457  -1.900  -6.783  0.00  0.00    +0.008 A 
ATOM     29  C   UNL     1       3.110  -2.345  -7.917  0.00  0.00    +0.038 A 
ATOM     30  C   UNL     1       2.832  -3.602  -8.427  0.00  0.00    +0.123 A 
ATOM     31  C   UNL     1       1.905  -4.414  -7.796  0.00  0.00    +0.038 A 
ATOM     32  C   UNL     1       1.257  -3.970  -6.659  0.00  0.00    +0.008 A 
ATOM     33  F   UNL     1       3.466  -4.036  -9.538  0.00  0.00    -0.205 F 
ENDBRANCH  26  27
ENDBRANCH  24  26
ENDBRANCH  21  22
ENDBRANCH   1  21
TORSDOF 6
