REMARK  Name = ZINC58175758
REMARK  10 active torsions:
REMARK  status: ('A' for Active; 'I' for Inactive)
REMARK    1  A    between atoms: C_1  and  C_2
REMARK    2  A    between atoms: C_7  and  N_12
REMARK    3  A    between atoms: C_9  and  C_11
REMARK    4  A    between atoms: N_12  and  C_13
REMARK    5  A    between atoms: N_12  and  C_23
REMARK    6  A    between atoms: C_13  and  C_14
REMARK    7  A    between atoms: C_23  and  C_24
REMARK    8  A    between atoms: N_26  and  C_27
REMARK    9  A    between atoms: C_30  and  S_33
REMARK   10  A    between atoms: S_33  and  N_36
REMARK                            x       y       z     vdW  Elec       q    Type
REMARK                         _______ _______ _______ _____ _____    ______ ____
ROOT
ATOM      1  N   UNL     1       0.688  -0.561   3.565  0.00  0.00    +0.390 N 
ATOM      2  H   UNL     1       0.443  -1.481   3.229  0.00  0.00    -0.080 HD
ENDROOT
BRANCH   1   8
ATOM      3  C   UNL     1      -0.117   1.144  -0.266  0.00  0.00    +0.008 C 
ATOM      4  C   UNL     1      -1.258   1.078   0.751  0.00  0.00    -0.013 C 
ATOM      5  C   UNL     1      -1.437   2.448   1.407  0.00  0.00    +0.003 C 
ATOM      6  C   UNL     1      -0.143   2.846   2.118  0.00  0.00    -0.001 C 
ATOM      7  C   UNL     1       0.190   1.807   3.191  0.00  0.00    -0.015 C 
ATOM      8  C   UNL     1       0.369   0.436   2.535  0.00  0.00    -0.064 C 
ATOM      9  C   UNL     1      -0.926   0.038   1.823  0.00  0.00    -0.025 C 
ATOM     10  C   UNL     1      -0.747  -1.332   1.167  0.00  0.00    +0.006 C 
ENDBRANCH   1   8
BRANCH   1  11
ATOM     11  C   UNL     1       2.126  -0.516   3.862  0.00  0.00    -0.042 C 
BRANCH  11  12
ATOM     12  C   UNL     1       2.903  -0.978   2.656  0.00  0.00    -0.060 A 
ATOM     13  C   UNL     1       3.091  -2.329   2.433  0.00  0.00    +0.005 A 
ATOM     14  C   UNL     1       3.803  -2.758   1.328  0.00  0.00    +0.050 A 
ATOM     15  C   UNL     1       4.330  -1.833   0.441  0.00  0.00    +0.166 A 
ATOM     16  C   UNL     1       4.141  -0.472   0.666  0.00  0.00    +0.166 A 
ATOM     17  C   UNL     1       3.421  -0.050   1.772  0.00  0.00    +0.051 A 
ATOM     18  O   UNL     1       4.750   0.225  -0.338  0.00  0.00    -0.453 OA
ATOM     19  C   UNL     1       5.659  -0.706  -0.955  0.00  0.00    +0.466 C 
ATOM     20  O   UNL     1       5.057  -1.990  -0.703  0.00  0.00    -0.453 OA
ENDBRANCH  11  12
ENDBRANCH   1  11
BRANCH   1  21
ATOM     21  C   UNL     1      -0.074  -0.266   4.786  0.00  0.00    +0.020 C 
BRANCH  21  22
ATOM     22  C   UNL     1      -1.508  -0.689   4.597  0.00  0.00    +0.201 C 
ATOM     23  O   UNL     1      -1.821  -1.363   3.639  0.00  0.00    -0.278 OA
ATOM     24  N   UNL     1      -2.443  -0.317   5.494  0.00  0.00    -0.287 N 
ATOM     25  H   UNL     1      -2.209   0.284   6.218  0.00  0.00    +0.155 HD
BRANCH  24  26
ATOM     26  C   UNL     1      -3.752  -0.798   5.379  0.00  0.00    +0.033 A 
ATOM     27  C   UNL     1      -3.982  -2.082   4.903  0.00  0.00    +0.025 A 
ATOM     28  C   UNL     1      -5.276  -2.554   4.792  0.00  0.00    +0.030 A 
ATOM     29  C   UNL     1      -6.340  -1.750   5.153  0.00  0.00    +0.105 A 
ATOM     30  C   UNL     1      -6.115  -0.470   5.627  0.00  0.00    +0.030 A 
ATOM     31  C   UNL     1      -4.824   0.005   5.747  0.00  0.00    +0.025 A 
BRANCH  29  32
ATOM     32  S   UNL     1      -7.989  -2.356   5.009  0.00  0.00    +0.056 S 
ATOM     33  O   UNL     1      -8.832  -1.217   4.896  0.00  0.00    -0.153 OA
ATOM     34  O   UNL     1      -7.960  -3.382   4.027  0.00  0.00    -0.153 OA
BRANCH  32  35
ATOM     35  N   UNL     1      -8.370  -3.085   6.446  0.00  0.00    -0.204 NA
ATOM     36  H   UNL     1      -7.718  -3.111   7.164  0.00  0.00    +0.144 HD
ATOM     37  H   UNL     1      -9.244  -3.487   6.569  0.00  0.00    +0.144 HD
ENDBRANCH  32  35
ENDBRANCH  29  32
ENDBRANCH  24  26
ENDBRANCH  21  22
ENDBRANCH   1  21
TORSDOF 8
