REMARK  Name = ZINC63375572
REMARK  4 active torsions:
REMARK  status: ('A' for Active; 'I' for Inactive)
REMARK    1  A    between atoms: C_1  and  C_2
REMARK    2  A    between atoms: C_13  and  C_16
REMARK    3  A    between atoms: C_16  and  C_17
REMARK    4  A    between atoms: N_28  and  C_31
REMARK                            x       y       z     vdW  Elec       q    Type
REMARK                         _______ _______ _______ _____ _____    ______ ____
ROOT
ATOM      1  C   UNL     1       0.290   1.931   0.633  0.00  0.00    +0.044 C 
ATOM      2  C   UNL     1       0.382   0.436   0.466  0.00  0.00    -0.050 A 
ATOM      3  C   UNL     1       0.580  -0.110  -0.789  0.00  0.00    +0.005 A 
ATOM      4  C   UNL     1       0.665  -1.477  -0.948  0.00  0.00    +0.024 A 
ATOM      5  C   UNL     1       0.553  -2.319   0.156  0.00  0.00    +0.039 A 
ATOM      6  C   UNL     1       0.356  -1.758   1.415  0.00  0.00    +0.004 A 
ATOM      7  C   UNL     1       0.275  -0.392   1.569  0.00  0.00    +0.011 A 
ATOM      8  C   UNL     1       0.283  -2.914   2.372  0.00  0.00    +0.136 C 
ATOM      9  C   UNL     1      -1.052  -2.941   3.125  0.00  0.00    +0.123 C 
ATOM     10  C   UNL     1      -0.739  -2.292   4.503  0.00  0.00    +0.107 C 
ATOM     11  C   UNL     1       0.760  -1.929   4.437  0.00  0.00    +0.072 C 
ATOM     12  N   UNL     1       1.331  -2.826   3.406  0.00  0.00    -0.295 NA
ATOM     13  C   UNL     1      -1.572  -1.030   4.489  0.00  0.00    +0.232 C 
ATOM     14  O   UNL     1      -1.627  -0.218   5.388  0.00  0.00    -0.274 OA
ATOM     15  N   UNL     1      -2.238  -0.949   3.332  0.00  0.00    -0.210 N 
ATOM     16  C   UNL     1      -2.024  -1.979   2.482  0.00  0.00    +0.233 C 
ATOM     17  O   UNL     1      -2.522  -2.115   1.385  0.00  0.00    -0.274 OA
ATOM     18  C   UNL     1       0.457  -4.141   1.518  0.00  0.00    +0.243 C 
ATOM     19  O   UNL     1       0.462  -5.292   1.899  0.00  0.00    -0.273 OA
ATOM     20  N   UNL     1       0.606  -3.712   0.251  0.00  0.00    -0.283 N 
ATOM     21  H   UNL     1       1.527  -3.734   3.800  0.00  0.00    +0.124 HD
ATOM     22  H   UNL     1       0.735  -4.301  -0.509  0.00  0.00    +0.155 HD
ENDROOT
BRANCH  15  23
ATOM     23  C   UNL     1      -3.097   0.116   3.025  0.00  0.00    +0.044 A 
ATOM     24  C   UNL     1      -4.459  -0.110   2.877  0.00  0.00    +0.024 A 
ATOM     25  C   UNL     1      -5.303   0.941   2.574  0.00  0.00    +0.002 A 
ATOM     26  C   UNL     1      -4.793   2.216   2.419  0.00  0.00    +0.000 A 
ATOM     27  C   UNL     1      -3.437   2.444   2.566  0.00  0.00    +0.002 A 
ATOM     28  C   UNL     1      -2.589   1.398   2.875  0.00  0.00    +0.024 A 
ENDBRANCH  15  23
BRANCH  11  29
ATOM     29  C   UNL     1       1.423  -2.159   5.796  0.00  0.00    +0.052 C 
BRANCH  29  30
ATOM     30  C   UNL     1       2.853  -1.684   5.744  0.00  0.00    -0.040 C 
ATOM     31  C   UNL     1       3.322  -0.475   6.130  0.00  0.00    -0.001 A 
ATOM     32  C   UNL     1       2.668   0.713   6.691  0.00  0.00    +0.010 A 
ATOM     33  C   UNL     1       3.419   1.799   6.983  0.00  0.00    +0.001 A 
ATOM     34  C   UNL     1       4.804   1.818   6.764  0.00  0.00    +0.002 A 
ATOM     35  C   UNL     1       5.476   0.765   6.252  0.00  0.00    +0.026 A 
ATOM     36  C   UNL     1       4.785  -0.430   5.908  0.00  0.00    +0.043 A 
ATOM     37  N   UNL     1       5.204  -1.566   5.404  0.00  0.00    -0.380 N 
ATOM     38  C   UNL     1       4.053  -2.463   5.255  0.00  0.00    +0.144 C 
ATOM     39  H   UNL     1       6.121  -1.778   5.173  0.00  0.00    +0.160 HD
ENDBRANCH  29  30
ENDBRANCH  11  29
TORSDOF 3
