REMARK  Name = ZINC06553057
REMARK  9 active torsions:
REMARK  status: ('A' for Active; 'I' for Inactive)
REMARK    1  A    between atoms: C_1  and  C_2
REMARK    2  A    between atoms: C_2  and  O_3
REMARK    3  A    between atoms: O_3  and  C_4
REMARK    4  A    between atoms: C_6  and  C_11
REMARK    5  A    between atoms: C_9  and  O_10
REMARK    6  A    between atoms: C_13  and  C_25
REMARK    7  A    between atoms: C_15  and  C_20
REMARK    8  A    between atoms: C_17  and  O_19
REMARK    9  A    between atoms: C_25  and  C_27
REMARK                            x       y       z     vdW  Elec       q    Type
REMARK                         _______ _______ _______ _____ _____    ______ ____
ROOT
ATOM      1  C   UNL     1       0.736  -4.699  -0.174  0.00  0.00    +0.120 C 
ATOM      2  C   UNL     1       0.982  -5.415  -1.510  0.00  0.00    +0.149 C 
ATOM      3  C   UNL     1       2.006  -6.529  -1.280  0.00  0.00    +0.284 C 
ATOM      4  N   UNL     1       1.629  -7.342  -0.129  0.00  0.00    -0.306 N 
ATOM      5  C   UNL     1       0.825  -6.943   0.798  0.00  0.00    +0.256 C 
ATOM      6  N   UNL     1       0.236  -5.703   0.778  0.00  0.00    -0.293 N 
ATOM      7  O   UNL     1       3.290  -5.948  -1.046  0.00  0.00    -0.194 OA
ATOM      8  H   UNL     1      -0.496  -5.493   1.379  0.00  0.00    +0.151 HD
ATOM      9  H   UNL     1       2.004  -8.233  -0.056  0.00  0.00    +0.167 HD
ENDROOT
BRANCH   1  12
ATOM     10  C   UNL     1      -0.828  -1.299  -0.695  0.00  0.00    +0.162 A 
ATOM     11  C   UNL     1       0.115  -2.300  -0.526  0.00  0.00    +0.055 A 
ATOM     12  C   UNL     1      -0.291  -3.611  -0.357  0.00  0.00    -0.023 A 
ATOM     13  C   UNL     1      -1.637  -3.926  -0.357  0.00  0.00    +0.009 A 
ATOM     14  C   UNL     1      -2.583  -2.932  -0.526  0.00  0.00    +0.049 A 
ATOM     15  C   UNL     1      -2.183  -1.615  -0.689  0.00  0.00    +0.158 A 
BRANCH  15  16
ATOM     16  O   UNL     1      -3.112  -0.635  -0.849  0.00  0.00    -0.503 OA
ATOM     17  H   UNL     1      -3.356  -0.472  -1.770  0.00  0.00    +0.292 HD
ENDBRANCH  15  16
BRANCH  10  18
ATOM     18  O   UNL     1      -0.429  -0.009  -0.861  0.00  0.00    -0.489 OA
BRANCH  18  20
ATOM     19  C   UNL     1       1.230   1.737  -1.054  0.00  0.00    +0.048 C 
ATOM     20  C   UNL     1       0.977   0.241  -0.856  0.00  0.00    +0.226 C 
ENDBRANCH  18  20
ENDBRANCH  10  18
ENDBRANCH   1  12
BRANCH   3  21
ATOM     21  C   UNL     1       2.074  -7.417  -2.523  0.00  0.00    +0.441 C 
ATOM     22  F   UNL     1       2.338  -6.627  -3.647  0.00  0.00    -0.166 F 
ATOM     23  F   UNL     1       3.094  -8.361  -2.367  0.00  0.00    -0.166 F 
ATOM     24  F   UNL     1       0.851  -8.076  -2.693  0.00  0.00    -0.166 F 
ENDBRANCH   3  21
BRANCH   5  25
ATOM     25  O   UNL     1       0.554  -7.776   1.827  0.00  0.00    -0.483 OA
ATOM     26  H   UNL     1       1.006  -8.629   1.772  0.00  0.00    +0.295 HD
ENDBRANCH   5  25
BRANCH   2  27
ATOM     27  C   UNL     1      -0.308  -6.007  -2.014  0.00  0.00    +0.173 C 
ATOM     28  O   UNL     1      -0.908  -6.817  -1.340  0.00  0.00    -0.292 OA
BRANCH  27  29
ATOM     29  C   UNL     1      -0.841  -5.603  -3.325  0.00  0.00    +0.018 A 
ATOM     30  C   UNL     1      -0.207  -4.596  -4.060  0.00  0.00    +0.013 A 
ATOM     31  C   UNL     1      -0.711  -4.223  -5.287  0.00  0.00    +0.020 A 
ATOM     32  C   UNL     1      -1.843  -4.843  -5.793  0.00  0.00    +0.041 A 
ATOM     33  C   UNL     1      -2.475  -5.842  -5.070  0.00  0.00    +0.020 A 
ATOM     34  C   UNL     1      -1.979  -6.229  -3.844  0.00  0.00    +0.013 A 
ATOM     35 CL   UNL     1      -2.471  -4.365  -7.339  0.00  0.00    -0.084 Cl
ENDBRANCH  27  29
ENDBRANCH   2  27
TORSDOF 8
