REMARK  Name = ZINC09984903
REMARK  10 active torsions:
REMARK  status: ('A' for Active; 'I' for Inactive)
REMARK    1  A    between atoms: C_1  and  C_2
REMARK    2  A    between atoms: C_2  and  C_3
REMARK    3  A    between atoms: C_2  and  C_4
REMARK    4  A    between atoms: C_4  and  C_6
REMARK    5  A    between atoms: C_4  and  N_18
REMARK    6  A    between atoms: N_8  and  N_9
REMARK    7  A    between atoms: C_10  and  C_12
REMARK    8  A    between atoms: N_16  and  C_17
REMARK    9  A    between atoms: N_18  and  S_19
REMARK   10  A    between atoms: S_19  and  C_22
REMARK                            x       y       z     vdW  Elec       q    Type
REMARK                         _______ _______ _______ _____ _____    ______ ____
ROOT
ATOM      1  C   UNL     1       3.941   3.454  -2.497  0.00  0.00    +0.166 C 
ENDROOT
BRANCH   1   2
ATOM      2  C   UNL     1       3.700   2.992  -3.911  0.00  0.00    +0.248 C 
ATOM      3  O   UNL     1       4.297   2.029  -4.344  0.00  0.00    -0.273 OA
ATOM      4  N   UNL     1       2.822   3.650  -4.694  0.00  0.00    -0.233 N 
ATOM      5  H   UNL     1       2.400   4.462  -4.374  0.00  0.00    +0.173 HD
BRANCH   4   6
ATOM      6  N   UNL     1       2.519   3.159  -5.971  0.00  0.00    -0.229 N 
ATOM      7  C   UNL     1       1.641   3.817  -6.755  0.00  0.00    +0.277 C 
ATOM      8  O   UNL     1       1.179   4.881  -6.389  0.00  0.00    -0.267 OA
ATOM      9  H   UNL     1       2.941   2.347  -6.291  0.00  0.00    +0.173 HD
BRANCH   7  10
ATOM     10  C   UNL     1       1.243   3.249  -8.047  0.00  0.00    +0.106 A 
ATOM     11  C   UNL     1       1.611   2.016  -8.543  0.00  0.00    +0.032 A 
ATOM     12  C   UNL     1       1.009   1.882  -9.798  0.00  0.00    +0.020 A 
ATOM     13  C   UNL     1       0.300   3.010 -10.041  0.00  0.00    +0.086 A 
ATOM     14  N   UNL     1       0.430   3.847  -8.983  0.00  0.00    -0.346 N 
ATOM     15  C   UNL     1      -0.189   5.168  -8.857  0.00  0.00    +0.149 C 
ENDBRANCH   7  10
ENDBRANCH   4   6
ENDBRANCH   1   2
BRANCH   1  17
ATOM     16  C   UNL     1       4.996   5.221  -1.080  0.00  0.00    +0.009 C 
ATOM     17  C   UNL     1       4.799   4.720  -2.513  0.00  0.00    +0.010 C 
ATOM     18  C   UNL     1       6.160   4.406  -3.135  0.00  0.00    +0.009 C 
ENDBRANCH   1  17
BRANCH   1  19
ATOM     19  N   UNL     1       4.637   2.402  -1.751  0.00  0.00    -0.178 NA
ATOM     20  H   UNL     1       5.527   2.126  -2.019  0.00  0.00    +0.149 HD
BRANCH  19  21
ATOM     21  S   UNL     1       3.903   1.684  -0.452  0.00  0.00    +0.059 S 
ATOM     22  O   UNL     1       3.376   2.734   0.348  0.00  0.00    -0.153 OA
ATOM     23  O   UNL     1       4.822   0.727   0.056  0.00  0.00    -0.153 OA
BRANCH  21  24
ATOM     24  C   UNL     1       2.522   0.778  -1.067  0.00  0.00    +0.107 A 
ATOM     25  C   UNL     1       1.286   1.388  -1.168  0.00  0.00    +0.030 A 
ATOM     26  C   UNL     1       0.202   0.679  -1.651  0.00  0.00    +0.023 A 
ATOM     27  C   UNL     1       0.355  -0.642  -2.034  0.00  0.00    +0.059 A 
ATOM     28  C   UNL     1       1.593  -1.252  -1.932  0.00  0.00    +0.061 A 
ATOM     29  C   UNL     1       2.677  -0.541  -1.449  0.00  0.00    +0.050 A 
ATOM     30 CL   UNL     1       1.786  -2.910  -2.411  0.00  0.00    -0.082 Cl
ATOM     31 CL   UNL     1      -1.006  -1.533  -2.640  0.00  0.00    -0.082 Cl
ENDBRANCH  21  24
ENDBRANCH  19  21
ENDBRANCH   1  19
TORSDOF 7
