REMARK  Name = ZINC36610144
REMARK  8 active torsions:
REMARK  status: ('A' for Active; 'I' for Inactive)
REMARK    1  A    between atoms: C_4  and  N_7
REMARK    2  A    between atoms: N_7  and  C_8
REMARK    3  A    between atoms: C_8  and  C_10
REMARK    4  A    between atoms: C_8  and  C_15
REMARK    5  A    between atoms: N_17  and  C_18
REMARK    6  A    between atoms: C_24  and  C_26
REMARK    7  A    between atoms: C_27  and  O_33
REMARK    8  A    between atoms: C_31  and  O_32
REMARK                            x       y       z     vdW  Elec       q    Type
REMARK                         _______ _______ _______ _____ _____    ______ ____
ROOT
ATOM      1  N   UNL     1       3.617  -0.650  -0.095  0.00  0.00    -0.248 N 
ATOM      2  C   UNL     1       4.775   0.038  -0.146  0.00  0.00    +0.259 C 
ATOM      3  O   UNL     1       5.834  -0.558  -0.198  0.00  0.00    -0.269 OA
ENDROOT
BRANCH   1   7
ATOM      4  C   UNL     1      -0.010   1.390   0.091  0.00  0.00    +0.000 A 
ATOM      5  C   UNL     1       0.033   0.103  -0.415  0.00  0.00    +0.002 A 
ATOM      6  C   UNL     1       1.234  -0.576  -0.478  0.00  0.00    +0.023 A 
ATOM      7  C   UNL     1       2.399   0.035  -0.033  0.00  0.00    +0.038 A 
ATOM      8  C   UNL     1       2.352   1.327   0.474  0.00  0.00    +0.023 A 
ATOM      9  C   UNL     1       1.148   2.001   0.535  0.00  0.00    +0.002 A 
ENDBRANCH   1   7
BRANCH   2  10
ATOM     10  C   UNL     1       4.758   1.510  -0.138  0.00  0.00    +0.120 A 
ATOM     11  C   UNL     1       4.978   2.212   1.056  0.00  0.00    +0.133 A 
ATOM     12  C   UNL     1       4.960   3.598   1.052  0.00  0.00    +0.046 A 
ATOM     13  C   UNL     1       4.726   4.287  -0.123  0.00  0.00    +0.007 A 
ATOM     14  C   UNL     1       4.509   3.605  -1.306  0.00  0.00    +0.046 A 
ATOM     15  C   UNL     1       4.528   2.220  -1.326  0.00  0.00    +0.133 A 
BRANCH  15  16
ATOM     16  O   UNL     1       4.319   1.552  -2.488  0.00  0.00    -0.506 OA
ATOM     17  H   UNL     1       3.390   1.348  -2.663  0.00  0.00    +0.292 HD
ENDBRANCH  15  16
BRANCH  11  18
ATOM     18  O   UNL     1       5.206   1.538   2.211  0.00  0.00    -0.506 OA
ATOM     19  H   UNL     1       6.140   1.353   2.380  0.00  0.00    +0.292 HD
ENDBRANCH  11  18
ENDBRANCH   2  10
BRANCH   1  20
ATOM     20  C   UNL     1       3.634  -2.115  -0.105  0.00  0.00    +0.233 C 
BRANCH  20  21
ATOM     21  C   UNL     1       2.988  -2.633   1.154  0.00  0.00    +0.135 A 
ATOM     22  C   UNL     1       3.414  -3.680   1.883  0.00  0.00    +0.047 A 
ATOM     23  C   UNL     1       2.521  -3.814   2.970  0.00  0.00    +0.041 A 
ATOM     24  C   UNL     1       1.601  -2.840   2.841  0.00  0.00    +0.195 A 
ATOM     25  O   UNL     1       1.893  -2.124   1.742  0.00  0.00    -0.465 OA
ENDBRANCH  20  21
BRANCH  20  26
ATOM     26  C   UNL     1       2.872  -2.618  -1.304  0.00  0.00    +0.242 C 
ATOM     27  O   UNL     1       2.364  -1.830  -2.074  0.00  0.00    -0.273 OA
ATOM     28  N   UNL     1       2.754  -3.943  -1.520  0.00  0.00    -0.311 N 
ATOM     29  H   UNL     1       3.159  -4.573  -0.904  0.00  0.00    +0.149 HD
BRANCH  28  30
ATOM     30  C   UNL     1       2.013  -4.432  -2.686  0.00  0.00    +0.073 C 
ATOM     31  C   UNL     1       0.522  -4.503  -2.349  0.00  0.00    +0.022 C 
ATOM     32  C   UNL     1      -0.252  -5.013  -3.567  0.00  0.00    +0.002 C 
ATOM     33  C   UNL     1       0.253  -6.407  -3.944  0.00  0.00    +0.000 C 
ATOM     34  C   UNL     1       1.744  -6.337  -4.280  0.00  0.00    +0.002 C 
ATOM     35  C   UNL     1       2.517  -5.826  -3.063  0.00  0.00    +0.022 C 
ENDBRANCH  28  30
ENDBRANCH  20  26
ENDBRANCH   1  20
TORSDOF 8
