REMARK  Name = ZINC38547634
REMARK  11 active torsions:
REMARK  status: ('A' for Active; 'I' for Inactive)
REMARK    1  A    between atoms: C_1  and  C_2
REMARK    2  A    between atoms: C_2  and  O_3
REMARK    3  A    between atoms: O_3  and  C_4
REMARK    4  A    between atoms: C_7  and  C_10
REMARK    5  A    between atoms: C_10  and  C_12
REMARK    6  A    between atoms: C_10  and  N_27
REMARK    7  A    between atoms: C_13  and  C_26
REMARK    8  A    between atoms: C_14  and  C_25
REMARK    9  A    between atoms: C_16  and  N_17
REMARK   10  A    between atoms: C_18  and  C_20
REMARK   11  A    between atoms: C_32  and  C_34
REMARK                            x       y       z     vdW  Elec       q    Type
REMARK                         _______ _______ _______ _____ _____    ______ ____
ROOT
ATOM      1  C   UNL     1       1.125  -6.041   1.758  0.00  0.00    +0.135 C 
ENDROOT
BRANCH   1   2
ATOM      2  N   UNL     1       0.970  -6.398   3.171  0.00  0.00    -0.320 N 
ATOM      3  C   UNL     1       0.600  -7.690   3.524  0.00  0.00    +0.097 A 
ATOM      4  C   UNL     1       0.485  -8.668   2.541  0.00  0.00    +0.041 A 
ATOM      5  C   UNL     1       0.116  -9.950   2.907  0.00  0.00    +0.005 A 
ATOM      6  C   UNL     1      -0.127 -10.212   4.249  0.00  0.00    +0.021 A 
ATOM      7  C   UNL     1       0.006  -9.194   5.172  0.00  0.00    +0.014 A 
ATOM      8  N   UNL     1       0.365  -7.981   4.794  0.00  0.00    -0.347 N 
ATOM      9  C   UNL     1      -0.257  -9.472   6.629  0.00  0.00    +0.063 C 
ATOM     10  H   UNL     1       1.126  -5.733   3.859  0.00  0.00    +0.148 HD
ATOM     11  H   UNL     1       0.455  -7.285   5.463  0.00  0.00    +0.167 HD
ENDBRANCH   1   2
BRANCH   1  12
ATOM     12  C   UNL     1       2.468  -6.515   1.264  0.00  0.00    +0.009 A 
ATOM     13  C   UNL     1       2.596  -7.085   0.011  0.00  0.00    -0.033 A 
ATOM     14  C   UNL     1       3.818  -7.500  -0.402  0.00  0.00    -0.008 A 
ATOM     15  S   UNL     1       4.845  -7.087   0.999  0.00  0.00    -0.078 S 
ATOM     16  C   UNL     1       3.579  -6.383   2.043  0.00  0.00    +0.078 A 
ATOM     17  C   UNL     1       4.209  -8.144  -1.706  0.00  0.00    +0.052 C 
ATOM     18  C   UNL     1       1.393  -7.244  -0.882  0.00  0.00    +0.045 C 
BRANCH  16  19
ATOM     19  N   UNL     1       3.696  -5.841   3.324  0.00  0.00    -0.273 N 
ATOM     20  C   UNL     1       4.879  -5.885   3.969  0.00  0.00    +0.284 C 
ATOM     21  O   UNL     1       5.866  -6.313   3.400  0.00  0.00    -0.266 OA
ATOM     22  H   UNL     1       2.926  -5.433   3.750  0.00  0.00    +0.156 HD
BRANCH  20  23
ATOM     23  C   UNL     1       4.976  -5.418   5.355  0.00  0.00    +0.189 A 
ATOM     24  C   UNL     1       6.123  -5.314   6.088  0.00  0.00    +0.054 A 
ATOM     25  C   UNL     1       5.752  -4.827   7.351  0.00  0.00    +0.042 A 
ATOM     26  C   UNL     1       4.412  -4.657   7.334  0.00  0.00    +0.196 A 
ATOM     27  O   UNL     1       3.948  -5.010   6.128  0.00  0.00    -0.458 OA
ENDBRANCH  20  23
ENDBRANCH  16  19
ENDBRANCH   1  12
BRANCH   1  31
ATOM     28  C   UNL     1       0.863  -1.798   1.324  0.00  0.00    +0.121 A 
ATOM     29  C   UNL     1       0.362  -2.630   0.334  0.00  0.00    +0.046 A 
ATOM     30  C   UNL     1       0.448  -4.001   0.476  0.00  0.00    +0.009 A 
ATOM     31  C   UNL     1       1.033  -4.545   1.605  0.00  0.00    -0.023 A 
ATOM     32  C   UNL     1       1.533  -3.718   2.594  0.00  0.00    +0.009 A 
ATOM     33  C   UNL     1       1.455  -2.346   2.453  0.00  0.00    +0.046 A 
BRANCH  28  34
ATOM     34  O   UNL     1       0.780  -0.449   1.186  0.00  0.00    -0.492 OA
BRANCH  34  36
ATOM     35  C   UNL     1       0.157   1.575   0.021  0.00  0.00    +0.048 C 
ATOM     36  C   UNL     1       0.158   0.045  -0.002  0.00  0.00    +0.225 C 
ENDBRANCH  34  36
ENDBRANCH  28  34
ENDBRANCH   1  31
TORSDOF 7
