REMARK  Name = ZINC13064322
REMARK  13 active torsions:
REMARK  status: ('A' for Active; 'I' for Inactive)
REMARK    1  A    between atoms: C_1  and  C_2
REMARK    2  A    between atoms: C_2  and  C_3
REMARK    3  A    between atoms: C_3  and  C_5
REMARK    4  A    between atoms: C_3  and  N_70
REMARK    5  A    between atoms: N_9  and  C_10
REMARK    6  A    between atoms: C_10  and  C_11
REMARK    7  A    between atoms: C_18  and  C_19
REMARK    8  A    between atoms: C_18  and  N_70
REMARK    9  A    between atoms: C_22  and  C_25
REMARK   10  A    between atoms: C_26  and  C_27
REMARK   11  A    between atoms: C_26  and  N_70
REMARK   12  A    between atoms: C_32  and  O_39
REMARK   13  A    between atoms: O_39  and  C_40
REMARK                            x       y       z     vdW  Elec       q    Type
REMARK                         _______ _______ _______ _____ _____    ______ ____
ROOT
ATOM      1  N   UNL     1      -7.981  -1.725   4.290  0.00  0.00    +0.392 N 
ATOM      2  H   UNL     1      -7.468  -2.607   4.180  0.00  0.00    -0.080 HD
ENDROOT
BRANCH   1   3
ATOM      3  C   UNL     1      -9.415  -2.026   4.483  0.00  0.00    +0.003 C 
BRANCH   3   4
ATOM      4  C   UNL     1      -9.766  -3.241   3.664  0.00  0.00    +0.138 A 
ATOM      5  N   UNL     1      -9.426  -3.470   2.419  0.00  0.00    -0.115 NA
ATOM      6  N   UNL     1      -9.915  -4.612   2.077  0.00  0.00    -0.023 NA
ATOM      7  N   UNL     1     -10.558  -5.117   3.071  0.00  0.00    -0.044 NA
ATOM      8  N   UNL     1     -10.485  -4.304   4.070  0.00  0.00    -0.226 N 
BRANCH   8   9
ATOM      9  C   UNL     1     -11.076  -4.499   5.396  0.00  0.00    +0.182 C 
BRANCH   9  10
ATOM     10  C   UNL     1     -12.471  -3.927   5.413  0.00  0.00    -0.026 A 
ATOM     11  C   UNL     1     -12.672  -2.609   5.778  0.00  0.00    +0.008 A 
ATOM     12  C   UNL     1     -13.950  -2.083   5.789  0.00  0.00    +0.038 A 
ATOM     13  C   UNL     1     -15.030  -2.879   5.446  0.00  0.00    +0.123 A 
ATOM     14  C   UNL     1     -14.827  -4.201   5.086  0.00  0.00    +0.038 A 
ATOM     15  C   UNL     1     -13.548  -4.723   5.070  0.00  0.00    +0.008 A 
ATOM     16  F   UNL     1     -16.279  -2.367   5.461  0.00  0.00    -0.205 F 
ENDBRANCH   9  10
ENDBRANCH   8   9
ENDBRANCH   3   4
BRANCH   3  18
ATOM     17  C   UNL     1     -10.019   0.353   4.954  0.00  0.00    +0.002 C 
ATOM     18  C   UNL     1     -10.274  -0.842   4.033  0.00  0.00    -0.011 C 
ENDBRANCH   3  18
ENDBRANCH   1   3
BRANCH   1  19
ATOM     19  C   UNL     1      -7.453  -1.006   5.469  0.00  0.00    -0.042 C 
BRANCH  19  20
ATOM     20  C   UNL     1      -7.393  -1.961   6.633  0.00  0.00    -0.064 A 
ATOM     21  C   UNL     1      -8.430  -2.005   7.546  0.00  0.00    +0.002 A 
ATOM     22  C   UNL     1      -8.377  -2.884   8.611  0.00  0.00    +0.003 A 
ATOM     23  C   UNL     1      -7.283  -3.713   8.770  0.00  0.00    -0.050 A 
ATOM     24  C   UNL     1      -6.243  -3.666   7.859  0.00  0.00    +0.003 A 
ATOM     25  C   UNL     1      -6.298  -2.790   6.792  0.00  0.00    +0.002 A 
ATOM     26  C   UNL     1      -7.223  -4.668   9.934  0.00  0.00    +0.044 C 
ENDBRANCH  19  20
ENDBRANCH   1  19
BRANCH   1  27
ATOM     27  C   UNL     1      -7.795  -0.906   3.074  0.00  0.00    -0.036 C 
BRANCH  27  28
ATOM     28  C   UNL     1      -6.332  -0.900   2.714  0.00  0.00    +0.001 A 
ATOM     29  C   UNL     1      -5.852  -1.800   1.818  0.00  0.00    +0.017 A 
ATOM     30  C   UNL     1      -4.428  -1.768   1.490  0.00  0.00    -0.001 A 
ATOM     31  C   UNL     1      -3.877  -2.672   0.573  0.00  0.00    +0.013 A 
ATOM     32  C   UNL     1      -2.545  -2.615   0.281  0.00  0.00    +0.046 A 
ATOM     33  C   UNL     1      -1.726  -1.670   0.898  0.00  0.00    +0.122 A 
ATOM     34  C   UNL     1      -2.251  -0.768   1.806  0.00  0.00    +0.072 A 
ATOM     35  C   UNL     1      -3.605  -0.808   2.111  0.00  0.00    +0.053 A 
ATOM     36  N   UNL     1      -4.155   0.080   3.012  0.00  0.00    -0.322 N 
ATOM     37  H   UNL     1      -3.588   0.740   3.440  0.00  0.00    +0.169 HD
ATOM     38  C   UNL     1      -5.466   0.041   3.308  0.00  0.00    +0.251 A 
ATOM     39  O   UNL     1      -5.918   0.840   4.111  0.00  0.00    -0.268 OA
BRANCH  33  40
ATOM     40  O   UNL     1      -0.402  -1.631   0.600  0.00  0.00    -0.495 OA
ATOM     41  C   UNL     1       0.079  -2.589  -0.346  0.00  0.00    +0.277 C 
ENDBRANCH  33  40
ENDBRANCH  27  28
ENDBRANCH   1  27
TORSDOF 10
