REMARK  Name = ZINC18250385
REMARK  7 active torsions:
REMARK  status: ('A' for Active; 'I' for Inactive)
REMARK    1  A    between atoms: C_1  and  C_2
REMARK    2  A    between atoms: C_5  and  N_9
REMARK    3  A    between atoms: C_13  and  N_17
REMARK    4  A    between atoms: N_17  and  C_18
REMARK    5  A    between atoms: C_18  and  C_19
REMARK    6  A    between atoms: C_22  and  S_25
REMARK    7  A    between atoms: S_25  and  N_28
REMARK                            x       y       z     vdW  Elec       q    Type
REMARK                         _______ _______ _______ _____ _____    ______ ____
ROOT
ATOM      1  N   UNL     1       0.059  -4.173  -0.022  0.00  0.00    -0.209 N 
ATOM      2  C   UNL     1      -0.030  -4.892  -1.148  0.00  0.00    +0.228 C 
ATOM      3  O   UNL     1      -0.134  -4.435  -2.266  0.00  0.00    -0.275 OA
ATOM      4  C   UNL     1       0.020  -6.364  -0.804  0.00  0.00    +0.125 C 
ATOM      5  C   UNL     1       0.155  -6.372   0.733  0.00  0.00    +0.150 C 
ATOM      6  C   UNL     1       0.172  -4.903   1.094  0.00  0.00    +0.244 C 
ATOM      7  O   UNL     1       0.271  -4.458   2.217  0.00  0.00    -0.273 OA
ENDROOT
BRANCH   1  12
ATOM      8  C   UNL     1      -0.013   1.503   0.012  0.00  0.00    +0.045 C 
ATOM      9  C   UNL     1       0.005  -0.004   0.003  0.00  0.00    -0.032 A 
ATOM     10  C   UNL     1       1.157  -0.682   0.358  0.00  0.00    +0.006 A 
ATOM     11  C   UNL     1       1.177  -2.063   0.351  0.00  0.00    +0.024 A 
ATOM     12  C   UNL     1       0.040  -2.771  -0.013  0.00  0.00    +0.045 A 
ATOM     13  C   UNL     1      -1.115  -2.089  -0.369  0.00  0.00    +0.044 A 
ATOM     14  C   UNL     1      -1.131  -0.707  -0.356  0.00  0.00    +0.046 A 
ATOM     15 CL   UNL     1      -2.577   0.148  -0.795  0.00  0.00    -0.083 Cl
ENDBRANCH   1  12
BRANCH   5  16
ATOM     16  N   UNL     1      -0.993  -7.051   1.349  0.00  0.00    -0.301 NA
ATOM     17  H   UNL     1      -1.788  -6.433   1.412  0.00  0.00    +0.123 HD
BRANCH  16  18
ATOM     18  C   UNL     1      -0.639  -7.590   2.669  0.00  0.00    +0.117 C 
BRANCH  18  19
ATOM     19  C   UNL     1      -1.839  -8.277   3.269  0.00  0.00    -0.033 A 
ATOM     20  C   UNL     1      -2.727  -7.561   4.049  0.00  0.00    +0.007 A 
ATOM     21  C   UNL     1      -3.827  -8.192   4.599  0.00  0.00    +0.029 A 
ATOM     22  C   UNL     1      -4.039  -9.538   4.369  0.00  0.00    +0.105 A 
ATOM     23  C   UNL     1      -3.151 -10.254   3.587  0.00  0.00    +0.029 A 
ATOM     24  C   UNL     1      -2.054  -9.622   3.034  0.00  0.00    +0.007 A 
BRANCH  22  25
ATOM     25  S   UNL     1      -5.441 -10.342   5.071  0.00  0.00    +0.056 S 
ATOM     26  O   UNL     1      -5.118 -11.723   5.154  0.00  0.00    -0.153 OA
ATOM     27  O   UNL     1      -5.820  -9.578   6.207  0.00  0.00    -0.153 OA
BRANCH  25  28
ATOM     28  N   UNL     1      -6.679 -10.211   3.978  0.00  0.00    -0.204 NA
ATOM     29  H   UNL     1      -6.536  -9.751   3.136  0.00  0.00    +0.144 HD
ATOM     30  H   UNL     1      -7.547 -10.595   4.180  0.00  0.00    +0.144 HD
ENDBRANCH  25  28
ENDBRANCH  22  25
ENDBRANCH  18  19
ENDBRANCH  16  18
ENDBRANCH   5  16
TORSDOF 6
