REMARK  Name = ZINC38638247
REMARK  5 active torsions:
REMARK  status: ('A' for Active; 'I' for Inactive)
REMARK    1  A    between atoms: C_4  and  O_7
REMARK    2  A    between atoms: O_7  and  S_8
REMARK    3  A    between atoms: S_8  and  C_11
REMARK    4  A    between atoms: C_13  and  S_19
REMARK    5  A    between atoms: S_19  and  N_22
REMARK                            x       y       z     vdW  Elec       q    Type
REMARK                         _______ _______ _______ _____ _____    ______ ____
ROOT
ATOM      1  C   UNL     1       3.192  -2.273   2.002  0.00  0.00    +0.148 A 
ATOM      2  C   UNL     1       2.051  -2.013   2.737  0.00  0.00    +0.062 A 
ATOM      3  C   UNL     1       1.306  -3.058   3.252  0.00  0.00    +0.125 A 
ATOM      4  C   UNL     1       1.704  -4.365   3.031  0.00  0.00    +0.069 A 
ATOM      5  C   UNL     1       2.845  -4.626   2.296  0.00  0.00    +0.044 A 
ATOM      6  C   UNL     1       3.587  -3.580   1.777  0.00  0.00    +0.071 A 
ATOM      7 CL   UNL     1       5.017  -3.907   0.848  0.00  0.00    -0.081 Cl
ATOM      8 CL   UNL     1       0.769  -5.677   3.679  0.00  0.00    -0.081 Cl
ENDROOT
BRANCH   1   9
ATOM      9  S   UNL     1       4.140  -0.941   1.346  0.00  0.00    +0.152 S 
ATOM     10  O   UNL     1       5.458  -1.436   1.154  0.00  0.00    -0.131 OA
ATOM     11  O   UNL     1       3.863   0.192   2.158  0.00  0.00    -0.131 OA
BRANCH   9  12
ATOM     12  O   UNL     1       3.586  -0.632  -0.037  0.00  0.00    -0.342 OA
BRANCH  12  16
ATOM     13  C   UNL     1      -0.017   1.378   0.010  0.00  0.00    +0.000 A 
ATOM     14  C   UNL     1       1.170   2.088   0.002  0.00  0.00    +0.004 A 
ATOM     15  C   UNL     1       2.377   1.417  -0.013  0.00  0.00    +0.048 A 
ATOM     16  C   UNL     1       2.399   0.030  -0.021  0.00  0.00    +0.157 A 
ATOM     17  C   UNL     1       1.207  -0.680  -0.013  0.00  0.00    +0.048 A 
ATOM     18  C   UNL     1       0.002  -0.004   0.002  0.00  0.00    +0.004 A 
ENDBRANCH  12  16
ENDBRANCH   9  12
ENDBRANCH   1   9
BRANCH   3  19
ATOM     19  S   UNL     1      -0.148  -2.725   4.189  0.00  0.00    +0.057 S 
ATOM     20  O   UNL     1      -0.054  -3.503   5.375  0.00  0.00    -0.153 OA
ATOM     21  O   UNL     1      -0.300  -1.313   4.215  0.00  0.00    -0.153 OA
BRANCH  19  22
ATOM     22  N   UNL     1      -1.431  -3.324   3.331  0.00  0.00    -0.203 NA
ATOM     23  H   UNL     1      -1.283  -3.759   2.477  0.00  0.00    +0.144 HD
ATOM     24  H   UNL     1      -2.332  -3.239   3.682  0.00  0.00    +0.144 HD
ENDBRANCH  19  22
ENDBRANCH   3  19
TORSDOF 5
