REMARK  Name = ZINC12864569
REMARK  5 active torsions:
REMARK  status: ('A' for Active; 'I' for Inactive)
REMARK    1  A    between atoms: C_1  and  C_2
REMARK    2  A    between atoms: C_5  and  N_9
REMARK    3  A    between atoms: C_6  and  C_8
REMARK    4  A    between atoms: C_27  and  C_34
REMARK    5  A    between atoms: C_28  and  C_33
REMARK                            x       y       z     vdW  Elec       q    Type
REMARK                         _______ _______ _______ _____ _____    ______ ____
ROOT
ATOM      1  N   UNL     1      -0.016   1.334   0.009  0.00  0.00    -0.210 N 
ATOM      2  C   UNL     1       0.002  -0.004   0.002  0.00  0.00    +0.228 C 
ATOM      3  O   UNL     1      -0.978  -0.718   0.009  0.00  0.00    -0.275 OA
ATOM      4  C   UNL     1       1.435  -0.487  -0.016  0.00  0.00    +0.074 C 
ATOM      5  C   UNL     1       1.757  -1.184   1.319  0.00  0.00    -0.054 C 
ATOM      6  C   UNL     1       0.477  -1.687   1.972  0.00  0.00    -0.016 C 
ATOM      7  C   UNL     1      -0.006  -0.539   2.880  0.00  0.00    -0.020 C 
ATOM      8  C   UNL     1       1.024   0.591   2.682  0.00  0.00    -0.076 C 
ATOM      9  C   UNL     1       3.011   0.815   1.322  0.00  0.00    +0.053 C 
ATOM     10  C   UNL     1       2.257   0.831  -0.012  0.00  0.00    +0.089 C 
ATOM     11  C   UNL     1       1.193   1.906   0.001  0.00  0.00    +0.229 C 
ATOM     12  O   UNL     1       1.404   3.100   0.003  0.00  0.00    -0.275 OA
ATOM     13  C   UNL     1       3.126   2.196   1.903  0.00  0.00    -0.027 A 
ATOM     14  C   UNL     1       2.201   3.142   2.287  0.00  0.00    +0.005 A 
ATOM     15  C   UNL     1       2.624   4.355   2.800  0.00  0.00    +0.004 A 
ATOM     16  C   UNL     1       3.977   4.615   2.926  0.00  0.00    -0.046 A 
ATOM     17  C   UNL     1       4.907   3.671   2.542  0.00  0.00    -0.026 A 
ATOM     18  C   UNL     1       4.489   2.447   2.024  0.00  0.00    +0.039 A 
ATOM     19  N   UNL     1       5.224   1.348   1.573  0.00  0.00    -0.286 N 
ATOM     20  C   UNL     1       4.431   0.348   1.143  0.00  0.00    +0.212 C 
ATOM     21  O   UNL     1       4.791  -0.721   0.698  0.00  0.00    -0.277 OA
ATOM     22  C   UNL     1       6.378   3.965   2.683  0.00  0.00    +0.046 C 
ATOM     23  C   UNL     1       4.437   5.936   3.486  0.00  0.00    +0.044 C 
ATOM     24  H   UNL     1       6.193   1.310   1.569  0.00  0.00    +0.155 HD
ATOM     25  N   UNL     1       2.223  -0.098   2.160  0.00  0.00    +0.395 N 
ATOM     26  H   UNL     1       2.796  -0.455   2.934  0.00  0.00    -0.079 HD
ENDROOT
BRANCH   1  31
ATOM     27  C   UNL     1      -4.830   4.340   0.049  0.00  0.00    +0.044 C 
ATOM     28  C   UNL     1      -3.552   3.541   0.038  0.00  0.00    -0.050 A 
ATOM     29  C   UNL     1      -2.961   3.169   1.232  0.00  0.00    +0.005 A 
ATOM     30  C   UNL     1      -1.790   2.438   1.226  0.00  0.00    +0.024 A 
ATOM     31  C   UNL     1      -1.206   2.076   0.019  0.00  0.00    +0.047 A 
ATOM     32  C   UNL     1      -1.798   2.455  -1.177  0.00  0.00    -0.028 A 
ATOM     33  C   UNL     1      -2.973   3.182  -1.165  0.00  0.00    +0.008 A 
ATOM     34  C   UNL     1      -1.165   2.069  -2.489  0.00  0.00    +0.046 C 
ENDBRANCH   1  31
TORSDOF 1
