REMARK  Name = ZINC39663987
REMARK  8 active torsions:
REMARK  status: ('A' for Active; 'I' for Inactive)
REMARK    1  A    between atoms: C_1  and  O_2
REMARK    2  A    between atoms: O_2  and  C_3
REMARK    3  A    between atoms: C_6  and  C_9
REMARK    4  A    between atoms: C_9  and  C_11
REMARK    5  A    between atoms: C_9  and  N_35
REMARK    6  A    between atoms: C_11  and  N_12
REMARK    7  A    between atoms: C_13  and  C_15
REMARK    8  A    between atoms: C_26  and  C_28
REMARK                            x       y       z     vdW  Elec       q    Type
REMARK                         _______ _______ _______ _____ _____    ______ ____
ROOT
ATOM      1  C   UNL     1       2.605  -5.217   8.324  0.00  0.00    +0.100 C 
ATOM      2  C   UNL     1       2.956  -6.441   7.448  0.00  0.00    +0.121 C 
ATOM      3  N   UNL     1       2.638  -7.613   8.297  0.00  0.00    -0.296 N 
ATOM      4  C   UNL     1       1.387  -7.232   8.997  0.00  0.00    +0.115 C 
ATOM      5  C   UNL     1       1.575  -5.741   9.338  0.00  0.00    -0.004 C 
ATOM      6  C   UNL     1       2.108  -5.588  10.760  0.00  0.00    -0.010 C 
ATOM      7  C   UNL     1       1.044  -6.062  11.753  0.00  0.00    -0.082 C 
ATOM      8  N   UNL     1      -0.178  -5.268  11.580  0.00  0.00    +0.379 N 
ATOM      9  C   UNL     1      -0.736  -5.493  10.241  0.00  0.00    -0.082 C 
ATOM     10  C   UNL     1       0.253  -4.994   9.183  0.00  0.00    -0.010 C 
ATOM     11  C   UNL     1       3.328  -8.765   8.408  0.00  0.00    +0.249 C 
ATOM     12  O   UNL     1       2.882  -9.679   9.073  0.00  0.00    -0.270 OA
ATOM     13  H   UNL     1      -0.857  -5.541  12.275  0.00  0.00    -0.086 HD
ATOM     14  H   UNL     1       0.039  -4.289  11.692  0.00  0.00    -0.086 HD
ENDROOT
BRANCH  11  15
ATOM     15  C   UNL     1       4.627  -8.916   7.721  0.00  0.00    +0.072 A 
ATOM     16  C   UNL     1       4.828  -8.340   6.465  0.00  0.00    +0.016 A 
ATOM     17  C   UNL     1       6.043  -8.484   5.830  0.00  0.00    +0.001 A 
ATOM     18  C   UNL     1       7.064  -9.200   6.432  0.00  0.00    +0.003 A 
ATOM     19  C   UNL     1       6.875  -9.774   7.675  0.00  0.00    +0.039 A 
ATOM     20  C   UNL     1       5.663  -9.633   8.328  0.00  0.00    +0.135 A 
ATOM     21  F   UNL     1       5.480 -10.190   9.545  0.00  0.00    -0.205 F 
ENDBRANCH  11  15
BRANCH   1  23
ATOM     22  N   UNL     1       2.054  -2.844   7.899  0.00  0.00    -0.316 N 
ATOM     23  C   UNL     1       2.002  -4.124   7.480  0.00  0.00    +0.218 C 
ATOM     24  O   UNL     1       1.471  -4.396   6.425  0.00  0.00    -0.275 OA
ATOM     25  H   UNL     1       2.479  -2.626   8.743  0.00  0.00    +0.149 HD
BRANCH  22  26
ATOM     26  C   UNL     1       1.467  -1.781   7.079  0.00  0.00    +0.093 C 
BRANCH  26  27
ATOM     27  C   UNL     1       1.760  -0.423   7.719  0.00  0.00    -0.020 C 
BRANCH  27  31
ATOM     28  C   UNL     1      -0.304  -0.133  11.450  0.00  0.00    +0.120 A 
ATOM     29  C   UNL     1       1.046  -0.451  11.425  0.00  0.00    +0.046 A 
ATOM     30  C   UNL     1       1.710  -0.545  10.218  0.00  0.00    +0.005 A 
ATOM     31  C   UNL     1       1.032  -0.321   9.035  0.00  0.00    -0.059 A 
ATOM     32  C   UNL     1      -0.314  -0.002   9.056  0.00  0.00    +0.005 A 
ATOM     33  C   UNL     1      -0.985   0.086  10.261  0.00  0.00    +0.046 A 
BRANCH  28  35
ATOM     34  C   UNL     1      -0.197  -0.279  13.820  0.00  0.00    +0.277 C 
ATOM     35  O   UNL     1      -0.961  -0.041  12.636  0.00  0.00    -0.495 OA
ENDBRANCH  28  35
ENDBRANCH  27  31
BRANCH  27  36
ATOM     36  N   UNL     1       1.305   0.649   6.823  0.00  0.00    +0.385 N 
ATOM     37  C   UNL     1       1.664   1.975   7.388  0.00  0.00    -0.078 C 
ATOM     38  C   UNL     1       1.651   2.904   6.148  0.00  0.00    -0.020 C 
ATOM     39  C   UNL     1       2.236   2.003   5.036  0.00  0.00    -0.020 C 
ATOM     40  C   UNL     1       2.007   0.561   5.524  0.00  0.00    -0.078 C 
ATOM     41  H   UNL     1       0.307   0.588   6.685  0.00  0.00    -0.081 HD
ENDBRANCH  27  36
ENDBRANCH  26  27
ENDBRANCH  22  26
ENDBRANCH   1  23
TORSDOF 7
