REMARK  Name = ZINC12497071
REMARK  11 active torsions:
REMARK  status: ('A' for Active; 'I' for Inactive)
REMARK    1  A    between atoms: C_1  and  C_2
REMARK    2  A    between atoms: C_2  and  C_3
REMARK    3  A    between atoms: C_3  and  C_4
REMARK    4  A    between atoms: C_4  and  C_5
REMARK    5  A    between atoms: C_5  and  C_30
REMARK    6  A    between atoms: C_10  and  C_12
REMARK    7  A    between atoms: C_15  and  O_18
REMARK    8  A    between atoms: N_21  and  C_24
REMARK    9  A    between atoms: C_30  and  O_32
REMARK   10  A    between atoms: O_32  and  C_33
REMARK   11  A    between atoms: C_33  and  C_34
REMARK                            x       y       z     vdW  Elec       q    Type
REMARK                         _______ _______ _______ _____ _____    ______ ____
ROOT
ATOM      1  C   UNL     1      -1.486   5.132   2.542  0.00  0.00    +0.044 C 
ATOM      2  C   UNL     1      -2.129   5.654   3.806  0.00  0.00    +0.086 C 
ATOM      3  C   UNL     1      -0.953   5.310   4.804  0.00  0.00    +0.077 C 
ATOM      4  C   UNL     1       0.209   5.899   4.091  0.00  0.00    -0.027 C 
ATOM      5  C   UNL     1      -1.617   5.605   6.071  0.00  0.00    +0.229 C 
ATOM      6  O   UNL     1      -1.125   6.088   7.068  0.00  0.00    -0.275 OA
ATOM      7  N   UNL     1      -2.920   5.215   5.885  0.00  0.00    -0.210 N 
ATOM      8  C   UNL     1      -3.223   5.007   4.565  0.00  0.00    +0.229 C 
ATOM      9  O   UNL     1      -4.183   4.419   4.115  0.00  0.00    -0.275 OA
ATOM     10  N   UNL     1      -0.102   5.682   2.645  0.00  0.00    +0.395 N 
ATOM     11  H   UNL     1      -0.044   6.573   2.139  0.00  0.00    -0.083 HD
ATOM     12  H   UNL     1       0.567   5.015   2.242  0.00  0.00    -0.083 HD
ENDROOT
BRANCH   4  13
ATOM     13  C   UNL     1       0.320   7.371   4.393  0.00  0.00    -0.060 A 
ATOM     14  C   UNL     1      -0.484   8.276   3.724  0.00  0.00    +0.005 A 
ATOM     15  C   UNL     1      -0.388   9.625   4.004  0.00  0.00    +0.045 A 
ATOM     16  C   UNL     1       0.523  10.074   4.949  0.00  0.00    +0.117 A 
ATOM     17  C   UNL     1       1.333   9.165   5.614  0.00  0.00    +0.045 A 
ATOM     18  C   UNL     1       1.229   7.816   5.335  0.00  0.00    +0.005 A 
BRANCH  16  19
ATOM     19  O   UNL     1       0.623  11.401   5.221  0.00  0.00    -0.507 OA
ATOM     20  H   UNL     1       1.265  11.869   4.669  0.00  0.00    +0.292 HD
ENDBRANCH  16  19
ENDBRANCH   4  13
BRANCH   7  21
ATOM     21  C   UNL     1      -3.839   5.048   6.931  0.00  0.00    +0.044 A 
ATOM     22  C   UNL     1      -5.142   4.657   6.655  0.00  0.00    +0.024 A 
ATOM     23  C   UNL     1      -6.044   4.489   7.688  0.00  0.00    +0.002 A 
ATOM     24  C   UNL     1      -5.653   4.720   8.994  0.00  0.00    +0.000 A 
ATOM     25  C   UNL     1      -4.357   5.116   9.271  0.00  0.00    +0.002 A 
ATOM     26  C   UNL     1      -3.449   5.280   8.243  0.00  0.00    +0.024 A 
ENDBRANCH   7  21
BRANCH   1  27
ATOM     27  C   UNL     1      -2.195   5.663   1.323  0.00  0.00    +0.297 C 
ATOM     28  O   UNL     1      -3.365   5.958   1.384  0.00  0.00    -0.252 OA
BRANCH  27  29
ATOM     29  O   UNL     1      -1.526   5.808   0.168  0.00  0.00    -0.466 OA
BRANCH  29  30
ATOM     30  C   UNL     1      -2.272   6.324  -0.966  0.00  0.00    +0.228 C 
ATOM     31  C   UNL     1      -1.350   6.419  -2.183  0.00  0.00    +0.048 C 
ENDBRANCH  29  30
ENDBRANCH  27  29
ENDBRANCH   1  27
BRANCH   1  32
ATOM     32  C   UNL     1      -1.466   3.603   2.534  0.00  0.00    -0.001 C 
BRANCH  32  33
ATOM     33  C   UNL     1      -0.787   3.109   1.255  0.00  0.00    -0.001 C 
BRANCH  33  35
ATOM     34  C   UNL     1      -0.088   1.085  -0.033  0.00  0.00    +0.004 C 
ATOM     35  C   UNL     1      -0.766   1.579   1.246  0.00  0.00    -0.003 C 
ENDBRANCH  33  35
ENDBRANCH  32  33
ENDBRANCH   1  32
TORSDOF 9
