REMARK  Name = ZINC65119674
REMARK  10 active torsions:
REMARK  status: ('A' for Active; 'I' for Inactive)
REMARK    1  A    between atoms: C_1  and  C_2
REMARK    2  A    between atoms: C_5  and  S_8
REMARK    3  A    between atoms: S_8  and  N_11
REMARK    4  A    between atoms: N_11  and  C_12
REMARK    5  A    between atoms: C_12  and  C_14
REMARK    6  A    between atoms: C_12  and  C_15
REMARK    7  A    between atoms: N_17  and  C_18
REMARK    8  A    between atoms: C_18  and  C_19
REMARK    9  A    between atoms: C_25  and  C_30
REMARK   10  A    between atoms: C_26  and  C_29
REMARK                            x       y       z     vdW  Elec       q    Type
REMARK                         _______ _______ _______ _____ _____    ______ ____
ROOT
ATOM      1  C   UNL     1       3.908  -4.404   0.629  0.00  0.00    +0.232 C 
ATOM      2  O   UNL     1       4.160  -4.442  -0.557  0.00  0.00    -0.274 OA
ATOM      3  N   UNL     1       4.878  -4.099   1.514  0.00  0.00    -0.310 N 
ATOM      4  H   UNL     1       4.676  -4.069   2.462  0.00  0.00    +0.149 HD
ENDROOT
BRANCH   1   5
ATOM      5  C   UNL     1       2.512  -4.699   1.113  0.00  0.00    +0.159 C 
ATOM      6  C   UNL     1       2.542  -5.903   2.056  0.00  0.00    +0.035 C 
BRANCH   5   7
ATOM      7  N   UNL     1       1.651  -4.999  -0.034  0.00  0.00    -0.178 NA
ATOM      8  H   UNL     1       2.011  -5.473  -0.800  0.00  0.00    +0.149 HD
BRANCH   7   9
ATOM      9  S   UNL     1       0.063  -4.530  -0.023  0.00  0.00    +0.059 S 
ATOM     10  O   UNL     1      -0.476  -4.950   1.223  0.00  0.00    -0.153 OA
ATOM     11  O   UNL     1      -0.490  -4.937  -1.267  0.00  0.00    -0.153 OA
BRANCH   9  16
ATOM     12  C   UNL     1      -0.018   1.503   0.010  0.00  0.00    +0.044 C 
ATOM     13  C   UNL     1       0.002  -0.004   0.002  0.00  0.00    -0.050 A 
ATOM     14  C   UNL     1       0.006  -0.689  -1.199  0.00  0.00    +0.005 A 
ATOM     15  C   UNL     1       0.025  -2.071  -1.206  0.00  0.00    +0.029 A 
ATOM     16  C   UNL     1       0.040  -2.768  -0.013  0.00  0.00    +0.105 A 
ATOM     17  C   UNL     1       0.037  -2.084   1.188  0.00  0.00    +0.029 A 
ATOM     18  C   UNL     1       0.023  -0.702   1.195  0.00  0.00    +0.005 A 
ENDBRANCH   9  16
ENDBRANCH   7   9
ENDBRANCH   5   7
ENDBRANCH   1   5
BRANCH   3  19
ATOM     19  C   UNL     1       6.235  -3.813   1.044  0.00  0.00    +0.139 C 
BRANCH  19  20
ATOM     20  C   UNL     1       7.121  -3.504   2.223  0.00  0.00    -0.030 A 
ATOM     21  C   UNL     1       7.241  -2.195   2.670  0.00  0.00    +0.007 A 
ATOM     22  C   UNL     1       8.045  -1.890   3.746  0.00  0.00    +0.026 A 
ATOM     23  C   UNL     1       8.745  -2.904   4.394  0.00  0.00    +0.047 A 
ATOM     24  C   UNL     1       8.619  -4.228   3.938  0.00  0.00    +0.003 A 
ATOM     25  C   UNL     1       7.794  -4.515   2.848  0.00  0.00    +0.015 A 
ATOM     26  C   UNL     1       9.466  -5.040   4.815  0.00  0.00    -0.022 A 
ATOM     27  C   UNL     1      10.025  -4.205   5.705  0.00  0.00    +0.017 A 
ATOM     28  N   UNL     1       9.606  -2.924   5.468  0.00  0.00    -0.358 N 
ATOM     29  H   UNL     1       9.875  -2.146   5.981  0.00  0.00    +0.166 HD
ATOM     30  C   UNL     1      10.974  -4.616   6.800  0.00  0.00    +0.063 C 
ATOM     31  C   UNL     1       9.669  -6.531   4.735  0.00  0.00    +0.046 C 
ENDBRANCH  19  20
ENDBRANCH   3  19
TORSDOF 6
