REMARK  Name = ZINC39856306
REMARK  9 active torsions:
REMARK  status: ('A' for Active; 'I' for Inactive)
REMARK    1  A    between atoms: C_1  and  C_2
REMARK    2  A    between atoms: C_6  and  C_7
REMARK    3  A    between atoms: N_9  and  C_10
REMARK    4  A    between atoms: C_13  and  C_16
REMARK    5  A    between atoms: C_16  and  C_17
REMARK    6  A    between atoms: C_16  and  C_18
REMARK    7  A    between atoms: C_20  and  C_28
REMARK    8  A    between atoms: C_20  and  C_29
REMARK    9  A    between atoms: N_23  and  N_24
REMARK                            x       y       z     vdW  Elec       q    Type
REMARK                         _______ _______ _______ _____ _____    ______ ____
ROOT
ATOM      1  C   UNL     1      -0.014   1.502   0.010  0.00  0.00    +0.048 C 
ATOM      2  C   UNL     1      -0.004  -0.005   0.002  0.00  0.00    +0.009 A 
ATOM      3  C   UNL     1      -0.007  -0.839  -1.122  0.00  0.00    +0.042 A 
ATOM      4  C   UNL     1       0.004  -2.138  -0.672  0.00  0.00    +0.116 A 
ATOM      5  O   UNL     1       0.018  -2.112   0.658  0.00  0.00    -0.454 OA
ATOM      6  C   UNL     1       0.018  -0.831   1.091  0.00  0.00    +0.193 A 
ATOM      7  C   UNL     1      -0.001  -3.327  -1.599  0.00  0.00    +0.081 C 
ATOM      8  C   UNL     1      -0.528  -2.900  -2.972  0.00  0.00    -0.023 C 
ATOM      9  C   UNL     1       0.249  -1.688  -3.496  0.00  0.00    +0.064 C 
ATOM     10  C   UNL     1      -0.018  -0.513  -2.566  0.00  0.00    +0.071 C 
ATOM     11  N   UNL     1      -0.240   0.687  -3.007  0.00  0.00    -0.183 NA
ATOM     12  C   UNL     1      -0.373  -4.062  -3.955  0.00  0.00    +0.011 C 
ATOM     13  C   UNL     1      -2.010  -2.536  -2.852  0.00  0.00    +0.011 C 
ENDROOT
BRANCH  11  14
ATOM     14  N   UNL     1      -0.239   0.938  -4.385  0.00  0.00    -0.191 N 
ATOM     15  C   UNL     1      -0.468   2.184  -4.843  0.00  0.00    +0.317 C 
ATOM     16  O   UNL     1      -0.468   2.402  -6.040  0.00  0.00    -0.251 OA
ATOM     17  N   UNL     1      -0.699   3.189  -3.975  0.00  0.00    -0.312 N 
ATOM     18  H   UNL     1      -0.072   0.215  -5.010  0.00  0.00    +0.179 HD
ATOM     19  H   UNL     1      -0.700   3.015  -3.021  0.00  0.00    +0.147 HD
ATOM     20  H   UNL     1      -0.865   4.087  -4.305  0.00  0.00    +0.147 HD
ENDBRANCH  11  14
BRANCH   6  21
ATOM     21  C   UNL     1       0.034  -0.400   2.493  0.00  0.00    +0.284 C 
ATOM     22  O   UNL     1       0.029   0.786   2.765  0.00  0.00    -0.266 OA
ATOM     23  N   UNL     1       0.054  -1.318   3.480  0.00  0.00    -0.279 N 
ATOM     24  H   UNL     1      -0.009  -2.262   3.266  0.00  0.00    +0.155 HD
BRANCH  23  25
ATOM     25  C   UNL     1       0.167  -0.909   4.812  0.00  0.00    +0.034 A 
ATOM     26  C   UNL     1       0.888  -1.678   5.717  0.00  0.00    +0.023 A 
ATOM     27  C   UNL     1       0.998  -1.272   7.033  0.00  0.00    +0.006 A 
ATOM     28  C   UNL     1       0.391  -0.101   7.449  0.00  0.00    -0.045 A 
ATOM     29  C   UNL     1      -0.328   0.667   6.551  0.00  0.00    +0.006 A 
ATOM     30  C   UNL     1      -0.436   0.269   5.233  0.00  0.00    +0.023 A 
BRANCH  28  31
ATOM     31  C   UNL     1       0.513   0.340   8.885  0.00  0.00    +0.013 C 
ATOM     32  C   UNL     1       1.192   1.710   8.943  0.00  0.00    +0.012 C 
ATOM     33  C   UNL     1      -0.880   0.434   9.510  0.00  0.00    +0.012 C 
ENDBRANCH  28  31
ENDBRANCH  23  25
ENDBRANCH   6  21
TORSDOF 4
