REMARK  Name = ZINC13945123
REMARK  7 active torsions:
REMARK  status: ('A' for Active; 'I' for Inactive)
REMARK    1  A    between atoms: C_1  and  C_2
REMARK    2  A    between atoms: C_2  and  C_3
REMARK    3  A    between atoms: C_3  and  C_5
REMARK    4  A    between atoms: C_3  and  S_20
REMARK    5  A    between atoms: C_13  and  N_17
REMARK    6  A    between atoms: S_20  and  C_21
REMARK    7  A    between atoms: C_27  and  N_29
REMARK                            x       y       z     vdW  Elec       q    Type
REMARK                         _______ _______ _______ _____ _____    ______ ____
ROOT
ATOM      1  C   UNL     1      -1.433  -2.106   0.309  0.00  0.00    +0.232 C 
ATOM      2  O   UNL     1      -1.593  -2.841  -0.642  0.00  0.00    -0.274 OA
ATOM      3  N   UNL     1      -1.271  -2.625   1.542  0.00  0.00    -0.264 N 
ATOM      4  C   UNL     1      -1.288  -3.998   1.723  0.00  0.00    +0.165 A 
ATOM      5  N   UNL     1      -1.440  -4.945   0.827  0.00  0.00    -0.225 NA
ATOM      6  C   UNL     1      -1.435  -6.257   1.149  0.00  0.00    +0.080 A 
ATOM      7  C   UNL     1      -1.589  -7.368   0.287  0.00  0.00    +0.031 A 
ATOM      8  C   UNL     1      -1.559  -8.646   0.781  0.00  0.00    +0.035 A 
ATOM      9  C   UNL     1      -1.380  -8.897   2.134  0.00  0.00    +0.127 A 
ATOM     10  C   UNL     1      -1.227  -7.834   3.005  0.00  0.00    +0.050 A 
ATOM     11  C   UNL     1      -1.255  -6.550   2.520  0.00  0.00    +0.043 A 
ATOM     12  S   UNL     1      -1.099  -4.932   3.236  0.00  0.00    -0.052 S 
ATOM     13  H   UNL     1      -1.144  -2.037   2.303  0.00  0.00    +0.157 HD
ENDROOT
BRANCH   9  14
ATOM     14  N   UNL     1      -1.354 -10.288   2.639  0.00  0.00    +0.056 N 
ATOM     15  O   UNL     1      -1.489 -11.212   1.872  0.00  0.00    -0.126 OA
ATOM     16  O   UNL     1      -1.198 -10.499   3.819  0.00  0.00    -0.126 OA
ENDBRANCH   9  14
BRANCH   1  17
ATOM     17  C   UNL     1      -1.415  -0.612   0.112  0.00  0.00    +0.140 C 
BRANCH  17  19
ATOM     18  C   UNL     1       0.059   1.394  -0.096  0.00  0.00    +0.005 C 
ATOM     19  C   UNL     1       0.031  -0.134  -0.036  0.00  0.00    +0.020 C 
ENDBRANCH  17  19
BRANCH  17  20
ATOM     20  S   UNL     1      -2.348  -0.188  -1.385  0.00  0.00    -0.075 S 
BRANCH  20  21
ATOM     21  C   UNL     1      -4.016  -0.578  -0.972  0.00  0.00    +0.171 A 
ATOM     22  N   UNL     1      -5.002  -0.336  -1.880  0.00  0.00    -0.302 N 
ATOM     23  H   UNL     1      -4.782   0.048  -2.744  0.00  0.00    +0.171 HD
ATOM     24  C   UNL     1      -6.285  -0.628  -1.581  0.00  0.00    +0.254 A 
ATOM     25  O   UNL     1      -7.175  -0.414  -2.389  0.00  0.00    -0.268 OA
ATOM     26  C   UNL     1      -6.578  -1.180  -0.330  0.00  0.00    +0.113 A 
ATOM     27  C   UNL     1      -5.537  -1.408   0.559  0.00  0.00    +0.124 A 
ATOM     28  N   UNL     1      -4.284  -1.103   0.206  0.00  0.00    -0.209 NA
BRANCH  27  29
ATOM     29  N   UNL     1      -5.794  -1.952   1.802  0.00  0.00    -0.343 N 
ATOM     30  H   UNL     1      -6.703  -2.176   2.054  0.00  0.00    +0.144 HD
ATOM     31  H   UNL     1      -5.065  -2.110   2.422  0.00  0.00    +0.144 HD
ENDBRANCH  27  29
ENDBRANCH  20  21
ENDBRANCH  17  20
ENDBRANCH   1  17
TORSDOF 6
