REMARK  Name = ZINC12694373
REMARK  6 active torsions:
REMARK  status: ('A' for Active; 'I' for Inactive)
REMARK    1  A    between atoms: C_1  and  C_2
REMARK    2  A    between atoms: C_2  and  C_4
REMARK    3  A    between atoms: C_2  and  N_14
REMARK    4  A    between atoms: C_15  and  C_17
REMARK    5  A    between atoms: C_26  and  N_29
REMARK    6  A    between atoms: C_30  and  C_32
REMARK                            x       y       z     vdW  Elec       q    Type
REMARK                         _______ _______ _______ _____ _____    ______ ____
ROOT
ATOM      1  N   UNL     1       0.711  -0.489   1.189  0.00  0.00    -0.308 N 
ATOM      2  C   UNL     1       2.054  -0.600   1.174  0.00  0.00    +0.220 C 
ATOM      3  O   UNL     1       2.676  -0.297   0.177  0.00  0.00    -0.275 OA
ATOM      4  H   UNL     1       0.213  -0.731   1.986  0.00  0.00    +0.149 HD
ENDROOT
BRANCH   2   5
ATOM      5  C   UNL     1       2.783  -1.099   2.395  0.00  0.00    +0.049 C 
ATOM      6  C   UNL     1       2.502  -0.165   3.574  0.00  0.00    +0.020 C 
ATOM      7  C   UNL     1       3.242  -0.672   4.813  0.00  0.00    -0.008 C 
ATOM      8  C   UNL     1       2.759  -2.083   5.154  0.00  0.00    +0.007 C 
ATOM      9  C   UNL     1       3.040  -3.017   3.975  0.00  0.00    -0.008 C 
ATOM     10  C   UNL     1       2.300  -2.510   2.736  0.00  0.00    +0.020 C 
ATOM     11  C   UNL     1       4.543  -3.046   3.695  0.00  0.00    +0.029 C 
ATOM     12  C   UNL     1       5.026  -1.635   3.354  0.00  0.00    +0.036 C 
ATOM     13  C   UNL     1       4.746  -0.702   4.533  0.00  0.00    +0.029 C 
ATOM     14  C   UNL     1       4.287  -1.129   2.114  0.00  0.00    +0.042 C 
BRANCH  12  15
ATOM     15  N   UNL     1       6.466  -1.664   3.085  0.00  0.00    -0.310 N 
ATOM     16  C   UNL     1       7.322  -2.079   4.040  0.00  0.00    +0.210 C 
ATOM     17  O   UNL     1       6.900  -2.429   5.122  0.00  0.00    -0.276 OA
ATOM     18  C   UNL     1       8.803  -2.108   3.764  0.00  0.00    +0.109 C 
ATOM     19  H   UNL     1       6.804  -1.384   2.220  0.00  0.00    +0.149 HD
ENDBRANCH  12  15
ENDBRANCH   2   5
BRANCH   1  21
ATOM     20  C   UNL     1      -0.019   1.526   0.010  0.00  0.00    +0.033 C 
ATOM     21  C   UNL     1       0.002  -0.004   0.002  0.00  0.00    +0.100 C 
BRANCH  21  22
ATOM     22  C   UNL     1      -1.412  -0.526   0.013  0.00  0.00    -0.024 A 
ATOM     23  C   UNL     1      -2.122  -0.570   1.198  0.00  0.00    +0.009 A 
ATOM     24  C   UNL     1      -3.418  -1.049   1.212  0.00  0.00    +0.050 A 
ATOM     25  C   UNL     1      -4.010  -1.486   0.036  0.00  0.00    +0.162 A 
ATOM     26  C   UNL     1      -3.297  -1.439  -1.155  0.00  0.00    +0.162 A 
ATOM     27  C   UNL     1      -1.998  -0.953  -1.163  0.00  0.00    +0.055 A 
ATOM     28  O   UNL     1      -3.862  -1.855  -2.322  0.00  0.00    -0.485 OA
ATOM     29  C   UNL     1      -5.031  -2.675  -2.214  0.00  0.00    +0.270 C 
ATOM     30  C   UNL     1      -5.974  -2.035  -1.187  0.00  0.00    +0.270 C 
ATOM     31  O   UNL     1      -5.286  -1.959   0.067  0.00  0.00    -0.485 OA
ENDBRANCH  21  22
ENDBRANCH   1  21
TORSDOF 4
