REMARK  Name = ZINC52913998
REMARK  4 active torsions:
REMARK  status: ('A' for Active; 'I' for Inactive)
REMARK    1  A    between atoms: C_5  and  C_7
REMARK    2  A    between atoms: C_16  and  C_18
REMARK    3  A    between atoms: C_18  and  S_19
REMARK    4  A    between atoms: S_19  and  C_20
REMARK                            x       y       z     vdW  Elec       q    Type
REMARK                         _______ _______ _______ _____ _____    ______ ____
ROOT
ATOM      1  C   UNL     1       1.247  -2.164  -0.021  0.00  0.00    +0.005 A 
ATOM      2  C   UNL     1       0.762  -2.857  -1.079  0.00  0.00    +0.056 A 
ATOM      3  S   UNL     1       1.018  -4.558  -0.611  0.00  0.00    -0.076 S 
ATOM      4  C   UNL     1       1.764  -4.301   0.978  0.00  0.00    +0.116 A 
ATOM      5  C   UNL     1       1.801  -2.903   1.107  0.00  0.00    +0.080 A 
ATOM      6  C   UNL     1       2.371  -2.408   2.322  0.00  0.00    +0.260 A 
ATOM      7  O   UNL     1       2.443  -1.208   2.528  0.00  0.00    -0.267 OA
ATOM      8  N   UNL     1       2.825  -3.286   3.236  0.00  0.00    -0.310 N 
ATOM      9  H   UNL     1       3.212  -2.955   4.062  0.00  0.00    +0.170 HD
ATOM     10  C   UNL     1       2.752  -4.625   3.024  0.00  0.00    +0.121 A 
ATOM     11  N   UNL     1       2.229  -5.108   1.929  0.00  0.00    -0.226 NA
ENDROOT
BRANCH   1  16
ATOM     12  C   UNL     1      -0.017   1.376   0.010  0.00  0.00    +0.001 A 
ATOM     13  C   UNL     1       1.170   2.087   0.002  0.00  0.00    +0.001 A 
ATOM     14  C   UNL     1       2.382   1.421  -0.013  0.00  0.00    +0.020 A 
ATOM     15  C   UNL     1       2.414   0.040  -0.021  0.00  0.00    +0.049 A 
ATOM     16  C   UNL     1       1.220  -0.682  -0.013  0.00  0.00    +0.002 A 
ATOM     17  C   UNL     1       0.002  -0.004   0.002  0.00  0.00    +0.010 A 
ATOM     18 CL   UNL     1       3.936  -0.795  -0.040  0.00  0.00    -0.083 Cl
ENDBRANCH   1  16
BRANCH  10  19
ATOM     19  C   UNL     1       3.273  -5.570   4.075  0.00  0.00    +0.150 C 
BRANCH  19  20
ATOM     20  S   UNL     1       3.043  -7.281   3.517  0.00  0.00    -0.091 S 
BRANCH  20  21
ATOM     21  C   UNL     1       3.693  -8.251   4.837  0.00  0.00    +0.135 A 
ATOM     22  N   UNL     1       4.220  -7.840   5.972  0.00  0.00    -0.241 NA
ATOM     23  C   UNL     1       4.666  -8.703   6.867  0.00  0.00    +0.120 A 
ATOM     24  C   UNL     1       4.557 -10.019   6.564  0.00  0.00    +0.067 A 
ATOM     25  S   UNL     1       3.785  -9.927   4.956  0.00  0.00    -0.069 S 
ENDBRANCH  20  21
ENDBRANCH  19  20
ENDBRANCH  10  19
TORSDOF 4
