REMARK  Name = ZINC57345032
REMARK  6 active torsions:
REMARK  status: ('A' for Active; 'I' for Inactive)
REMARK    1  A    between atoms: C_1  and  C_2
REMARK    2  A    between atoms: C_4  and  N_9
REMARK    3  A    between atoms: C_10  and  C_22
REMARK    4  A    between atoms: C_11  and  C_14
REMARK    5  A    between atoms: C_14  and  N_15
REMARK    6  A    between atoms: C_18  and  N_21
REMARK                            x       y       z     vdW  Elec       q    Type
REMARK                         _______ _______ _______ _____ _____    ______ ____
ROOT
ATOM      1  N   UNL     1       0.028  -2.772  -2.422  0.00  0.00    -0.212 N 
ATOM      2  C   UNL     1       0.674  -3.953  -2.672  0.00  0.00    +0.099 A 
ATOM      3  C   UNL     1       0.401  -4.255  -3.977  0.00  0.00    +0.105 A 
ATOM      4  N   UNL     1      -0.373  -3.269  -4.437  0.00  0.00    -0.132 NA
ATOM      5  N   UNL     1      -0.580  -2.416  -3.499  0.00  0.00    -0.060 NA
ENDROOT
BRANCH   1   9
ATOM      6  C   UNL     1      -0.018   1.503   0.010  0.00  0.00    +0.045 C 
ATOM      7  C   UNL     1       0.002  -0.004   0.002  0.00  0.00    -0.034 A 
ATOM      8  C   UNL     1       0.006  -0.688  -1.198  0.00  0.00    +0.032 A 
ATOM      9  C   UNL     1       0.025  -2.076  -1.205  0.00  0.00    +0.068 A 
ATOM     10  C   UNL     1       0.041  -2.773  -0.005  0.00  0.00    +0.029 A 
ATOM     11  C   UNL     1       0.037  -2.085   1.192  0.00  0.00    +0.017 A 
ATOM     12  C   UNL     1       0.023  -0.702   1.197  0.00  0.00    +0.021 A 
ATOM     13 BR   UNL     1       0.025   0.237   2.838  0.00  0.00    -0.050 Br
ENDBRANCH   1   9
BRANCH   2  14
ATOM     14  C   UNL     1       1.497  -4.739  -1.727  0.00  0.00    +0.005 A 
ATOM     15  C   UNL     1       1.356  -6.128  -1.633  0.00  0.00    +0.030 A 
ATOM     16  C   UNL     1       2.143  -6.822  -0.739  0.00  0.00    +0.111 A 
ATOM     17  N   UNL     1       3.019  -6.193   0.022  0.00  0.00    -0.263 NA
ATOM     18  C   UNL     1       3.184  -4.885  -0.035  0.00  0.00    +0.111 A 
ATOM     19  C   UNL     1       2.442  -4.115  -0.905  0.00  0.00    +0.030 A 
ENDBRANCH   2  14
BRANCH   3  20
ATOM     20  C   UNL     1       0.880  -5.460  -4.745  0.00  0.00    +0.144 C 
BRANCH  20  21
ATOM     21  N   UNL     1      -0.090  -6.552  -4.597  0.00  0.00    -0.297 NA
ATOM     22  C   UNL     1      -1.368  -6.211  -5.234  0.00  0.00    +0.083 C 
ATOM     23  C   UNL     1      -2.396  -7.305  -4.936  0.00  0.00    -0.001 C 
ATOM     24  C   UNL     1      -1.880  -8.643  -5.470  0.00  0.00    -0.073 C 
ATOM     25  C   UNL     1      -0.525  -8.952  -4.827  0.00  0.00    -0.001 C 
ATOM     26  C   UNL     1       0.449  -7.811  -5.128  0.00  0.00    +0.083 C 
BRANCH  24  27
ATOM     27  N   UNL     1      -2.836  -9.707  -5.135  0.00  0.00    +0.380 N 
ATOM     28  H   UNL     1      -3.730  -9.501  -5.555  0.00  0.00    -0.090 HD
ATOM     29  H   UNL     1      -2.495 -10.589  -5.487  0.00  0.00    -0.090 HD
ATOM     30  H   UNL     1      -2.940  -9.763  -4.133  0.00  0.00    -0.090 HD
ENDBRANCH  24  27
ENDBRANCH  20  21
ENDBRANCH   3  20
TORSDOF 5
