REMARK  Name = ZINC45962063
REMARK  5 active torsions:
REMARK  status: ('A' for Active; 'I' for Inactive)
REMARK    1  A    between atoms: C_1  and  N_2
REMARK    2  A    between atoms: N_2  and  C_3
REMARK    3  A    between atoms: C_13  and  N_14
REMARK    4  A    between atoms: N_14  and  S_15
REMARK    5  A    between atoms: S_15  and  C_18
REMARK                            x       y       z     vdW  Elec       q    Type
REMARK                         _______ _______ _______ _____ _____    ______ ____
ROOT
ATOM      1  C   UNL     1       1.035  -0.575   1.072  0.00  0.00    +0.067 A 
ATOM      2  C   UNL     1       0.322  -1.861   1.111  0.00  0.00    +0.040 A 
ATOM      3  C   UNL     1       0.696  -2.916   0.276  0.00  0.00    +0.013 A 
ATOM      4  C   UNL     1       0.009  -4.109   0.336  0.00  0.00    +0.001 A 
ATOM      5  C   UNL     1      -1.048  -4.263   1.221  0.00  0.00    +0.004 A 
ATOM      6  C   UNL     1      -1.427  -3.230   2.051  0.00  0.00    +0.047 A 
ATOM      7  C   UNL     1      -0.748  -2.018   2.007  0.00  0.00    +0.141 A 
ATOM      8  O   UNL     1      -1.109  -0.998   2.814  0.00  0.00    -0.421 OA
ATOM      9  C   UNL     1      -0.472   0.183   2.793  0.00  0.00    +0.362 A 
ATOM     10  O   UNL     1      -0.840   1.069   3.545  0.00  0.00    -0.243 OA
ATOM     11  C   UNL     1       0.614   0.424   1.932  0.00  0.00    +0.154 A 
ENDROOT
BRANCH   1  13
ATOM     12  C   UNL     1       2.719   0.950   0.109  0.00  0.00    +0.125 C 
ATOM     13  N   UNL     1       2.095  -0.372   0.207  0.00  0.00    -0.345 N 
ATOM     14  H   UNL     1       2.426  -1.105  -0.335  0.00  0.00    +0.146 HD
ENDBRANCH   1  13
BRANCH  11  15
ATOM     15  N   UNL     1       1.263   1.672   1.940  0.00  0.00    -0.208 N 
ATOM     16  H   UNL     1       1.243   2.235   1.150  0.00  0.00    +0.174 HD
BRANCH  15  17
ATOM     17  S   UNL     1       2.062   2.181   3.299  0.00  0.00    +0.074 S 
ATOM     18  O   UNL     1       1.934   3.595   3.339  0.00  0.00    -0.150 OA
ATOM     19  O   UNL     1       1.625   1.346   4.363  0.00  0.00    -0.150 OA
BRANCH  17  20
ATOM     20  C   UNL     1       3.772   1.836   3.057  0.00  0.00    +0.122 A 
ATOM     21  C   UNL     1       4.660   2.870   2.823  0.00  0.00    +0.030 A 
ATOM     22  C   UNL     1       6.002   2.599   2.634  0.00  0.00    +0.002 A 
ATOM     23  C   UNL     1       6.458   1.295   2.679  0.00  0.00    +0.001 A 
ATOM     24  C   UNL     1       5.572   0.261   2.913  0.00  0.00    +0.017 A 
ATOM     25  C   UNL     1       4.229   0.531   3.108  0.00  0.00    +0.044 A 
ATOM     26 BR   UNL     1       3.017  -0.883   3.436  0.00  0.00    -0.048 Br
ENDBRANCH  17  20
ENDBRANCH  15  17
ENDBRANCH  11  15
TORSDOF 4
