REMARK  Name = ZINC67102401
REMARK  7 active torsions:
REMARK  status: ('A' for Active; 'I' for Inactive)
REMARK    1  A    between atoms: C_1  and  C_2
REMARK    2  A    between atoms: C_6  and  C_7
REMARK    3  A    between atoms: N_9  and  N_10
REMARK    4  A    between atoms: N_13  and  C_14
REMARK    5  A    between atoms: N_13  and  C_15
REMARK    6  A    between atoms: C_15  and  C_17
REMARK    7  A    between atoms: C_15  and  C_18
REMARK                            x       y       z     vdW  Elec       q    Type
REMARK                         _______ _______ _______ _____ _____    ______ ____
ROOT
ATOM      1  N   UNL     1       0.284  -0.864   4.648  0.00  0.00    -0.218 N 
ATOM      2  C   UNL     1       0.300  -1.679   5.722  0.00  0.00    +0.319 C 
ATOM      3  O   UNL     1       0.218  -1.211   6.841  0.00  0.00    -0.251 OA
ATOM      4  N   UNL     1       0.409  -3.012   5.555  0.00  0.00    -0.281 N 
ATOM      5  C   UNL     1       0.619  -3.568   4.215  0.00  0.00    +0.134 C 
ATOM      6  H   UNL     1       0.277  -1.240   3.754  0.00  0.00    +0.174 HD
ENDROOT
BRANCH   1   9
ATOM      7  C   UNL     1       0.363   1.340   3.753  0.00  0.00    +0.267 C 
ATOM      8  O   UNL     1       0.447   0.869   2.634  0.00  0.00    -0.268 OA
ATOM      9  N   UNL     1       0.277   0.526   4.823  0.00  0.00    -0.229 N 
ATOM     10  H   UNL     1       0.211   0.902   5.715  0.00  0.00    +0.173 HD
BRANCH   7  16
ATOM     11  C   UNL     1       0.545   3.493   1.509  0.00  0.00    +0.045 C 
ATOM     12  C   UNL     1       0.434   3.796   2.981  0.00  0.00    -0.031 A 
ATOM     13  C   UNL     1       0.397   5.083   3.461  0.00  0.00    +0.011 A 
ATOM     14  C   UNL     1       0.296   5.285   4.798  0.00  0.00    +0.046 A 
ATOM     15  S   UNL     1       0.247   3.736   5.446  0.00  0.00    -0.092 S 
ATOM     16  C   UNL     1       0.356   2.795   3.936  0.00  0.00    +0.078 A 
ENDBRANCH   7  16
ENDBRANCH   1   9
BRANCH   4  17
ATOM     17  C   UNL     1       0.317  -3.905   6.712  0.00  0.00    +0.106 C 
ATOM     18  C   UNL     1       1.659  -4.609   6.921  0.00  0.00    +0.033 C 
BRANCH  17  19
ATOM     19  C   UNL     1      -0.757  -4.934   6.469  0.00  0.00    -0.009 A 
ATOM     20  C   UNL     1      -0.410  -6.228   6.129  0.00  0.00    +0.008 A 
ATOM     21  C   UNL     1      -1.394  -7.172   5.906  0.00  0.00    +0.020 A 
ATOM     22  C   UNL     1      -2.728  -6.822   6.022  0.00  0.00    +0.042 A 
ATOM     23  C   UNL     1      -3.076  -5.528   6.362  0.00  0.00    +0.040 A 
ATOM     24  C   UNL     1      -2.090  -4.584   6.590  0.00  0.00    +0.047 A 
ATOM     25 CL   UNL     1      -2.526  -2.961   7.023  0.00  0.00    -0.083 Cl
ATOM     26 CL   UNL     1      -3.964  -8.008   5.741  0.00  0.00    -0.083 Cl
ENDBRANCH  17  19
ENDBRANCH   4  17
TORSDOF 4
