REMARK  Name = ZINC09862621
REMARK  5 active torsions:
REMARK  status: ('A' for Active; 'I' for Inactive)
REMARK    1  A    between atoms: C_4  and  C_7
REMARK    2  A    between atoms: C_7  and  C_29
REMARK    3  A    between atoms: N_10  and  C_14
REMARK    4  A    between atoms: C_14  and  C_15
REMARK    5  A    between atoms: N_21  and  C_22
REMARK                            x       y       z     vdW  Elec       q    Type
REMARK                         _______ _______ _______ _____ _____    ______ ____
ROOT
ATOM      1  C   UNL     1       0.694  -0.740   0.609  0.00  0.00    +0.164 C 
ATOM      2  C   UNL     1       1.607   0.456   0.429  0.00  0.00    +0.256 C 
ATOM      3  O   UNL     1       2.814   0.445   0.316  0.00  0.00    -0.272 OA
ATOM      4  N   UNL     1       0.798   1.534   0.418  0.00  0.00    -0.216 N 
ATOM      5  C   UNL     1      -0.486   1.188   0.565  0.00  0.00    +0.310 C 
ATOM      6  O   UNL     1      -1.403   1.986   0.583  0.00  0.00    -0.252 OA
ATOM      7  N   UNL     1      -0.650  -0.141   0.686  0.00  0.00    -0.278 N 
ATOM      8  H   UNL     1      -1.489  -0.614   0.803  0.00  0.00    +0.152 HD
ENDROOT
BRANCH   1  12
ATOM      9  C   UNL     1       1.627  -2.811   4.227  0.00  0.00    +0.000 A 
ATOM     10  C   UNL     1       2.644  -2.343   3.416  0.00  0.00    +0.000 A 
ATOM     11  C   UNL     1       2.342  -1.672   2.246  0.00  0.00    +0.006 A 
ATOM     12  C   UNL     1       1.023  -1.471   1.885  0.00  0.00    -0.011 A 
ATOM     13  C   UNL     1       0.006  -1.935   2.698  0.00  0.00    +0.006 A 
ATOM     14  C   UNL     1       0.308  -2.609   3.866  0.00  0.00    +0.000 A 
ENDBRANCH   1  12
BRANCH   1  15
ATOM     15  C   UNL     1       0.793  -1.670  -0.573  0.00  0.00    -0.011 A 
ATOM     16  C   UNL     1       1.759  -2.658  -0.596  0.00  0.00    +0.006 A 
ATOM     17  C   UNL     1       1.847  -3.514  -1.679  0.00  0.00    +0.000 A 
ATOM     18  C   UNL     1       0.974  -3.375  -2.742  0.00  0.00    +0.000 A 
ATOM     19  C   UNL     1       0.011  -2.384  -2.721  0.00  0.00    +0.000 A 
ATOM     20  C   UNL     1      -0.080  -1.531  -1.637  0.00  0.00    +0.006 A 
ENDBRANCH   1  15
BRANCH   4  21
ATOM     21  C   UNL     1       1.267   2.913   0.264  0.00  0.00    +0.194 C 
BRANCH  21  22
ATOM     22  C   UNL     1       1.559   3.499   1.621  0.00  0.00    +0.154 A 
ATOM     23  N   UNL     1       2.767   3.381   2.144  0.00  0.00    -0.198 NA
ATOM     24  C   UNL     1       3.029   3.897   3.342  0.00  0.00    +0.217 A 
ATOM     25  N   UNL     1       2.075   4.533   4.013  0.00  0.00    -0.181 NA
ATOM     26  C   UNL     1       0.862   4.650   3.484  0.00  0.00    +0.224 A 
ATOM     27  N   UNL     1       0.609   4.135   2.283  0.00  0.00    -0.198 NA
ATOM     28  N   UNL     1      -0.135   5.309   4.178  0.00  0.00    -0.284 N 
ATOM     29  N   UNL     1       4.291   3.772   3.887  0.00  0.00    -0.327 N 
ATOM     30  H   UNL     1      -0.993   5.471   3.756  0.00  0.00    +0.155 HD
ATOM     31  H   UNL     1       4.987   3.308   3.397  0.00  0.00    +0.145 HD
ATOM     32  H   UNL     1       4.481   4.149   4.761  0.00  0.00    +0.145 HD
BRANCH  28  33
ATOM     33  C   UNL     1       0.095   5.742   5.488  0.00  0.00    +0.034 A 
ATOM     34  C   UNL     1       0.861   4.971   6.352  0.00  0.00    +0.023 A 
ATOM     35  C   UNL     1       1.089   5.404   7.643  0.00  0.00    +0.002 A 
ATOM     36  C   UNL     1       0.548   6.599   8.079  0.00  0.00    +0.000 A 
ATOM     37  C   UNL     1      -0.221   7.367   7.223  0.00  0.00    +0.002 A 
ATOM     38  C   UNL     1      -0.449   6.942   5.929  0.00  0.00    +0.023 A 
ENDBRANCH  28  33
ENDBRANCH  21  22
ENDBRANCH   4  21
TORSDOF 5
