REMARK  Name = ZINC40758832
REMARK  6 active torsions:
REMARK  status: ('A' for Active; 'I' for Inactive)
REMARK    1  A    between atoms: C_1  and  N_2
REMARK    2  A    between atoms: N_2  and  C_3
REMARK    3  A    between atoms: N_2  and  N_4
REMARK    4  A    between atoms: C_6  and  N_22
REMARK    5  A    between atoms: C_7  and  N_11
REMARK    6  A    between atoms: N_11  and  C_12
REMARK                            x       y       z     vdW  Elec       q    Type
REMARK                         _______ _______ _______ _____ _____    ______ ____
ROOT
ATOM      1  N   UNL     1      -1.040  -1.230   0.384  0.00  0.00    -0.261 N 
ATOM      2  C   UNL     1      -1.537  -1.833  -0.765  0.00  0.00    +0.158 A 
ATOM      3  C   UNL     1      -2.881  -2.203  -0.848  0.00  0.00    +0.107 A 
ATOM      4  C   UNL     1      -3.328  -2.805  -2.025  0.00  0.00    +0.149 A 
ATOM      5  N   UNL     1      -2.462  -3.002  -3.017  0.00  0.00    -0.219 NA
ATOM      6  C   UNL     1      -1.201  -2.638  -2.898  0.00  0.00    +0.225 A 
ATOM      7  N   UNL     1      -0.740  -2.062  -1.806  0.00  0.00    -0.218 NA
ATOM      8  H   UNL     1      -1.628  -1.067   1.139  0.00  0.00    +0.168 HD
ENDROOT
BRANCH   1  10
ATOM      9  C   UNL     1       0.412   0.579   0.670  0.00  0.00    +0.127 C 
ATOM     10  N   UNL     1       0.275  -0.868   0.452  0.00  0.00    -0.234 NA
ATOM     11  C   UNL     1       0.977  -1.627   1.495  0.00  0.00    +0.127 C 
ENDBRANCH   1  10
BRANCH   3  12
ATOM     12  N   UNL     1      -3.759  -1.976   0.224  0.00  0.00    -0.353 N 
ATOM     13  H   UNL     1      -3.434  -1.557   1.036  0.00  0.00    +0.143 HD
ATOM     14  H   UNL     1      -4.690  -2.238   0.152  0.00  0.00    +0.143 HD
ENDBRANCH   3  12
BRANCH   4  15
ATOM     15  N   UNL     1      -4.656  -3.193  -2.160  0.00  0.00    -0.297 N 
ATOM     16  H   UNL     1      -5.301  -2.963  -1.472  0.00  0.00    +0.154 HD
BRANCH  15  17
ATOM     17  C   UNL     1      -5.061  -3.912  -3.283  0.00  0.00    +0.040 A 
ATOM     18  C   UNL     1      -4.159  -4.698  -3.969  0.00  0.00    +0.024 A 
ATOM     19  C   UNL     1      -4.554  -5.420  -5.091  0.00  0.00    +0.002 A 
ATOM     20  C   UNL     1      -5.838  -5.372  -5.542  0.00  0.00    +0.008 A 
ATOM     21  C   UNL     1      -6.788  -4.583  -4.872  0.00  0.00    -0.016 A 
ATOM     22  C   UNL     1      -6.401  -3.848  -3.725  0.00  0.00    +0.003 A 
ATOM     23  C   UNL     1      -7.353  -3.066  -3.053  0.00  0.00    +0.010 A 
ATOM     24  C   UNL     1      -8.636  -3.028  -3.507  0.00  0.00    +0.001 A 
ATOM     25  C   UNL     1      -9.020  -3.755  -4.632  0.00  0.00    +0.001 A 
ATOM     26  C   UNL     1      -8.121  -4.514  -5.315  0.00  0.00    +0.008 A 
ENDBRANCH  15  17
ENDBRANCH   4  15
TORSDOF 4
