REMARK  Name = ZINC08739434
REMARK  6 active torsions:
REMARK  status: ('A' for Active; 'I' for Inactive)
REMARK    1  A    between atoms: C_4  and  C_7
REMARK    2  A    between atoms: C_7  and  C_8
REMARK    3  A    between atoms: C_7  and  C_14
REMARK    4  A    between atoms: C_7  and  O_34
REMARK    5  A    between atoms: C_19  and  N_61
REMARK    6  A    between atoms: N_24  and  C_27
REMARK                            x       y       z     vdW  Elec       q    Type
REMARK                         _______ _______ _______ _____ _____    ______ ____
ROOT
ATOM      1  C   UNL     1      -3.020   8.623  -3.679  0.00  0.00    +0.026 C 
ATOM      2  C   UNL     1      -3.576   9.259  -2.401  0.00  0.00    -0.012 C 
ATOM      3  C   UNL     1      -2.989   8.542  -1.183  0.00  0.00    -0.077 C 
ATOM      4  C   UNL     1      -0.965   8.006  -2.403  0.00  0.00    -0.077 C 
ATOM      5  C   UNL     1      -1.492   8.707  -3.657  0.00  0.00    -0.012 C 
ATOM      6  N   UNL     1      -1.517   8.680  -1.209  0.00  0.00    +0.388 N 
ATOM      7  H   UNL     1      -1.277   9.677  -1.249  0.00  0.00    -0.081 HD
ENDROOT
BRANCH   6   8
ATOM      8  C   UNL     1      -0.934   8.094   0.016  0.00  0.00    +0.029 C 
ATOM      9  C   UNL     1      -1.353   6.621   0.199  0.00  0.00    +0.090 C 
ATOM     10  C   UNL     1      -2.108   6.628   1.510  0.00  0.00    +0.225 C 
ATOM     11  O   UNL     1      -2.613   5.658   2.036  0.00  0.00    -0.275 OA
ATOM     12  N   UNL     1      -2.135   7.875   1.997  0.00  0.00    -0.212 N 
ATOM     13  C   UNL     1      -1.502   8.779   1.240  0.00  0.00    +0.213 C 
ATOM     14  O   UNL     1      -1.399   9.960   1.494  0.00  0.00    -0.277 OA
BRANCH  12  15
ATOM     15  C   UNL     1      -2.767   8.205   3.204  0.00  0.00    +0.044 A 
ATOM     16  C   UNL     1      -4.149   8.125   3.310  0.00  0.00    +0.025 A 
ATOM     17  C   UNL     1      -4.770   8.451   4.499  0.00  0.00    +0.022 A 
ATOM     18  C   UNL     1      -4.016   8.858   5.586  0.00  0.00    +0.041 A 
ATOM     19  C   UNL     1      -2.639   8.944   5.482  0.00  0.00    +0.022 A 
ATOM     20  C   UNL     1      -2.013   8.613   4.296  0.00  0.00    +0.025 A 
ATOM     21 CL   UNL     1      -4.799   9.267   7.080  0.00  0.00    -0.084 Cl
ENDBRANCH  12  15
ENDBRANCH   6   8
BRANCH   1  22
ATOM     22  C   UNL     1      -3.558   9.374  -4.899  0.00  0.00    +0.119 C 
BRANCH  22  26
ATOM     23  C   UNL     1      -2.005   7.599  -8.460  0.00  0.00    +0.000 A 
ATOM     24  C   UNL     1      -2.306   8.948  -8.435  0.00  0.00    +0.000 A 
ATOM     25  C   UNL     1      -2.808   9.523  -7.282  0.00  0.00    +0.007 A 
ATOM     26  C   UNL     1      -3.010   8.748  -6.155  0.00  0.00    -0.011 A 
ATOM     27  C   UNL     1      -2.704   7.400  -6.179  0.00  0.00    +0.007 A 
ATOM     28  C   UNL     1      -2.206   6.825  -7.333  0.00  0.00    +0.000 A 
ENDBRANCH  22  26
BRANCH  22  29
ATOM     29  C   UNL     1      -5.063   9.297  -4.914  0.00  0.00    -0.011 A 
ATOM     30  C   UNL     1      -5.704   8.197  -4.375  0.00  0.00    +0.007 A 
ATOM     31  C   UNL     1      -7.084   8.128  -4.385  0.00  0.00    +0.000 A 
ATOM     32  C   UNL     1      -7.824   9.155  -4.941  0.00  0.00    +0.000 A 
ATOM     33  C   UNL     1      -7.183  10.252  -5.485  0.00  0.00    +0.000 A 
ATOM     34  C   UNL     1      -5.802  10.323  -5.471  0.00  0.00    +0.007 A 
ENDBRANCH  22  29
BRANCH  22  35
ATOM     35  O   UNL     1      -3.152  10.743  -4.833  0.00  0.00    -0.379 OA
ATOM     36  H   UNL     1      -2.193  10.869  -4.820  0.00  0.00    +0.211 HD
ENDBRANCH  22  35
ENDBRANCH   1  22
TORSDOF 6
