REMARK  Name = ZINC64816867
REMARK  6 active torsions:
REMARK  status: ('A' for Active; 'I' for Inactive)
REMARK    1  A    between atoms: C_1  and  C_2
REMARK    2  A    between atoms: C_4  and  C_27
REMARK    3  A    between atoms: N_14  and  C_15
REMARK    4  A    between atoms: C_15  and  C_16
REMARK    5  A    between atoms: N_18  and  C_19
REMARK    6  A    between atoms: C_19  and  C_20
REMARK                            x       y       z     vdW  Elec       q    Type
REMARK                         _______ _______ _______ _____ _____    ______ ____
ROOT
ATOM      1  C   UNL     1      -1.141   1.865   0.791  0.00  0.00    +0.046 C 
ATOM      2  C   UNL     1      -1.236   0.381   0.549  0.00  0.00    -0.025 A 
ATOM      3  C   UNL     1      -2.011  -0.117  -0.488  0.00  0.00    +0.028 A 
ATOM      4  C   UNL     1      -2.079  -1.481  -0.686  0.00  0.00    +0.040 A 
ATOM      5  N   UNL     1      -1.423  -2.311   0.101  0.00  0.00    -0.244 NA
ATOM      6  C   UNL     1      -0.671  -1.881   1.106  0.00  0.00    +0.119 A 
ATOM      7  C   UNL     1      -0.543  -0.515   1.359  0.00  0.00    +0.072 A 
ATOM      8  N   UNL     1       0.254  -0.003   2.384  0.00  0.00    -0.252 N 
ATOM      9  C   UNL     1       0.700  -0.806   3.519  0.00  0.00    +0.126 C 
ATOM     10  C   UNL     1       1.409  -2.061   2.988  0.00  0.00    +0.095 C 
ATOM     11  S   UNL     1       0.165  -3.064   2.115  0.00  0.00    -0.103 S 
ATOM     12  C   UNL     1       0.629   1.290   2.322  0.00  0.00    +0.307 C 
ATOM     13  O   UNL     1       0.761   1.834   1.243  0.00  0.00    -0.252 OA
ATOM     14  N   UNL     1       0.858   1.980   3.457  0.00  0.00    -0.290 N 
ATOM     15  C   UNL     1      -2.915  -2.029  -1.814  0.00  0.00    +0.065 C 
ATOM     16  H   UNL     1       0.824   1.528   4.315  0.00  0.00    +0.151 HD
ENDROOT
BRANCH  14  17
ATOM     17  C   UNL     1       1.159   3.412   3.396  0.00  0.00    +0.201 C 
BRANCH  17  18
ATOM     18  C   UNL     1       1.372   3.941   4.791  0.00  0.00    +0.231 C 
ATOM     19  O   UNL     1       1.282   3.195   5.743  0.00  0.00    -0.274 OA
ATOM     20  N   UNL     1       1.663   5.243   4.981  0.00  0.00    -0.310 N 
ATOM     21  H   UNL     1       1.736   5.840   4.219  0.00  0.00    +0.149 HD
BRANCH  20  22
ATOM     22  C   UNL     1       1.871   5.757   6.337  0.00  0.00    +0.139 C 
BRANCH  22  23
ATOM     23  C   UNL     1       2.180   7.231   6.274  0.00  0.00    -0.030 A 
ATOM     24  C   UNL     1       3.490   7.657   6.155  0.00  0.00    +0.008 A 
ATOM     25  C   UNL     1       3.775   9.008   6.096  0.00  0.00    +0.038 A 
ATOM     26  C   UNL     1       2.748   9.934   6.157  0.00  0.00    +0.123 A 
ATOM     27  C   UNL     1       1.437   9.507   6.276  0.00  0.00    +0.038 A 
ATOM     28  C   UNL     1       1.154   8.155   6.329  0.00  0.00    +0.008 A 
ATOM     29  F   UNL     1       3.026  11.255   6.100  0.00  0.00    -0.205 F 
ENDBRANCH  22  23
ENDBRANCH  20  22
ENDBRANCH  17  18
ENDBRANCH  14  17
TORSDOF 4
