REMARK  Name = ZINC03423378
REMARK  5 active torsions:
REMARK  status: ('A' for Active; 'I' for Inactive)
REMARK    1  A    between atoms: C_3  and  C_6
REMARK    2  A    between atoms: C_6  and  N_7
REMARK    3  A    between atoms: C_11  and  C_13
REMARK    4  A    between atoms: C_13  and  S_14
REMARK    5  A    between atoms: S_14  and  C_15
REMARK                            x       y       z     vdW  Elec       q    Type
REMARK                         _______ _______ _______ _____ _____    ______ ____
ROOT
ATOM      1  N   UNL     1       4.101   0.607   1.347  0.00  0.00    -0.292 N 
ATOM      2  C   UNL     1       5.428   0.575   1.580  0.00  0.00    +0.306 C 
ATOM      3  O   UNL     1       6.208   0.561   0.648  0.00  0.00    -0.252 OA
ATOM      4  N   UNL     1       5.889   0.557   2.846  0.00  0.00    -0.239 N 
ATOM      5  C   UNL     1       7.216   0.526   3.079  0.00  0.00    +0.231 C 
ATOM      6  O   UNL     1       7.995   0.512   2.150  0.00  0.00    -0.274 OA
ATOM      7  H   UNL     1       3.478   0.617   2.090  0.00  0.00    +0.151 HD
ATOM      8  H   UNL     1       5.266   0.568   3.590  0.00  0.00    +0.159 HD
ENDROOT
BRANCH   1   9
ATOM      9  C   UNL     1       3.599   0.625  -0.029  0.00  0.00    +0.180 C 
BRANCH   9  12
ATOM     10  C   UNL     1      -0.016   1.341   0.009  0.00  0.00    +0.041 A 
ATOM     11  C   UNL     1       1.331   1.769  -0.001  0.00  0.00    +0.046 A 
ATOM     12  C   UNL     1       2.092   0.660  -0.014  0.00  0.00    +0.122 A 
ATOM     13  O   UNL     1       1.282  -0.411  -0.012  0.00  0.00    -0.466 OA
ATOM     14  C   UNL     1       0.002  -0.004   0.002  0.00  0.00    +0.195 A 
ENDBRANCH   9  12
ENDBRANCH   1   9
BRANCH   5  15
ATOM     15  C   UNL     1       7.733   0.507   4.495  0.00  0.00    +0.172 C 
BRANCH  15  16
ATOM     16  S   UNL     1       9.546   0.465   4.477  0.00  0.00    -0.089 S 
BRANCH  16  17
ATOM     17  C   UNL     1       9.989   0.446   6.182  0.00  0.00    +0.136 A 
ATOM     18  N   UNL     1       9.206   0.453   7.237  0.00  0.00    -0.233 NA
ATOM     19  C   UNL     1       9.689   0.436   8.499  0.00  0.00    +0.081 A 
ATOM     20  C   UNL     1       8.961   0.442   9.712  0.00  0.00    +0.049 A 
ATOM     21  C   UNL     1       9.612   0.423  10.919  0.00  0.00    +0.043 A 
ATOM     22  C   UNL     1      10.998   0.398  10.995  0.00  0.00    +0.021 A 
ATOM     23  C   UNL     1      11.740   0.391   9.828  0.00  0.00    +0.018 A 
ATOM     24  C   UNL     1      11.097   0.410   8.616  0.00  0.00    +0.040 A 
ATOM     25  S   UNL     1      11.618   0.404   6.917  0.00  0.00    -0.061 S 
ATOM     26 CL   UNL     1       8.682   0.431  12.385  0.00  0.00    -0.083 Cl
ENDBRANCH  16  17
ENDBRANCH  15  16
ENDBRANCH   5  15
TORSDOF 5
