REMARK  Name = ZINC10751808
REMARK  10 active torsions:
REMARK  status: ('A' for Active; 'I' for Inactive)
REMARK    1  A    between atoms: C_1  and  C_2
REMARK    2  A    between atoms: C_4  and  C_33
REMARK    3  A    between atoms: N_11  and  C_12
REMARK    4  A    between atoms: C_12  and  C_13
REMARK    5  A    between atoms: C_13  and  N_63
REMARK    6  A    between atoms: C_14  and  N_63
REMARK    7  A    between atoms: C_15  and  N_63
REMARK    8  A    between atoms: C_16  and  C_18
REMARK    9  A    between atoms: N_23  and  S_25
REMARK   10  A    between atoms: S_25  and  C_28
REMARK                            x       y       z     vdW  Elec       q    Type
REMARK                         _______ _______ _______ _____ _____    ______ ____
ROOT
ATOM      1  C   UNL     1       0.480  11.960  10.576  0.00  0.00    +0.044 C 
ATOM      2  C   UNL     1       0.227  11.034   9.414  0.00  0.00    -0.049 A 
ATOM      3  C   UNL     1      -0.063  11.549   8.159  0.00  0.00    +0.009 A 
ATOM      4  C   UNL     1      -0.297  10.730   7.085  0.00  0.00    -0.024 A 
ATOM      5  C   UNL     1      -0.249   9.324   7.226  0.00  0.00    +0.083 A 
ATOM      6  C   UNL     1       0.049   8.835   8.518  0.00  0.00    +0.041 A 
ATOM      7  C   UNL     1       0.282   9.664   9.588  0.00  0.00    +0.020 A 
ATOM      8  S   UNL     1       0.007   7.076   8.277  0.00  0.00    -0.052 S 
ATOM      9  C   UNL     1      -0.382   7.098   6.532  0.00  0.00    +0.168 A 
ATOM     10  N   UNL     1      -0.454   8.384   6.278  0.00  0.00    -0.224 NA
ATOM     11  N   UNL     1      -0.566   6.030   5.670  0.00  0.00    -0.252 N 
ATOM     12  C   UNL     1      -0.863   6.253   4.374  0.00  0.00    +0.226 C 
ATOM     13  O   UNL     1      -0.879   7.386   3.942  0.00  0.00    -0.275 OA
ATOM     14  C   UNL     1      -0.610  11.335   5.741  0.00  0.00    +0.046 C 
ENDROOT
BRANCH  12  15
ATOM     15  C   UNL     1      -1.175   5.095   3.462  0.00  0.00    +0.091 C 
ATOM     16  C   UNL     1      -2.579   4.567   3.769  0.00  0.00    +0.015 C 
ATOM     17  C   UNL     1      -2.884   3.370   2.866  0.00  0.00    +0.018 C 
ATOM     18  C   UNL     1      -2.848   3.821   1.398  0.00  0.00    +0.109 C 
ATOM     19  N   UNL     1      -1.551   4.459   1.136  0.00  0.00    -0.175 NA
ATOM     20  C   UNL     1      -1.118   5.562   2.004  0.00  0.00    +0.122 C 
BRANCH  19  21
ATOM     21  S   UNL     1      -0.597   3.947  -0.117  0.00  0.00    +0.067 S 
ATOM     22  O   UNL     1       0.241   5.042  -0.463  0.00  0.00    -0.152 OA
ATOM     23  O   UNL     1      -1.461   3.323  -1.056  0.00  0.00    -0.152 OA
BRANCH  21  24
ATOM     24  C   UNL     1       0.459   2.685   0.513  0.00  0.00    +0.143 A 
ATOM     25  C   UNL     1       0.253   1.346   0.562  0.00  0.00    +0.036 A 
ATOM     26  C   UNL     1       1.231   0.537   1.110  0.00  0.00    +0.010 A 
ATOM     27  C   UNL     1       2.371   1.106   1.573  0.00  0.00    +0.047 A 
ATOM     28  S   UNL     1       2.080   2.836   1.245  0.00  0.00    -0.077 S 
ENDBRANCH  21  24
ENDBRANCH  19  21
ENDBRANCH  12  15
BRANCH  11  29
ATOM     29  C   UNL     1      -0.438   4.657   6.165  0.00  0.00    +0.097 C 
BRANCH  29  30
ATOM     30  C   UNL     1       0.971   4.138   5.873  0.00  0.00    -0.060 C 
BRANCH  30  33
ATOM     31  C   UNL     1       0.228   1.848   5.620  0.00  0.00    -0.097 C 
ATOM     32  C   UNL     1       2.497   2.314   6.324  0.00  0.00    -0.097 C 
ATOM     33  N   UNL     1       1.091   2.762   6.398  0.00  0.00    +0.377 N 
ATOM     34  H   UNL     1       0.789   2.751   7.379  0.00  0.00    -0.083 HD
ENDBRANCH  30  33
ENDBRANCH  29  30
ENDBRANCH  11  29
TORSDOF 6
