REMARK  Name = ZINC39655925
REMARK  6 active torsions:
REMARK  status: ('A' for Active; 'I' for Inactive)
REMARK    1  A    between atoms: C_1  and  C_2
REMARK    2  A    between atoms: C_8  and  C_11
REMARK    3  A    between atoms: C_11  and  C_12
REMARK    4  A    between atoms: C_12  and  N_13
REMARK    5  A    between atoms: C_14  and  C_16
REMARK    6  A    between atoms: C_27  and  C_29
REMARK                            x       y       z     vdW  Elec       q    Type
REMARK                         _______ _______ _______ _____ _____    ______ ____
ROOT
ATOM      1  C   UNL     1       5.247   0.115  -7.692  0.00  0.00    +0.100 C 
ATOM      2  C   UNL     1       5.999   0.459  -6.387  0.00  0.00    +0.121 C 
ATOM      3  N   UNL     1       6.369  -0.856  -5.810  0.00  0.00    -0.296 N 
ATOM      4  C   UNL     1       6.758  -1.676  -6.982  0.00  0.00    +0.115 C 
ATOM      5  C   UNL     1       5.751  -1.286  -8.081  0.00  0.00    -0.004 C 
ATOM      6  C   UNL     1       6.442  -1.240  -9.440  0.00  0.00    -0.010 C 
ATOM      7  C   UNL     1       6.883  -2.653  -9.832  0.00  0.00    -0.082 C 
ATOM      8  N   UNL     1       5.711  -3.535  -9.886  0.00  0.00    +0.379 N 
ATOM      9  C   UNL     1       5.106  -3.647  -8.554  0.00  0.00    -0.082 C 
ATOM     10  C   UNL     1       4.590  -2.276  -8.108  0.00  0.00    -0.010 C 
ATOM     11  C   UNL     1       6.354  -1.222  -4.513  0.00  0.00    +0.247 C 
ATOM     12  O   UNL     1       5.888  -0.474  -3.676  0.00  0.00    -0.270 OA
ATOM     13  H   UNL     1       5.034  -3.153 -10.530  0.00  0.00    -0.086 HD
ATOM     14  H   UNL     1       5.995  -4.450 -10.204  0.00  0.00    -0.086 HD
ENDROOT
BRANCH  11  15
ATOM     15  C   UNL     1       6.904  -2.533  -4.109  0.00  0.00    +0.038 A 
ATOM     16  C   UNL     1       7.809  -3.199  -4.938  0.00  0.00    +0.013 A 
ATOM     17  C   UNL     1       8.320  -4.422  -4.555  0.00  0.00    +0.002 A 
ATOM     18  C   UNL     1       7.938  -4.989  -3.353  0.00  0.00    +0.020 A 
ATOM     19  C   UNL     1       7.041  -4.335  -2.526  0.00  0.00    +0.042 A 
ATOM     20  C   UNL     1       6.527  -3.107  -2.895  0.00  0.00    +0.033 A 
ATOM     21 CL   UNL     1       6.568  -5.055  -1.019  0.00  0.00    -0.084 Cl
ENDBRANCH  11  15
BRANCH   1  23
ATOM     22  N   UNL     1       2.906   0.285  -8.473  0.00  0.00    -0.315 N 
ATOM     23  C   UNL     1       3.760   0.088  -7.449  0.00  0.00    +0.218 C 
ATOM     24  O   UNL     1       3.332  -0.110  -6.332  0.00  0.00    -0.275 OA
ATOM     25  H   UNL     1       3.249   0.443  -9.366  0.00  0.00    +0.149 HD
BRANCH  22  26
ATOM     26  C   UNL     1       1.460   0.259  -8.236  0.00  0.00    +0.109 C 
BRANCH  26  27
ATOM     27  C   UNL     1       0.724   0.508  -9.554  0.00  0.00    +0.056 C 
BRANCH  27  35
ATOM     28  C   UNL     1      -2.068   5.187  -7.787  0.00  0.00    +0.044 C 
ATOM     29  C   UNL     1      -2.352   3.749  -8.137  0.00  0.00    -0.050 A 
ATOM     30  C   UNL     1      -3.650   3.263  -8.053  0.00  0.00    +0.005 A 
ATOM     31  C   UNL     1      -3.931   1.952  -8.369  0.00  0.00    +0.026 A 
ATOM     32  C   UNL     1      -2.906   1.105  -8.777  0.00  0.00    +0.047 A 
ATOM     33  N   UNL     1      -2.863  -0.220  -9.151  0.00  0.00    -0.360 N 
ATOM     34  C   UNL     1      -1.579  -0.573  -9.465  0.00  0.00    +0.087 A 
ATOM     35  C   UNL     1      -0.763   0.481  -9.311  0.00  0.00    -0.021 A 
ATOM     36  C   UNL     1      -1.593   1.602  -8.861  0.00  0.00    +0.003 A 
ATOM     37  C   UNL     1      -1.331   2.936  -8.541  0.00  0.00    +0.013 A 
ATOM     38  H   UNL     1      -3.629  -0.814  -9.185  0.00  0.00    +0.165 HD
ENDBRANCH  27  35
ENDBRANCH  26  27
ENDBRANCH  22  26
ENDBRANCH   1  23
TORSDOF 5
