REMARK  Name = ZINC67405769
REMARK  4 active torsions:
REMARK  status: ('A' for Active; 'I' for Inactive)
REMARK    1  A    between atoms: C_3  and  O_26
REMARK    2  A    between atoms: C_6  and  C_7
REMARK    3  A    between atoms: C_7  and  N_8
REMARK    4  A    between atoms: C_15  and  C_18
REMARK                            x       y       z     vdW  Elec       q    Type
REMARK                         _______ _______ _______ _____ _____    ______ ____
ROOT
ATOM      1  N   UNL     1      -1.729  -1.012  -1.367  0.00  0.00    -0.295 N 
ATOM      2  C   UNL     1      -2.868  -1.692  -1.606  0.00  0.00    +0.303 C 
ATOM      3  O   UNL     1      -3.489  -2.182  -0.683  0.00  0.00    -0.253 OA
ATOM      4  N   UNL     1      -3.320  -1.827  -2.869  0.00  0.00    -0.281 N 
ATOM      5  C   UNL     1      -2.527  -1.348  -4.012  0.00  0.00    +0.137 C 
ATOM      6  C   UNL     1      -2.424  -2.482  -5.039  0.00  0.00    +0.179 C 
ATOM      7  O   UNL     1      -3.735  -2.969  -5.335  0.00  0.00    -0.369 OA
ATOM      8  C   UNL     1      -4.415  -3.540  -4.213  0.00  0.00    +0.166 C 
ATOM      9  C   UNL     1      -4.617  -2.465  -3.145  0.00  0.00    +0.145 C 
ATOM     10  H   UNL     1      -1.196  -0.683  -2.108  0.00  0.00    +0.151 HD
ENDROOT
BRANCH   8  11
ATOM     11  C   UNL     1      -5.753  -4.074  -4.654  0.00  0.00    -0.016 A 
ATOM     12  C   UNL     1      -6.466  -3.420  -5.643  0.00  0.00    +0.009 A 
ATOM     13  C   UNL     1      -7.693  -3.909  -6.049  0.00  0.00    +0.040 A 
ATOM     14  C   UNL     1      -8.210  -5.053  -5.465  0.00  0.00    +0.142 A 
ATOM     15  C   UNL     1      -7.495  -5.707  -4.474  0.00  0.00    +0.076 A 
ATOM     16  C   UNL     1      -6.265  -5.219  -4.074  0.00  0.00    +0.029 A 
ATOM     17 CL   UNL     1      -8.141  -7.142  -3.741  0.00  0.00    -0.081 Cl
ATOM     18  F   UNL     1      -9.410  -5.531  -5.861  0.00  0.00    -0.204 F 
ENDBRANCH   8  11
BRANCH   1  19
ATOM     19  C   UNL     1      -1.296  -0.771   0.011  0.00  0.00    +0.141 C 
BRANCH  19  25
ATOM     20  C   UNL     1      -0.027   1.386   0.013  0.00  0.00    +0.009 A 
ATOM     21  C   UNL     1       1.157   2.099   0.006  0.00  0.00    +0.046 A 
ATOM     22  C   UNL     1       2.370   1.426  -0.011  0.00  0.00    +0.117 A 
ATOM     23  C   UNL     1       2.391   0.039  -0.021  0.00  0.00    +0.046 A 
ATOM     24  C   UNL     1       1.205  -0.669  -0.014  0.00  0.00    +0.009 A 
ATOM     25  C   UNL     1      -0.003   0.004   0.003  0.00  0.00    -0.030 A 
BRANCH  22  26
ATOM     26  O   UNL     1       3.535   2.125  -0.018  0.00  0.00    -0.507 OA
ATOM     27  H   UNL     1       3.882   2.321   0.863  0.00  0.00    +0.292 HD
ENDBRANCH  22  26
ENDBRANCH  19  25
ENDBRANCH   1  19
TORSDOF 4
