REMARK  Name = ZINC63339747
REMARK  13 active torsions:
REMARK  status: ('A' for Active; 'I' for Inactive)
REMARK    1  A    between atoms: C_1  and  C_2
REMARK    2  A    between atoms: C_6  and  C_8
REMARK    3  A    between atoms: C_8  and  S_9
REMARK    4  A    between atoms: S_9  and  C_10
REMARK    5  A    between atoms: C_14  and  C_17
REMARK    6  A    between atoms: C_17  and  C_19
REMARK    7  A    between atoms: C_17  and  N_29
REMARK    8  A    between atoms: C_19  and  C_20
REMARK    9  A    between atoms: C_30  and  O_32
REMARK   10  A    between atoms: O_32  and  C_33
REMARK   11  A    between atoms: C_33  and  C_34
REMARK   12  A    between atoms: C_33  and  C_35
REMARK   13  A    between atoms: C_33  and  C_36
REMARK                            x       y       z     vdW  Elec       q    Type
REMARK                         _______ _______ _______ _____ _____    ______ ____
ROOT
ATOM      1  C   UNL     1      -1.290  -6.152   5.426  0.00  0.00    +0.125 C 
ENDROOT
BRANCH   1   5
ATOM      2  C   UNL     1       1.636  -4.022   5.600  0.00  0.00    +0.263 C 
ATOM      3  N   UNL     1       2.063  -5.202   6.386  0.00  0.00    -0.218 NA
ATOM      4  N   UNL     1       1.091  -6.255   6.085  0.00  0.00    -0.225 NA
ATOM      5  C   UNL     1       0.128  -5.656   5.134  0.00  0.00    +0.223 C 
ATOM      6  O   UNL     1       0.225  -4.231   5.365  0.00  0.00    -0.330 OA
ATOM      7  H   UNL     1       2.077  -4.994   7.373  0.00  0.00    +0.144 HD
ATOM      8  H   UNL     1       1.545  -7.061   5.681  0.00  0.00    +0.143 HD
BRANCH   2   9
ATOM      9  S   UNL     1       1.900  -2.499   6.551  0.00  0.00    -0.108 S 
BRANCH   9  10
ATOM     10  C   UNL     1       1.074  -2.821   8.133  0.00  0.00    +0.108 C 
BRANCH  10  16
ATOM     11  C   UNL     1       3.241  -0.081  11.716  0.00  0.00    +0.044 C 
ATOM     12  C   UNL     1       2.148  -0.265  10.696  0.00  0.00    -0.050 A 
ATOM     13  C   UNL     1       1.178   0.708  10.538  0.00  0.00    +0.003 A 
ATOM     14  C   UNL     1       0.175   0.539   9.603  0.00  0.00    +0.001 A 
ATOM     15  C   UNL     1       0.141  -0.604   8.824  0.00  0.00    +0.004 A 
ATOM     16  C   UNL     1       1.111  -1.576   8.981  0.00  0.00    -0.037 A 
ATOM     17  C   UNL     1       2.117  -1.405   9.914  0.00  0.00    +0.007 A 
ENDBRANCH  10  16
ENDBRANCH   9  10
ENDBRANCH   2   9
ENDBRANCH   1   5
BRANCH   1  18
ATOM     18  N   UNL     1      -2.251  -5.376   4.638  0.00  0.00    -0.274 N 
ATOM     19  C   UNL     1      -2.107  -5.282   3.301  0.00  0.00    +0.401 C 
ATOM     20  O   UNL     1      -1.234  -5.913   2.739  0.00  0.00    -0.226 OA
ATOM     21  H   UNL     1      -2.991  -4.929   5.079  0.00  0.00    +0.152 HD
BRANCH  19  22
ATOM     22  O   UNL     1      -2.931  -4.491   2.589  0.00  0.00    -0.445 OA
BRANCH  22  23
ATOM     23  C   UNL     1      -2.681  -4.390   1.186  0.00  0.00    +0.107 C 
ATOM     24  C   UNL     1      -2.846  -5.766   0.538  0.00  0.00    +0.055 C 
ATOM     25  C   UNL     1      -3.675  -3.409   0.560  0.00  0.00    +0.055 C 
ATOM     26  C   UNL     1      -1.255  -3.886   0.957  0.00  0.00    +0.055 C 
ENDBRANCH  22  23
ENDBRANCH  19  22
ENDBRANCH   1  18
BRANCH   1  27
ATOM     27  C   UNL     1      -1.400  -7.631   5.051  0.00  0.00    +0.059 C 
BRANCH  27  28
ATOM     28  C   UNL     1      -2.756  -8.151   5.452  0.00  0.00    -0.040 C 
ATOM     29  C   UNL     1      -3.854  -8.249   4.668  0.00  0.00    -0.001 A 
ATOM     30  C   UNL     1      -4.105  -7.911   3.261  0.00  0.00    +0.010 A 
ATOM     31  C   UNL     1      -5.336  -8.126   2.744  0.00  0.00    +0.001 A 
ATOM     32  C   UNL     1      -6.376  -8.660   3.517  0.00  0.00    +0.002 A 
ATOM     33  C   UNL     1      -6.223  -8.995   4.815  0.00  0.00    +0.026 A 
ATOM     34  C   UNL     1      -4.969  -8.812   5.461  0.00  0.00    +0.043 A 
ATOM     35  N   UNL     1      -4.576  -9.054   6.688  0.00  0.00    -0.380 N 
ATOM     36  C   UNL     1      -3.164  -8.676   6.810  0.00  0.00    +0.144 C 
ATOM     37  H   UNL     1      -5.126  -9.425   7.396  0.00  0.00    +0.160 HD
ENDBRANCH  27  28
ENDBRANCH   1  27
TORSDOF 9
