REMARK  Name = ZINC39686266
REMARK  10 active torsions:
REMARK  status: ('A' for Active; 'I' for Inactive)
REMARK    1  A    between atoms: C_1  and  C_2
REMARK    2  A    between atoms: C_2  and  S_3
REMARK    3  A    between atoms: S_3  and  C_4
REMARK    4  A    between atoms: C_5  and  C_10
REMARK    5  A    between atoms: C_14  and  C_23
REMARK    6  A    between atoms: N_25  and  C_26
REMARK    7  A    between atoms: C_32  and  C_34
REMARK    8  A    between atoms: C_34  and  C_35
REMARK    9  A    between atoms: C_35  and  C_36
REMARK   10  A    between atoms: C_35  and  C_37
REMARK                            x       y       z     vdW  Elec       q    Type
REMARK                         _______ _______ _______ _____ _____    ______ ____
ROOT
ATOM      1  C   UNL     1      -3.833  -2.764   0.093  0.00  0.00    +0.249 C 
ATOM      2  O   UNL     1      -3.931  -1.552   0.122  0.00  0.00    -0.270 OA
ATOM      3  N   UNL     1      -4.934  -3.525  -0.061  0.00  0.00    -0.296 N 
ATOM      4  C   UNL     1      -5.030  -5.003  -0.015  0.00  0.00    +0.121 C 
ATOM      5  C   UNL     1      -6.352  -5.285   0.734  0.00  0.00    +0.100 C 
ATOM      6  C   UNL     1      -7.197  -4.016   0.531  0.00  0.00    -0.004 C 
ATOM      7  C   UNL     1      -6.324  -3.073  -0.310  0.00  0.00    +0.115 C 
ATOM      8  C   UNL     1      -7.513  -3.371   1.877  0.00  0.00    -0.010 C 
ATOM      9  C   UNL     1      -8.401  -2.144   1.654  0.00  0.00    -0.082 C 
ATOM     10  N   UNL     1      -9.640  -2.550   0.979  0.00  0.00    +0.379 N 
ATOM     11  C   UNL     1      -9.333  -3.084  -0.353  0.00  0.00    -0.082 C 
ATOM     12  C   UNL     1      -8.485  -4.351  -0.215  0.00  0.00    -0.010 C 
ATOM     13  H   UNL     1     -10.102  -3.261   1.527  0.00  0.00    -0.086 HD
ATOM     14  H   UNL     1     -10.249  -1.751   0.888  0.00  0.00    -0.086 HD
ENDROOT
BRANCH   1  16
ATOM     15  C   UNL     1      -1.530  -2.844   1.069  0.00  0.00    +0.109 A 
ATOM     16  C   UNL     1      -2.510  -3.400   0.227  0.00  0.00    +0.069 A 
ATOM     17  C   UNL     1      -2.206  -4.568  -0.480  0.00  0.00    +0.017 A 
ATOM     18  C   UNL     1      -0.951  -5.127  -0.320  0.00  0.00    +0.020 A 
ATOM     19  C   UNL     1      -0.039  -4.522   0.527  0.00  0.00    +0.112 A 
ATOM     20  N   UNL     1      -0.341  -3.418   1.181  0.00  0.00    -0.248 NA
BRANCH  15  21
ATOM     21  S   UNL     1      -1.883  -1.373   1.972  0.00  0.00    -0.105 S 
BRANCH  21  23
ATOM     22  C   UNL     1      -0.522   0.226   3.726  0.00  0.00    +0.015 C 
ATOM     23  C   UNL     1      -0.351  -1.043   2.888  0.00  0.00    +0.072 C 
ENDBRANCH  21  23
ENDBRANCH  15  21
ENDBRANCH   1  16
BRANCH   5  24
ATOM     24  C   UNL     1      -7.048  -6.482   0.138  0.00  0.00    +0.218 C 
ATOM     25  O   UNL     1      -6.926  -6.729  -1.043  0.00  0.00    -0.275 OA
ATOM     26  N   UNL     1      -7.807  -7.277   0.918  0.00  0.00    -0.312 N 
ATOM     27  H   UNL     1      -7.905  -7.080   1.862  0.00  0.00    +0.149 HD
BRANCH  26  28
ATOM     28  C   UNL     1      -8.483  -8.441   0.338  0.00  0.00    +0.076 C 
ATOM     29  C   UNL     1      -9.819  -8.004  -0.267  0.00  0.00    +0.041 C 
ATOM     30  C   UNL     1     -10.508  -9.217  -0.902  0.00  0.00    +0.109 C 
ATOM     31  N   UNL     1     -10.620 -10.279   0.107  0.00  0.00    -0.301 N 
ATOM     32  C   UNL     1      -9.408 -10.711   0.816  0.00  0.00    +0.109 C 
ATOM     33  C   UNL     1      -8.732  -9.482   1.432  0.00  0.00    +0.041 C 
ATOM     34  C   UNL     1     -11.813 -10.845   0.378  0.00  0.00    +0.216 C 
ATOM     35  O   UNL     1     -12.806 -10.479  -0.214  0.00  0.00    -0.276 OA
BRANCH  34  36
ATOM     36  C   UNL     1     -11.912 -11.934   1.415  0.00  0.00    +0.099 C 
BRANCH  36  37
ATOM     37  C   UNL     1     -13.364 -12.401   1.528  0.00  0.00    -0.008 C 
ATOM     38  C   UNL     1     -13.445 -13.589   2.488  0.00  0.00    +0.008 C 
ATOM     39  C   UNL     1     -14.229 -11.256   2.059  0.00  0.00    +0.008 C 
ENDBRANCH  36  37
ENDBRANCH  34  36
ENDBRANCH  26  28
ENDBRANCH   5  24
TORSDOF 7
