REMARK  Name = ZINC52839405
REMARK  6 active torsions:
REMARK  status: ('A' for Active; 'I' for Inactive)
REMARK    1  A    between atoms: C_1  and  C_2
REMARK    2  A    between atoms: C_2  and  C_3
REMARK    3  A    between atoms: C_3  and  C_4
REMARK    4  A    between atoms: C_6  and  C_11
REMARK    5  A    between atoms: C_7  and  N_10
REMARK    6  A    between atoms: N_8  and  N_9
REMARK                            x       y       z     vdW  Elec       q    Type
REMARK                         _______ _______ _______ _____ _____    ______ ____
ROOT
ATOM      1  C   UNL     1       0.780  -2.006  -1.331  0.00  0.00    +0.129 A 
ATOM      2  N   UNL     1       1.735  -2.761  -0.869  0.00  0.00    -0.229 NA
ATOM      3  C   UNL     1       1.363  -4.056  -0.953  0.00  0.00    +0.115 A 
ATOM      4  C   UNL     1       0.109  -4.094  -1.497  0.00  0.00    +0.141 A 
ATOM      5  N   UNL     1      -0.256  -2.796  -1.729  0.00  0.00    -0.239 N 
ENDROOT
BRANCH   3   6
ATOM      6  C   UNL     1       2.168  -5.225  -0.530  0.00  0.00    +0.040 A 
ATOM      7  C   UNL     1       2.297  -6.328  -1.374  0.00  0.00    +0.028 A 
ATOM      8  C   UNL     1       3.049  -7.415  -0.976  0.00  0.00    +0.019 A 
ATOM      9  C   UNL     1       3.675  -7.413   0.259  0.00  0.00    +0.018 A 
ATOM     10  C   UNL     1       3.550  -6.323   1.102  0.00  0.00    +0.040 A 
ATOM     11  C   UNL     1       2.805  -5.226   0.712  0.00  0.00    +0.133 A 
ATOM     12  F   UNL     1       2.690  -4.160   1.533  0.00  0.00    -0.205 F 
ATOM     13 BR   UNL     1       3.225  -8.911  -2.119  0.00  0.00    -0.050 Br
ENDBRANCH   3   6
BRANCH   5  14
ATOM     14  N   UNL     1      -1.439  -2.371  -2.264  0.00  0.00    -0.295 N 
ATOM     15  H   UNL     1      -1.381  -2.311  -3.270  0.00  0.00    +0.163 HD
ATOM     16  H   UNL     1      -2.200  -2.971  -1.982  0.00  0.00    +0.163 HD
ENDBRANCH   5  14
BRANCH   4  17
ATOM     17  N   UNL     1      -0.649  -5.231  -1.758  0.00  0.00    -0.342 N 
ATOM     18  H   UNL     1      -0.332  -6.102  -1.473  0.00  0.00    +0.144 HD
ATOM     19  H   UNL     1      -1.495  -5.153  -2.226  0.00  0.00    +0.144 HD
ENDBRANCH   4  17
BRANCH   1  20
ATOM     20  C   UNL     1       0.813  -0.501  -1.408  0.00  0.00    +0.076 C 
BRANCH  20  22
ATOM     21  C   UNL     1       0.289   1.615  -0.189  0.00  0.00    +0.004 C 
ATOM     22  C   UNL     1       0.255   0.088  -0.111  0.00  0.00    +0.004 C 
ENDBRANCH  20  22
ENDBRANCH   1  20
TORSDOF 5
