REMARK  Name = ZINC35890996
REMARK  13 active torsions:
REMARK  status: ('A' for Active; 'I' for Inactive)
REMARK    1  A    between atoms: C_1  and  C_2
REMARK    2  A    between atoms: C_2  and  N_3
REMARK    3  A    between atoms: N_3  and  C_4
REMARK    4  A    between atoms: C_4  and  C_5
REMARK    5  A    between atoms: C_10  and  C_12
REMARK    6  A    between atoms: C_12  and  C_14
REMARK    7  A    between atoms: C_12  and  O_33
REMARK    8  A    between atoms: C_14  and  N_15
REMARK    9  A    between atoms: N_15  and  C_16
REMARK   10  A    between atoms: N_15  and  C_26
REMARK   11  A    between atoms: C_16  and  C_17
REMARK   12  A    between atoms: C_26  and  C_27
REMARK   13  A    between atoms: O_33  and  C_34
REMARK                            x       y       z     vdW  Elec       q    Type
REMARK                         _______ _______ _______ _____ _____    ______ ____
ROOT
ATOM      1  C   UNL     1      -1.526   0.201   2.307  0.00  0.00    +0.242 C 
ENDROOT
BRANCH   1   3
ATOM      2  N   UNL     1      -2.555   0.365   0.064  0.00  0.00    -0.291 N 
ATOM      3  C   UNL     1      -2.696   0.054   1.368  0.00  0.00    +0.255 C 
ATOM      4  O   UNL     1      -3.763  -0.343   1.785  0.00  0.00    -0.272 OA
BRANCH   2   6
ATOM      5  C   UNL     1      -1.216   2.303  -0.591  0.00  0.00    +0.024 C 
ATOM      6  C   UNL     1      -1.249   0.780  -0.454  0.00  0.00    +0.105 C 
ENDBRANCH   2   6
BRANCH   2   7
ATOM      7  C   UNL     1      -3.709   0.287  -0.836  0.00  0.00    +0.182 C 
BRANCH   7   8
ATOM      8  C   UNL     1      -3.789  -1.094  -1.433  0.00  0.00    +0.122 A 
ATOM      9  C   UNL     1      -4.462  -2.137  -0.915  0.00  0.00    +0.046 A 
ATOM     10  C   UNL     1      -4.267  -3.227  -1.794  0.00  0.00    +0.041 A 
ATOM     11  C   UNL     1      -3.486  -2.785  -2.796  0.00  0.00    +0.195 A 
ATOM     12  O   UNL     1      -3.205  -1.491  -2.575  0.00  0.00    -0.466 OA
ENDBRANCH   7   8
ENDBRANCH   2   7
ENDBRANCH   1   3
BRANCH   1  13
ATOM     13  C   UNL     1      -1.303   1.683   2.616  0.00  0.00    -0.023 C 
BRANCH  13  14
ATOM     14  N   UNL     1      -0.281   1.816   3.663  0.00  0.00    +0.387 N 
ATOM     15  H   UNL     1      -0.564   1.292   4.478  0.00  0.00    -0.081 HD
BRANCH  14  16
ATOM     16  C   UNL     1      -0.128   3.233   4.021  0.00  0.00    -0.043 C 
BRANCH  16  17
ATOM     17  C   UNL     1       0.840   3.359   5.169  0.00  0.00    -0.060 A 
ATOM     18  C   UNL     1       0.395   3.199   6.468  0.00  0.00    +0.005 A 
ATOM     19  C   UNL     1       1.279   3.314   7.524  0.00  0.00    +0.050 A 
ATOM     20  C   UNL     1       2.615   3.590   7.282  0.00  0.00    +0.166 A 
ATOM     21  C   UNL     1       3.063   3.752   5.974  0.00  0.00    +0.166 A 
ATOM     22  C   UNL     1       2.173   3.630   4.920  0.00  0.00    +0.051 A 
ATOM     23  O   UNL     1       4.403   4.014   6.001  0.00  0.00    -0.453 OA
ATOM     24  C   UNL     1       4.689   4.415   7.354  0.00  0.00    +0.466 C 
ATOM     25  O   UNL     1       3.673   3.752   8.130  0.00  0.00    -0.453 OA
ENDBRANCH  16  17
ENDBRANCH  14  16
BRANCH  14  26
ATOM     26  C   UNL     1       0.999   1.295   3.167  0.00  0.00    -0.046 C 
BRANCH  26  27
ATOM     27  C   UNL     1       1.373   2.013   1.868  0.00  0.00    +0.102 C 
ATOM     28  C   UNL     1       2.629   1.361   1.252  0.00  0.00    +0.032 C 
ATOM     29  C   UNL     1       3.413   2.592   0.721  0.00  0.00    +0.030 C 
ATOM     30  C   UNL     1       3.053   3.653   1.792  0.00  0.00    +0.160 C 
ATOM     31  O   UNL     1       1.685   3.384   2.143  0.00  0.00    -0.378 OA
ENDBRANCH  26  27
ENDBRANCH  14  26
ENDBRANCH  13  14
ENDBRANCH   1  13
BRANCH   1  32
ATOM     32  O   UNL     1      -1.799  -0.503   3.521  0.00  0.00    -0.481 OA
BRANCH  32  33
ATOM     33  C   UNL     1      -1.392  -1.798   3.587  0.00  0.00    +0.124 A 
ATOM     34  C   UNL     1      -0.840  -2.411   2.471  0.00  0.00    +0.046 A 
ATOM     35  C   UNL     1      -0.427  -3.727   2.540  0.00  0.00    +0.006 A 
ATOM     36  C   UNL     1      -0.563  -4.435   3.720  0.00  0.00    +0.038 A 
ATOM     37  C   UNL     1      -1.113  -3.827   4.835  0.00  0.00    +0.127 A 
ATOM     38  C   UNL     1      -1.523  -2.506   4.772  0.00  0.00    +0.084 A 
ATOM     39  F   UNL     1      -1.245  -4.521   5.987  0.00  0.00    -0.205 F 
ENDBRANCH  32  33
ENDBRANCH   1  32
TORSDOF 12
