REMARK  Name = ZINC09954095
REMARK  4 active torsions:
REMARK  status: ('A' for Active; 'I' for Inactive)
REMARK    1  A    between atoms: C_1  and  C_2
REMARK    2  A    between atoms: C_2  and  C_24
REMARK    3  A    between atoms: N_5  and  C_9
REMARK    4  A    between atoms: C_10  and  N_23
REMARK                            x       y       z     vdW  Elec       q    Type
REMARK                         _______ _______ _______ _____ _____    ______ ____
ROOT
ATOM      1  C   UNL     1       0.149   1.528   0.307  0.00  0.00    +0.047 C 
ATOM      2  C   UNL     1       0.044   0.016   0.095  0.00  0.00    +0.135 C 
ATOM      3  C   UNL     1      -1.388  -0.448   0.266  0.00  0.00    +0.255 C 
ATOM      4  O   UNL     1      -2.350  -0.113  -0.392  0.00  0.00    -0.272 OA
ATOM      5  N   UNL     1      -1.371  -1.311   1.301  0.00  0.00    -0.185 N 
ATOM      6  C   UNL     1      -0.139  -1.455   1.802  0.00  0.00    +0.314 C 
ATOM      7  O   UNL     1       0.129  -2.181   2.740  0.00  0.00    -0.252 OA
ATOM      8  N   UNL     1       0.771  -0.707   1.153  0.00  0.00    -0.281 N 
ATOM      9  H   UNL     1       1.721  -0.655   1.343  0.00  0.00    +0.152 HD
ENDROOT
BRANCH   5  10
ATOM     10  C   UNL     1      -2.509  -1.979   1.795  0.00  0.00    +0.131 A 
ATOM     11  C   UNL     1      -2.966  -1.705   3.071  0.00  0.00    +0.062 A 
ATOM     12  C   UNL     1      -4.162  -2.416   3.569  0.00  0.00    +0.032 A 
ATOM     13  C   UNL     1      -4.808  -2.274   4.886  0.00  0.00    -0.026 A 
ATOM     14  C   UNL     1      -5.892  -3.032   5.115  0.00  0.00    -0.004 A 
ATOM     15  S   UNL     1      -6.120  -3.964   3.619  0.00  0.00    -0.075 S 
ATOM     16  C   UNL     1      -4.747  -3.326   2.694  0.00  0.00    +0.090 A 
ATOM     17  N   UNL     1      -4.260  -3.562   1.446  0.00  0.00    -0.315 N 
ATOM     18  H   UNL     1      -4.705  -4.207   0.875  0.00  0.00    +0.169 HD
ATOM     19  C   UNL     1      -3.174  -2.911   0.988  0.00  0.00    +0.273 A 
ATOM     20  O   UNL     1      -2.761  -3.139  -0.139  0.00  0.00    -0.266 OA
ATOM     21  C   UNL     1      -6.463  -2.807   6.490  0.00  0.00    +0.043 C 
ATOM     22  C   UNL     1      -5.329  -2.105   7.270  0.00  0.00    +0.010 C 
ATOM     23  C   UNL     1      -4.540  -1.426   6.133  0.00  0.00    +0.037 C 
BRANCH  11  24
ATOM     24  N   UNL     1      -2.314  -0.781   3.869  0.00  0.00    -0.356 N 
ATOM     25  H   UNL     1      -1.587  -0.253   3.504  0.00  0.00    +0.142 HD
ATOM     26  H   UNL     1      -2.584  -0.661   4.793  0.00  0.00    +0.142 HD
ENDBRANCH  11  24
ENDBRANCH   5  10
BRANCH   2  27
ATOM     27  C   UNL     1       0.570  -0.365  -1.265  0.00  0.00    -0.015 A 
ATOM     28  C   UNL     1      -0.286  -0.408  -2.350  0.00  0.00    +0.006 A 
ATOM     29  C   UNL     1       0.198  -0.757  -3.596  0.00  0.00    +0.004 A 
ATOM     30  C   UNL     1       1.538  -1.065  -3.762  0.00  0.00    -0.044 A 
ATOM     31  C   UNL     1       2.393  -1.023  -2.677  0.00  0.00    -0.044 A 
ATOM     32  C   UNL     1       1.907  -0.667  -1.430  0.00  0.00    +0.010 A 
ATOM     33  C   UNL     1       3.793  -1.399  -3.114  0.00  0.00    +0.036 C 
ATOM     34  C   UNL     1       3.616  -2.095  -4.480  0.00  0.00    +0.009 C 
ATOM     35  C   UNL     1       2.304  -1.472  -5.002  0.00  0.00    +0.036 C 
ENDBRANCH   2  27
TORSDOF 3
