REMARK  Name = ZINC39653751
REMARK  9 active torsions:
REMARK  status: ('A' for Active; 'I' for Inactive)
REMARK    1  A    between atoms: C_1  and  C_2
REMARK    2  A    between atoms: C_2  and  O_3
REMARK    3  A    between atoms: O_3  and  C_4
REMARK    4  A    between atoms: C_7  and  C_10
REMARK    5  A    between atoms: C_10  and  C_11
REMARK    6  A    between atoms: C_11  and  N_12
REMARK    7  A    between atoms: C_13  and  C_15
REMARK    8  A    between atoms: C_26  and  C_28
REMARK    9  A    between atoms: C_32  and  C_34
REMARK                            x       y       z     vdW  Elec       q    Type
REMARK                         _______ _______ _______ _____ _____    ______ ____
ROOT
ATOM      1  C   UNL     1      -3.022  -9.818   2.724  0.00  0.00    +0.100 C 
ATOM      2  C   UNL     1      -4.241 -10.467   2.030  0.00  0.00    +0.121 C 
ATOM      3  N   UNL     1      -4.565 -11.646   2.868  0.00  0.00    -0.296 N 
ATOM      4  C   UNL     1      -4.361 -11.176   4.259  0.00  0.00    +0.115 C 
ATOM      5  C   UNL     1      -3.105 -10.285   4.187  0.00  0.00    -0.004 C 
ATOM      6  C   UNL     1      -3.256  -9.085   5.117  0.00  0.00    -0.010 C 
ATOM      7  C   UNL     1      -3.278  -9.570   6.569  0.00  0.00    -0.082 C 
ATOM      8  N   UNL     1      -2.034 -10.291   6.865  0.00  0.00    +0.379 N 
ATOM      9  C   UNL     1      -1.942 -11.495   6.031  0.00  0.00    -0.082 C 
ATOM     10  C   UNL     1      -1.864 -11.092   4.556  0.00  0.00    -0.010 C 
ATOM     11  C   UNL     1      -4.955 -12.869   2.458  0.00  0.00    +0.247 C 
ATOM     12  O   UNL     1      -4.953 -13.142   1.273  0.00  0.00    -0.270 OA
ATOM     13  H   UNL     1      -1.246  -9.691   6.675  0.00  0.00    -0.086 HD
ATOM     14  H   UNL     1      -2.024 -10.556   7.839  0.00  0.00    -0.086 HD
ENDROOT
BRANCH  11  15
ATOM     15  C   UNL     1      -5.386 -13.877   3.447  0.00  0.00    +0.038 A 
ATOM     16  C   UNL     1      -5.806 -13.477   4.718  0.00  0.00    +0.016 A 
ATOM     17  C   UNL     1      -6.207 -14.422   5.638  0.00  0.00    +0.039 A 
ATOM     18  C   UNL     1      -6.194 -15.768   5.303  0.00  0.00    +0.135 A 
ATOM     19  C   UNL     1      -5.779 -16.170   4.043  0.00  0.00    +0.091 A 
ATOM     20  C   UNL     1      -5.381 -15.233   3.114  0.00  0.00    +0.028 A 
ATOM     21  F   UNL     1      -6.588 -16.690   6.209  0.00  0.00    -0.205 F 
BRANCH  19  22
ATOM     22  C   UNL     1      -5.767 -17.635   3.687  0.00  0.00    +0.420 C 
ATOM     23  F   UNL     1      -5.313 -17.791   2.373  0.00  0.00    -0.166 F 
ATOM     24  F   UNL     1      -4.915 -18.320   4.560  0.00  0.00    -0.166 F 
ATOM     25  F   UNL     1      -7.062 -18.152   3.798  0.00  0.00    -0.166 F 
ENDBRANCH  19  22
ENDBRANCH  11  15
BRANCH   1  27
ATOM     26  N   UNL     1      -1.988  -7.574   2.610  0.00  0.00    -0.315 N 
ATOM     27  C   UNL     1      -3.113  -8.316   2.647  0.00  0.00    +0.218 C 
ATOM     28  O   UNL     1      -4.198  -7.775   2.617  0.00  0.00    -0.275 OA
ATOM     29  H   UNL     1      -1.120  -8.007   2.634  0.00  0.00    +0.149 HD
BRANCH  26  30
ATOM     30  C   UNL     1      -2.076  -6.114   2.535  0.00  0.00    +0.109 C 
BRANCH  30  31
ATOM     31  C   UNL     1      -0.667  -5.519   2.506  0.00  0.00    +0.054 C 
BRANCH  31  35
ATOM     32  C   UNL     1      -0.924  -1.258   2.287  0.00  0.00    +0.121 A 
ATOM     33  C   UNL     1      -0.884  -1.889   3.522  0.00  0.00    +0.046 A 
ATOM     34  C   UNL     1      -0.801  -3.267   3.590  0.00  0.00    +0.007 A 
ATOM     35  C   UNL     1      -0.758  -4.016   2.429  0.00  0.00    -0.046 A 
ATOM     36  C   UNL     1      -0.797  -3.390   1.197  0.00  0.00    +0.007 A 
ATOM     37  C   UNL     1      -0.886  -2.013   1.124  0.00  0.00    +0.046 A 
BRANCH  32  38
ATOM     38  O   UNL     1      -1.006   0.096   2.217  0.00  0.00    -0.492 OA
BRANCH  38  40
ATOM     39  C   UNL     1      -1.132   2.310   3.178  0.00  0.00    +0.048 C 
ATOM     40  C   UNL     1      -1.040   0.809   3.456  0.00  0.00    +0.225 C 
ENDBRANCH  38  40
ENDBRANCH  32  38
ENDBRANCH  31  35
ENDBRANCH  30  31
ENDBRANCH  26  30
ENDBRANCH   1  27
TORSDOF 8
