REMARK  Name = ZINC04398909
REMARK  7 active torsions:
REMARK  status: ('A' for Active; 'I' for Inactive)
REMARK    1  A    between atoms: C_4  and  C_7
REMARK    2  A    between atoms: C_7  and  N_8
REMARK    3  A    between atoms: C_11  and  C_15
REMARK    4  A    between atoms: C_15  and  C_16
REMARK    5  A    between atoms: N_18  and  N_19
REMARK    6  A    between atoms: C_20  and  C_21
REMARK    7  A    between atoms: C_26  and  O_27
REMARK                            x       y       z     vdW  Elec       q    Type
REMARK                         _______ _______ _______ _____ _____    ______ ____
ROOT
ATOM      1  C   UNL     1      -4.467   0.129  -3.459  0.00  0.00    +0.091 C 
ENDROOT
BRANCH   1   5
ATOM      2  N   UNL     1      -1.726  -1.018  -1.367  0.00  0.00    -0.300 N 
ATOM      3  C   UNL     1      -1.276  -2.235  -2.036  0.00  0.00    +0.089 C 
ATOM      4  C   UNL     1      -1.442  -2.094  -3.550  0.00  0.00    -0.062 C 
ATOM      5  C   UNL     1      -2.986  -0.250  -3.378  0.00  0.00    +0.025 C 
ATOM      6  C   UNL     1      -2.520  -0.117  -1.955  0.00  0.00    +0.202 C 
ATOM      7  O   UNL     1      -2.876   0.850  -1.315  0.00  0.00    -0.277 OA
ATOM      8  N   UNL     1      -2.815  -1.637  -3.837  0.00  0.00    +0.388 N 
ATOM      9  H   UNL     1      -3.484  -2.243  -3.348  0.00  0.00    -0.085 HD
ATOM     10  H   UNL     1      -2.986  -1.685  -4.848  0.00  0.00    -0.085 HD
BRANCH   2  11
ATOM     11  C   UNL     1      -1.293  -0.775   0.011  0.00  0.00    +0.142 C 
BRANCH  11  15
ATOM     12  C   UNL     1       2.377   1.411  -0.015  0.00  0.00    +0.000 A 
ATOM     13  C   UNL     1       1.171   2.086   0.002  0.00  0.00    +0.000 A 
ATOM     14  C   UNL     1      -0.017   1.378   0.010  0.00  0.00    +0.005 A 
ATOM     15  C   UNL     1       0.002  -0.004   0.002  0.00  0.00    -0.030 A 
ATOM     16  C   UNL     1       1.208  -0.679  -0.013  0.00  0.00    +0.005 A 
ATOM     17  C   UNL     1       2.396   0.029  -0.022  0.00  0.00    +0.000 A 
ENDBRANCH  11  15
ENDBRANCH   2  11
ENDBRANCH   1   5
BRANCH   1  18
ATOM     18  C   UNL     1      -4.908   0.124  -4.899  0.00  0.00    +0.231 C 
ATOM     19  O   UNL     1      -4.117  -0.154  -5.776  0.00  0.00    -0.274 OA
ATOM     20  N   UNL     1      -6.183   0.430  -5.215  0.00  0.00    -0.207 N 
ATOM     21  H   UNL     1      -6.815   0.652  -4.514  0.00  0.00    +0.177 HD
BRANCH  20  22
ATOM     22  N   UNL     1      -6.593   0.426  -6.554  0.00  0.00    -0.188 NA
ATOM     23  C   UNL     1      -7.820   0.720  -6.858  0.00  0.00    +0.142 C 
BRANCH  23  24
ATOM     24  C   UNL     1      -8.252   0.716  -8.267  0.00  0.00    +0.039 A 
ATOM     25  C   UNL     1      -9.572   1.032  -8.598  0.00  0.00    +0.033 A 
ATOM     26  C   UNL     1      -9.970   1.027  -9.919  0.00  0.00    +0.043 A 
ATOM     27  C   UNL     1      -9.066   0.709 -10.920  0.00  0.00    +0.043 A 
ATOM     28  C   UNL     1      -7.756   0.395 -10.604  0.00  0.00    +0.084 A 
ATOM     29  C   UNL     1      -7.339   0.401  -9.282  0.00  0.00    +0.144 A 
ATOM     30 CL   UNL     1      -6.632  -0.002 -11.866  0.00  0.00    -0.080 Cl
ATOM     31 CL   UNL     1     -11.610   1.419 -10.329  0.00  0.00    -0.083 Cl
BRANCH  29  32
ATOM     32  O   UNL     1      -6.052   0.098  -8.972  0.00  0.00    -0.505 OA
ATOM     33  H   UNL     1      -5.897  -0.844  -8.813  0.00  0.00    +0.292 HD
ENDBRANCH  29  32
ENDBRANCH  23  24
ENDBRANCH  20  22
ENDBRANCH   1  18
TORSDOF 7
