REMARK  Name = ZINC63399430
REMARK  4 active torsions:
REMARK  status: ('A' for Active; 'I' for Inactive)
REMARK    1  A    between atoms: C_6  and  S_10
REMARK    2  A    between atoms: S_10  and  C_11
REMARK    3  A    between atoms: C_14  and  C_16
REMARK    4  A    between atoms: N_23  and  C_26
REMARK                            x       y       z     vdW  Elec       q    Type
REMARK                         _______ _______ _______ _____ _____    ______ ____
ROOT
ATOM      1  C   UNL     1       2.903  -2.126  -3.065  0.00  0.00    +0.165 A 
ATOM      2  C   UNL     1       3.432  -2.345  -4.326  0.00  0.00    +0.057 A 
ATOM      3  C   UNL     1       2.993  -1.311  -5.139  0.00  0.00    +0.050 A 
ATOM      4  C   UNL     1       2.200  -0.481  -4.343  0.00  0.00    +0.130 A 
ATOM      5  O   UNL     1       2.164  -1.007  -3.096  0.00  0.00    -0.449 OA
ENDROOT
BRANCH   4   6
ATOM      6  C   UNL     1       1.557   0.679  -4.760  0.00  0.00    +0.064 C 
ATOM      7  C   UNL     1       1.557   1.815  -3.937  0.00  0.00    +0.105 C 
ATOM      8  C   UNL     1       0.759   2.948  -4.247  0.00  0.00    +0.277 C 
ATOM      9  O   UNL     1      -0.022   2.954  -5.349  0.00  0.00    -0.268 OA
ATOM     10  N   UNL     1       0.791   3.998  -3.442  0.00  0.00    -0.123 NA
ATOM     11  C   UNL     1       1.547   4.028  -2.349  0.00  0.00    +0.340 C 
ATOM     12  O   UNL     1       1.527   5.028  -1.652  0.00  0.00    -0.250 OA
ATOM     13  N   UNL     1       2.332   3.002  -1.979  0.00  0.00    -0.186 N 
ATOM     14  C   UNL     1       2.378   1.874  -2.720  0.00  0.00    +0.264 C 
ATOM     15  O   UNL     1       3.082   0.936  -2.392  0.00  0.00    -0.269 OA
BRANCH  13  16
ATOM     16  C   UNL     1       3.104   3.101  -0.813  0.00  0.00    +0.081 A 
ATOM     17  C   UNL     1       2.555   2.759   0.415  0.00  0.00    +0.027 A 
ATOM     18  C   UNL     1       3.318   2.857   1.563  0.00  0.00    +0.002 A 
ATOM     19  C   UNL     1       4.628   3.296   1.490  0.00  0.00    +0.003 A 
ATOM     20  C   UNL     1       5.178   3.638   0.269  0.00  0.00    +0.040 A 
ATOM     21  C   UNL     1       4.422   3.537  -0.885  0.00  0.00    +0.145 A 
ATOM     22  F   UNL     1       4.962   3.866  -2.079  0.00  0.00    -0.204 F 
ENDBRANCH  13  16
ENDBRANCH   4   6
BRANCH   1  23
ATOM     23  S   UNL     1       3.154  -3.152  -1.655  0.00  0.00    -0.042 S 
BRANCH  23  29
ATOM     24  C   UNL     1      -1.327  -4.596  -5.075  0.00  0.00    +0.002 A 
ATOM     25  C   UNL     1      -2.011  -3.652  -4.288  0.00  0.00    +0.002 A 
ATOM     26  C   UNL     1      -1.524  -3.191  -3.119  0.00  0.00    +0.027 A 
ATOM     27  C   UNL     1      -0.228  -3.681  -2.629  0.00  0.00    +0.061 A 
ATOM     28  N   UNL     1       0.472  -3.420  -1.563  0.00  0.00    -0.355 N 
ATOM     29  C   UNL     1       1.695  -4.229  -1.630  0.00  0.00    +0.243 C 
ATOM     30  N   UNL     1       1.615  -4.998  -2.879  0.00  0.00    -0.355 N 
ATOM     31  C   UNL     1       0.496  -4.680  -3.462  0.00  0.00    +0.061 A 
ATOM     32  C   UNL     1      -0.133  -5.110  -4.719  0.00  0.00    +0.027 A 
ATOM     33  H   UNL     1       0.230  -2.804  -0.855  0.00  0.00    +0.162 HD
ATOM     34  H   UNL     1       2.276  -5.627  -3.209  0.00  0.00    +0.162 HD
ENDBRANCH  23  29
ENDBRANCH   1  23
TORSDOF 4
