REMARK  Name = ZINC09103286
REMARK  8 active torsions:
REMARK  status: ('A' for Active; 'I' for Inactive)
REMARK    1  A    between atoms: C_3  and  C_6
REMARK    2  A    between atoms: C_6  and  C_8
REMARK    3  A    between atoms: C_6  and  S_23
REMARK    4  A    between atoms: C_8  and  N_9
REMARK    5  A    between atoms: C_10  and  C_12
REMARK    6  A    between atoms: N_14  and  C_15
REMARK    7  A    between atoms: C_15  and  C_16
REMARK    8  A    between atoms: S_23  and  C_26
REMARK                            x       y       z     vdW  Elec       q    Type
REMARK                         _______ _______ _______ _____ _____    ______ ____
ROOT
ATOM      1  C   UNL     1       0.002  -0.004   0.002  0.00  0.00    +0.189 C 
ENDROOT
BRANCH   1   4
ATOM      2  C   UNL     1      -3.213  -1.677   1.176  0.00  0.00    +0.008 A 
ATOM      3  C   UNL     1      -1.878  -1.319   1.193  0.00  0.00    +0.013 A 
ATOM      4  C   UNL     1      -1.397  -0.526   0.204  0.00  0.00    +0.016 A 
ATOM      5  S   UNL     1      -2.853  -0.255  -0.793  0.00  0.00    -0.100 S 
ATOM      6  C   UNL     1      -4.002  -1.224   0.171  0.00  0.00    +0.045 A 
ENDBRANCH   1   4
BRANCH   1   7
ATOM      7  S   UNL     1      -0.022   1.810   0.012  0.00  0.00    +0.006 S 
ATOM      8  O   UNL     1       1.305   2.317   0.002  0.00  0.00    -0.169 OA
ATOM      9  O   UNL     1      -0.989   2.291  -0.912  0.00  0.00    -0.169 OA
BRANCH   7  10
ATOM     10  C   UNL     1      -0.659   2.245   1.596  0.00  0.00    +0.093 A 
ATOM     11  C   UNL     1       0.205   2.428   2.660  0.00  0.00    +0.031 A 
ATOM     12  C   UNL     1      -0.289   2.771   3.905  0.00  0.00    +0.051 A 
ATOM     13  C   UNL     1      -1.652   2.930   4.090  0.00  0.00    +0.166 A 
ATOM     14  C   UNL     1      -2.523   2.746   3.018  0.00  0.00    +0.168 A 
ATOM     15  C   UNL     1      -2.020   2.409   1.772  0.00  0.00    +0.076 A 
ATOM     16  O   UNL     1      -3.800   2.959   3.452  0.00  0.00    -0.453 OA
ATOM     17  C   UNL     1      -3.669   3.673   4.695  0.00  0.00    +0.466 C 
ATOM     18  O   UNL     1      -2.384   3.259   5.194  0.00  0.00    -0.453 OA
ENDBRANCH   7  10
ENDBRANCH   1   7
BRANCH   1  19
ATOM     19  C   UNL     1       0.543  -0.499  -1.341  0.00  0.00    +0.136 C 
BRANCH  19  20
ATOM     20  N   UNL     1       1.903   0.009  -1.537  0.00  0.00    -0.305 N 
ATOM     21  C   UNL     1       2.583  -0.302  -2.659  0.00  0.00    +0.299 C 
ATOM     22  O   UNL     1       2.068  -1.002  -3.506  0.00  0.00    -0.265 OA
ATOM     23  H   UNL     1       2.314   0.568  -0.860  0.00  0.00    +0.149 HD
BRANCH  21  24
ATOM     24  C   UNL     1       3.970   0.216  -2.859  0.00  0.00    +0.299 C 
ATOM     25  O   UNL     1       4.484   0.916  -2.012  0.00  0.00    -0.265 OA
ATOM     26  N   UNL     1       4.650  -0.094  -3.981  0.00  0.00    -0.303 N 
ATOM     27  H   UNL     1       4.239  -0.653  -4.658  0.00  0.00    +0.149 HD
BRANCH  26  28
ATOM     28  C   UNL     1       6.010   0.414  -4.177  0.00  0.00    +0.140 C 
BRANCH  28  29
ATOM     29  C   UNL     1       6.542  -0.074  -5.500  0.00  0.00    -0.030 A 
ATOM     30  C   UNL     1       7.233  -1.270  -5.568  0.00  0.00    +0.006 A 
ATOM     31  C   UNL     1       7.716  -1.720  -6.782  0.00  0.00    +0.020 A 
ATOM     32  C   UNL     1       7.519  -0.969  -7.927  0.00  0.00    +0.041 A 
ATOM     33  C   UNL     1       6.833   0.230  -7.857  0.00  0.00    +0.020 A 
ATOM     34  C   UNL     1       6.345   0.677  -6.643  0.00  0.00    +0.006 A 
ATOM     35 CL   UNL     1       8.132  -1.531  -9.450  0.00  0.00    -0.084 Cl
ENDBRANCH  28  29
ENDBRANCH  26  28
ENDBRANCH  21  24
ENDBRANCH  19  20
ENDBRANCH   1  19
TORSDOF 8
