REMARK  Name = ZINC65803698
REMARK  7 active torsions:
REMARK  status: ('A' for Active; 'I' for Inactive)
REMARK    1  A    between atoms: C_1  and  C_2
REMARK    2  A    between atoms: C_2  and  C_3
REMARK    3  A    between atoms: C_2  and  N_10
REMARK    4  A    between atoms: N_10  and  C_11
REMARK    5  A    between atoms: N_14  and  C_15
REMARK    6  A    between atoms: C_17  and  C_27
REMARK    7  A    between atoms: C_20  and  N_21
REMARK                            x       y       z     vdW  Elec       q    Type
REMARK                         _______ _______ _______ _____ _____    ______ ____
ROOT
ATOM      1  C   UNL     1      -0.305  -2.121   4.131  0.00  0.00    +0.057 A 
ATOM      2  C   UNL     1      -1.550  -2.617   3.793  0.00  0.00    +0.038 A 
ATOM      3  C   UNL     1      -2.286  -3.348   4.730  0.00  0.00    +0.038 A 
ATOM      4  C   UNL     1      -1.761  -3.574   6.005  0.00  0.00    +0.015 A 
ATOM      5  C   UNL     1      -0.520  -3.077   6.338  0.00  0.00    +0.026 A 
ATOM      6  C   UNL     1       0.216  -2.356   5.406  0.00  0.00    +0.051 A 
ENDROOT
BRANCH   1  11
ATOM      7  N   UNL     1       0.849  -0.779   0.978  0.00  0.00    -0.282 N 
ATOM      8  C   UNL     1       1.776   0.258   1.435  0.00  0.00    +0.134 C 
ATOM      9  C   UNL     1       0.216  -1.561   1.875  0.00  0.00    +0.307 C 
ATOM     10  O   UNL     1      -0.554  -2.422   1.496  0.00  0.00    -0.252 OA
ATOM     11  N   UNL     1       0.437  -1.388   3.194  0.00  0.00    -0.268 N 
ATOM     12  H   UNL     1       1.108  -0.756   3.494  0.00  0.00    +0.156 HD
BRANCH   7  14
ATOM     13  C   UNL     1       0.156   0.356  -1.075  0.00  0.00    +0.033 C 
ATOM     14  C   UNL     1       0.609  -0.968  -0.455  0.00  0.00    +0.107 C 
BRANCH  14  15
ATOM     15  C   UNL     1       1.881  -1.425  -1.121  0.00  0.00    +0.008 A 
ATOM     16  C   UNL     1       2.610  -0.544  -1.897  0.00  0.00    +0.008 A 
ATOM     17  C   UNL     1       3.777  -0.963  -2.509  0.00  0.00    +0.000 A 
ATOM     18  C   UNL     1       4.216  -2.264  -2.345  0.00  0.00    +0.003 A 
ATOM     19  C   UNL     1       3.489  -3.146  -1.569  0.00  0.00    +0.039 A 
ATOM     20  C   UNL     1       2.322  -2.726  -0.952  0.00  0.00    +0.128 A 
ATOM     21  F   UNL     1       1.613  -3.587  -0.189  0.00  0.00    -0.205 F 
ENDBRANCH  14  15
ENDBRANCH   7  14
ENDBRANCH   1  11
BRANCH   6  22
ATOM     22  N   UNL     1       1.473  -1.861   5.745  0.00  0.00    -0.328 N 
ATOM     23  C   UNL     1       1.615  -0.528   6.348  0.00  0.00    +0.105 C 
ATOM     24  C   UNL     1       2.414  -0.658   7.648  0.00  0.00    +0.019 C 
ATOM     25  C   UNL     1       3.742  -1.362   7.359  0.00  0.00    +0.003 C 
ATOM     26  C   UNL     1       3.469  -2.767   6.817  0.00  0.00    +0.019 C 
ATOM     27  C   UNL     1       2.682  -2.664   5.513  0.00  0.00    +0.105 C 
ENDBRANCH   6  22
BRANCH   3  28
ATOM     28  C   UNL     1      -3.615  -3.879   4.373  0.00  0.00    +0.242 C 
ATOM     29  O   UNL     1      -4.071  -3.681   3.263  0.00  0.00    -0.270 OA
ATOM     30  N   UNL     1      -4.324  -4.583   5.277  0.00  0.00    -0.325 N 
ATOM     31  H   UNL     1      -3.961  -4.740   6.163  0.00  0.00    +0.145 HD
ATOM     32  H   UNL     1      -5.198  -4.932   5.043  0.00  0.00    +0.145 HD
ENDBRANCH   3  28
TORSDOF 5
