REMARK  Name = ZINC03663720
REMARK  7 active torsions:
REMARK  status: ('A' for Active; 'I' for Inactive)
REMARK    1  A    between atoms: C_1  and  C_2
REMARK    2  A    between atoms: C_2  and  C_4
REMARK    3  A    between atoms: C_2  and  O_17
REMARK    4  A    between atoms: N_6  and  N_7
REMARK    5  A    between atoms: C_8  and  C_9
REMARK    6  A    between atoms: C_14  and  O_15
REMARK    7  A    between atoms: O_17  and  C_18
REMARK                            x       y       z     vdW  Elec       q    Type
REMARK                         _______ _______ _______ _____ _____    ______ ____
ROOT
ATOM      1  C   UNL     1      -4.769  -0.034   0.216  0.00  0.00    +0.273 C 
ATOM      2  O   UNL     1      -4.870   1.161   0.033  0.00  0.00    -0.270 OA
ATOM      3  N   UNL     1      -3.551  -0.590   0.375  0.00  0.00    -0.204 N 
ATOM      4  H   UNL     1      -3.459  -1.674   0.541  0.00  0.00    +0.177 HD
ENDROOT
BRANCH   1   6
ATOM      5  C   UNL     1      -5.993  -1.872  -0.912  0.00  0.00    +0.062 C 
ATOM      6  C   UNL     1      -6.003  -0.896   0.267  0.00  0.00    +0.257 C 
BRANCH   6   7
ATOM      7  O   UNL     1      -7.166  -0.069   0.190  0.00  0.00    -0.479 OA
BRANCH   7   8
ATOM      8  C   UNL     1      -8.312  -0.564   0.728  0.00  0.00    +0.135 A 
ATOM      9  C   UNL     1      -8.347  -1.863   1.214  0.00  0.00    +0.047 A 
ATOM     10  C   UNL     1      -9.513  -2.363   1.760  0.00  0.00    +0.004 A 
ATOM     11  C   UNL     1     -10.645  -1.571   1.823  0.00  0.00    +0.001 A 
ATOM     12  C   UNL     1     -10.613  -0.276   1.340  0.00  0.00    +0.019 A 
ATOM     13  C   UNL     1      -9.448   0.231   0.796  0.00  0.00    +0.059 A 
ATOM     14 BR   UNL     1      -9.402   2.005   0.141  0.00  0.00    -0.047 Br
ENDBRANCH   7   8
ENDBRANCH   6   7
ENDBRANCH   1   6
BRANCH   3  15
ATOM     15  N   UNL     1      -2.403   0.211   0.328  0.00  0.00    -0.188 NA
ATOM     16  C   UNL     1      -1.231  -0.324   0.480  0.00  0.00    +0.142 C 
BRANCH  16  17
ATOM     17  C   UNL     1      -0.023   0.519   0.431  0.00  0.00    +0.037 A 
ATOM     18  C   UNL     1       1.240  -0.053   0.595  0.00  0.00    +0.028 A 
ATOM     19  C   UNL     1       2.366   0.742   0.548  0.00  0.00    +0.019 A 
ATOM     20  C   UNL     1       2.249   2.107   0.339  0.00  0.00    +0.019 A 
ATOM     21  C   UNL     1       1.005   2.684   0.174  0.00  0.00    +0.047 A 
ATOM     22  C   UNL     1      -0.137   1.900   0.219  0.00  0.00    +0.126 A 
ATOM     23 BR   UNL     1       4.077  -0.033   0.771  0.00  0.00    -0.050 Br
BRANCH  22  24
ATOM     24  O   UNL     1      -1.360   2.466   0.052  0.00  0.00    -0.506 OA
ATOM     25  H   UNL     1      -1.446   3.550  -0.114  0.00  0.00    +0.292 HD
ENDBRANCH  22  24
ENDBRANCH  16  17
ENDBRANCH   3  15
TORSDOF 6
