REMARK  Name = ZINC39530623
REMARK  10 active torsions:
REMARK  status: ('A' for Active; 'I' for Inactive)
REMARK    1  A    between atoms: C_1  and  C_2
REMARK    2  A    between atoms: C_2  and  O_3
REMARK    3  A    between atoms: O_3  and  C_4
REMARK    4  A    between atoms: N_7  and  C_11
REMARK    5  A    between atoms: C_14  and  S_27
REMARK    6  A    between atoms: C_16  and  S_17
REMARK    7  A    between atoms: S_17  and  O_20
REMARK    8  A    between atoms: O_20  and  C_21
REMARK    9  A    between atoms: S_27  and  O_30
REMARK   10  A    between atoms: O_30  and  C_31
REMARK                            x       y       z     vdW  Elec       q    Type
REMARK                         _______ _______ _______ _____ _____    ______ ____
ROOT
ATOM      1  C   UNL     1      -3.529  -4.899  -1.163  0.00  0.00    +0.059 A 
ATOM      2  C   UNL     1      -2.725  -5.546  -2.094  0.00  0.00    +0.027 A 
ATOM      3  C   UNL     1      -3.304  -6.280  -3.110  0.00  0.00    +0.032 A 
ATOM      4  C   UNL     1      -4.681  -6.372  -3.202  0.00  0.00    +0.130 A 
ATOM      5  C   UNL     1      -5.483  -5.730  -2.277  0.00  0.00    +0.063 A 
ATOM      6  C   UNL     1      -4.911  -4.998  -1.254  0.00  0.00    +0.151 A 
ENDROOT
BRANCH   1   9
ATOM      7  C   UNL     1      -1.198  -2.471   0.086  0.00  0.00    +0.203 C 
ATOM      8  C   UNL     1      -2.658  -2.724  -0.306  0.00  0.00    +0.153 C 
ATOM      9  N   UNL     1      -2.947  -4.156  -0.133  0.00  0.00    -0.323 N 
ATOM     10  C   UNL     1      -2.607  -4.784   1.153  0.00  0.00    +0.120 C 
ATOM     11  C   UNL     1      -1.149  -4.450   1.487  0.00  0.00    +0.102 C 
ATOM     12  N   UNL     1      -0.959  -2.994   1.438  0.00  0.00    -0.289 NA
ATOM     13  H   UNL     1      -0.041  -2.737   1.767  0.00  0.00    +0.124 HD
BRANCH   7  14
ATOM     14  O   UNL     1      -0.935  -1.067   0.064  0.00  0.00    -0.361 OA
BRANCH  14  16
ATOM     15  C   UNL     1       0.617   0.786   0.056  0.00  0.00    +0.034 C 
ATOM     16  C   UNL     1       0.455  -0.735   0.081  0.00  0.00    +0.158 C 
ENDBRANCH  14  16
ENDBRANCH   7  14
ENDBRANCH   1   9
BRANCH   6  17
ATOM     17  S   UNL     1      -5.934  -4.186  -0.072  0.00  0.00    +0.153 S 
ATOM     18  O   UNL     1      -6.236  -5.146   0.931  0.00  0.00    -0.131 OA
ATOM     19  O   UNL     1      -5.306  -2.946   0.225  0.00  0.00    -0.131 OA
BRANCH  17  20
ATOM     20  O   UNL     1      -7.247  -3.854  -0.766  0.00  0.00    -0.342 OA
BRANCH  20  21
ATOM     21  C   UNL     1      -7.172  -2.796  -1.615  0.00  0.00    +0.157 A 
ATOM     22  C   UNL     1      -7.308  -1.504  -1.128  0.00  0.00    +0.048 A 
ATOM     23  C   UNL     1      -7.230  -0.429  -1.994  0.00  0.00    +0.004 A 
ATOM     24  C   UNL     1      -7.018  -0.641  -3.343  0.00  0.00    +0.000 A 
ATOM     25  C   UNL     1      -6.882  -1.928  -3.830  0.00  0.00    +0.004 A 
ATOM     26  C   UNL     1      -6.953  -3.005  -2.969  0.00  0.00    +0.048 A 
ENDBRANCH  20  21
ENDBRANCH  17  20
ENDBRANCH   6  17
BRANCH   4  27
ATOM     27  S   UNL     1      -5.414  -7.311  -4.500  0.00  0.00    +0.151 S 
ATOM     28  O   UNL     1      -6.724  -6.792  -4.686  0.00  0.00    -0.131 OA
ATOM     29  O   UNL     1      -4.460  -7.364  -5.552  0.00  0.00    -0.131 OA
BRANCH  27  30
ATOM     30  O   UNL     1      -5.579  -8.735  -3.989  0.00  0.00    -0.342 OA
BRANCH  30  31
ATOM     31  C   UNL     1      -6.599  -8.890  -3.106  0.00  0.00    +0.157 A 
ATOM     32  C   UNL     1      -6.373  -8.726  -1.747  0.00  0.00    +0.048 A 
ATOM     33  C   UNL     1      -7.412  -8.884  -0.851  0.00  0.00    +0.004 A 
ATOM     34  C   UNL     1      -8.677  -9.207  -1.307  0.00  0.00    +0.000 A 
ATOM     35  C   UNL     1      -8.905  -9.373  -2.660  0.00  0.00    +0.004 A 
ATOM     36  C   UNL     1      -7.870  -9.209  -3.561  0.00  0.00    +0.048 A 
ENDBRANCH  30  31
ENDBRANCH  27  30
ENDBRANCH   4  27
TORSDOF 9
