REMARK  Name = ZINC36818801
REMARK  8 active torsions:
REMARK  status: ('A' for Active; 'I' for Inactive)
REMARK    1  A    between atoms: C_1  and  C_2
REMARK    2  A    between atoms: C_2  and  C_4
REMARK    3  A    between atoms: C_2  and  N_12
REMARK    4  A    between atoms: C_13  and  C_15
REMARK    5  A    between atoms: C_15  and  N_16
REMARK    6  A    between atoms: C_19  and  C_23
REMARK    7  A    between atoms: C_19  and  C_24
REMARK    8  A    between atoms: C_27  and  N_30
REMARK                            x       y       z     vdW  Elec       q    Type
REMARK                         _______ _______ _______ _____ _____    ______ ____
ROOT
ATOM      1  N   UNL     1       4.296  -1.267  -1.883  0.00  0.00    -0.215 N 
ATOM      2  C   UNL     1       5.191  -0.270  -2.022  0.00  0.00    +0.251 C 
ATOM      3  O   UNL     1       4.985   0.845  -2.452  0.00  0.00    -0.272 OA
ATOM      4  C   UNL     1       6.510  -0.831  -1.528  0.00  0.00    +0.135 C 
ATOM      5  N   UNL     1       6.173  -2.208  -1.131  0.00  0.00    -0.281 N 
ATOM      6  C   UNL     1       4.859  -2.368  -1.371  0.00  0.00    +0.310 C 
ATOM      7  O   UNL     1       4.251  -3.397  -1.150  0.00  0.00    -0.252 OA
ATOM      8  C   UNL     1       7.018  -0.033  -0.326  0.00  0.00    +0.047 C 
ATOM      9  H   UNL     1       6.779  -2.871  -0.765  0.00  0.00    +0.152 HD
ENDROOT
BRANCH   4  10
ATOM     10  C   UNL     1       7.533  -0.833  -2.635  0.00  0.00    -0.015 A 
ATOM     11  C   UNL     1       7.481   0.129  -3.626  0.00  0.00    +0.008 A 
ATOM     12  C   UNL     1       8.419   0.127  -4.641  0.00  0.00    +0.033 A 
ATOM     13  C   UNL     1       9.410  -0.837  -4.665  0.00  0.00    +0.126 A 
ATOM     14  C   UNL     1       9.463  -1.798  -3.672  0.00  0.00    +0.033 A 
ATOM     15  C   UNL     1       8.527  -1.793  -2.655  0.00  0.00    +0.008 A 
BRANCH  13  16
ATOM     16  N   UNL     1      10.414  -0.840  -5.752  0.00  0.00    +0.056 N 
ATOM     17  O   UNL     1      10.368   0.000  -6.620  0.00  0.00    -0.126 OA
ATOM     18  O   UNL     1      11.281  -1.683  -5.772  0.00  0.00    -0.126 OA
ENDBRANCH  13  16
ENDBRANCH   4  10
BRANCH   1  19
ATOM     19  C   UNL     1       2.880  -1.158  -2.243  0.00  0.00    +0.213 C 
BRANCH  19  21
ATOM     20  N   UNL     1       0.764  -0.485  -1.153  0.00  0.00    -0.307 N 
ATOM     21  C   UNL     1       2.096  -0.663  -1.055  0.00  0.00    +0.231 C 
ATOM     22  O   UNL     1       2.664  -0.425  -0.010  0.00  0.00    -0.274 OA
ATOM     23  H   UNL     1       0.309  -0.676  -1.988  0.00  0.00    +0.149 HD
BRANCH  20  25
ATOM     24  C   UNL     1       0.009   1.526   0.016  0.00  0.00    +0.033 C 
ATOM     25  C   UNL     1       0.002  -0.004   0.002  0.00  0.00    +0.102 C 
BRANCH  25  26
ATOM     26  C   UNL     1      -1.418  -0.499  -0.091  0.00  0.00    -0.009 A 
ATOM     27  C   UNL     1      -1.976  -0.770  -1.327  0.00  0.00    +0.008 A 
ATOM     28  C   UNL     1      -3.278  -1.224  -1.413  0.00  0.00    +0.020 A 
ATOM     29  C   UNL     1      -4.025  -1.408  -0.263  0.00  0.00    +0.042 A 
ATOM     30  C   UNL     1      -3.468  -1.137   0.974  0.00  0.00    +0.040 A 
ATOM     31  C   UNL     1      -2.162  -0.688   1.060  0.00  0.00    +0.047 A 
ATOM     32 CL   UNL     1      -1.460  -0.353   2.612  0.00  0.00    -0.083 Cl
ATOM     33 CL   UNL     1      -5.661  -1.977  -0.372  0.00  0.00    -0.083 Cl
ENDBRANCH  25  26
ENDBRANCH  20  25
ENDBRANCH  19  21
ENDBRANCH   1  19
TORSDOF 6
