REMARK  Name = ZINC44464381
REMARK  12 active torsions:
REMARK  status: ('A' for Active; 'I' for Inactive)
REMARK    1  A    between atoms: C_1  and  N_2
REMARK    2  A    between atoms: C_3  and  S_17
REMARK    3  A    between atoms: C_4  and  C_11
REMARK    4  A    between atoms: C_5  and  C_7
REMARK    5  A    between atoms: C_11  and  CA_12
REMARK    6  A    between atoms: CA_12  and  C_14
REMARK    7  A    between atoms: CA_12  and  N_16
REMARK    8  A    between atoms: C_14  and  O_15
REMARK    9  A    between atoms: S_17  and  C_18
REMARK   10  A    between atoms: C_23  and  C_24
REMARK   11  A    between atoms: C_24  and  O_26
REMARK   12  A    between atoms: O_26  and  C_27
REMARK                            x       y       z     vdW  Elec       q    Type
REMARK                         _______ _______ _______ _____ _____    ______ ____
ROOT
ATOM      1  C   UNL     1      -0.018   1.461   0.010  0.00  0.00    +0.173 C 
ATOM      2  N   UNL     1       0.002  -0.004   0.002  0.00  0.00    -0.260 N 
ATOM      3  C   UNL     1       0.008  -0.799  -1.100  0.00  0.00    +0.103 A 
ATOM      4  C   UNL     1       0.027  -2.092  -0.672  0.00  0.00    +0.015 A 
ATOM      5  C   UNL     1       0.034  -2.080   0.725  0.00  0.00    +0.169 A 
ATOM      6  N   UNL     1       0.025  -0.835   1.129  0.00  0.00    -0.166 NA
ENDROOT
BRANCH   5   7
ATOM      7  C   UNL     1       0.054  -3.295   1.616  0.00  0.00    +0.436 C 
ATOM      8  F   UNL     1       1.379  -3.653   1.886  0.00  0.00    -0.164 F 
ATOM      9  F   UNL     1      -0.604  -3.005   2.816  0.00  0.00    -0.164 F 
ATOM     10  F   UNL     1      -0.594  -4.355   0.974  0.00  0.00    -0.164 F 
ENDBRANCH   5   7
BRANCH   4  11
ATOM     11  C   UNL     1       0.039  -3.317  -1.549  0.00  0.00    +0.026 C 
BRANCH  11  12
ATOM     12  CA  UNL     1       1.486  -3.712  -1.853  0.00  0.00    -0.045 C 
BRANCH  12  13
ATOM     13  N   UNL     1       2.154  -4.118  -0.609  0.00  0.00    +0.382 N 
ATOM     14  H1  UNL     1       1.668  -4.905  -0.207  0.00  0.00    -0.090 HD
ATOM     15  H2  UNL     1       3.108  -4.379  -0.810  0.00  0.00    -0.090 HD
ATOM     16  H3  UNL     1       2.146  -3.349   0.043  0.00  0.00    -0.090 HD
ENDBRANCH  12  13
BRANCH  12  17
ATOM     17  C   UNL     1       1.498  -4.879  -2.843  0.00  0.00    +0.140 C 
BRANCH  17  18
ATOM     18  O   UNL     1       2.846  -5.172  -3.216  0.00  0.00    -0.397 OA
ATOM     19  H   UNL     1       2.930  -5.904  -3.844  0.00  0.00    +0.209 HD
ENDBRANCH  17  18
ENDBRANCH  12  17
ENDBRANCH  11  12
ENDBRANCH   4  11
BRANCH   3  20
ATOM     20  S   UNL     1      -0.008  -0.256  -2.777  0.00  0.00    -0.069 S 
BRANCH  20  21
ATOM     21  C   UNL     1       1.460   0.708  -2.926  0.00  0.00    +0.028 A 
ATOM     22  C   UNL     1       2.305   0.869  -1.834  0.00  0.00    +0.016 A 
ATOM     23  C   UNL     1       3.452   1.625  -1.954  0.00  0.00    +0.001 A 
ATOM     24  C   UNL     1       3.773   2.229  -3.159  0.00  0.00    +0.001 A 
ATOM     25  C   UNL     1       2.949   2.082  -4.253  0.00  0.00    +0.016 A 
ATOM     26  C   UNL     1       1.785   1.315  -4.151  0.00  0.00    +0.073 A 
BRANCH  26  27
ATOM     27  C   UNL     1       0.902   1.148  -5.318  0.00  0.00    +0.340 C 
ATOM     28  O   UNL     1      -0.112   0.484  -5.223  0.00  0.00    -0.245 OA
BRANCH  27  29
ATOM     29  O   UNL     1       1.218   1.732  -6.491  0.00  0.00    -0.464 OA
ATOM     30  C   UNL     1       0.317   1.528  -7.581  0.00  0.00    +0.280 C 
ENDBRANCH  27  29
ENDBRANCH  26  27
ENDBRANCH  20  21
ENDBRANCH   3  20
TORSDOF 10
