REMARK  Name = ZINC20673823
REMARK  2 active torsions:
REMARK  status: ('A' for Active; 'I' for Inactive)
REMARK    1  A    between atoms: C_1  and  C_2
REMARK    2  A    between atoms: C_5  and  C_8
REMARK                            x       y       z     vdW  Elec       q    Type
REMARK                         _______ _______ _______ _____ _____    ______ ____
ROOT
ATOM      1  C   UNL     1      -2.530   1.169   0.040  0.00  0.00    +0.092 C 
ATOM      2  C   UNL     1      -1.228   1.913   0.018  0.00  0.00    +0.069 A 
ATOM      3  C   UNL     1      -0.015   1.217   0.009  0.00  0.00    +0.259 A 
ATOM      4  O   UNL     1       0.002  -0.004   0.002  0.00  0.00    -0.267 OA
ATOM      5  N   UNL     1       1.137   1.920   0.002  0.00  0.00    -0.295 N 
ATOM      6  H   UNL     1       2.103   1.394  -0.010  0.00  0.00    +0.172 HD
ATOM      7  C   UNL     1       1.107   3.281   0.009  0.00  0.00    +0.200 A 
ATOM      8  N   UNL     1      -0.031   3.941   0.021  0.00  0.00    -0.200 NA
ATOM      9  C   UNL     1      -1.204   3.297   0.028  0.00  0.00    +0.136 A 
ATOM     10  N   UNL     1      -2.391   4.002   0.035  0.00  0.00    -0.302 N 
ATOM     11  C   UNL     1      -3.560   3.403  -0.348  0.00  0.00    +0.017 C 
ATOM     12  C   UNL     1      -3.676   2.059  -0.371  0.00  0.00    +0.024 C 
ATOM     13  C   UNL     1      -4.872   1.443  -0.781  0.00  0.00    +0.162 C 
ATOM     14  O   UNL     1      -4.946   0.230  -0.782  0.00  0.00    -0.292 OA
ATOM     15  C   UNL     1      -6.059   2.254  -1.219  0.00  0.00    +0.080 C 
ATOM     16  C   UNL     1      -5.568   3.584  -1.799  0.00  0.00    +0.014 C 
ATOM     17  C   UNL     1      -4.718   4.289  -0.740  0.00  0.00    +0.051 C 
ATOM     18  N   UNL     1       2.286   3.977   0.004  0.00  0.00    -0.297 N 
ATOM     19  C   UNL     1       3.184   3.502   1.067  0.00  0.00    +0.136 C 
ATOM     20  C   UNL     1       4.509   4.264   0.987  0.00  0.00    +0.179 C 
ATOM     21  O   UNL     1       4.252   5.668   1.083  0.00  0.00    -0.377 OA
ATOM     22  C   UNL     1       3.382   6.165   0.063  0.00  0.00    +0.179 C 
ATOM     23  C   UNL     1       2.046   5.422   0.133  0.00  0.00    +0.136 C 
ATOM     24  H   UNL     1      -2.403   5.056   0.351  0.00  0.00    +0.153 HD
ENDROOT
BRANCH   1  29
ATOM     25  C   UNL     1      -3.504  -0.825   5.376  0.00  0.00    +0.044 C 
ATOM     26  C   UNL     1      -3.250  -0.305   3.985  0.00  0.00    -0.050 A 
ATOM     27  C   UNL     1      -3.112  -1.189   2.931  0.00  0.00    +0.003 A 
ATOM     28  C   UNL     1      -2.880  -0.712   1.654  0.00  0.00    +0.005 A 
ATOM     29  C   UNL     1      -2.784   0.649   1.432  0.00  0.00    -0.035 A 
ATOM     30  C   UNL     1      -2.917   1.533   2.487  0.00  0.00    +0.005 A 
ATOM     31  C   UNL     1      -3.154   1.056   3.762  0.00  0.00    +0.003 A 
ENDBRANCH   1  29
TORSDOF 1
