REMARK  Name = ZINC08759682
REMARK  6 active torsions:
REMARK  status: ('A' for Active; 'I' for Inactive)
REMARK    1  A    between atoms: C_1  and  O_2
REMARK    2  A    between atoms: O_2  and  C_3
REMARK    3  A    between atoms: C_11  and  S_13
REMARK    4  A    between atoms: S_13  and  C_14
REMARK    5  A    between atoms: C_14  and  C_15
REMARK    6  A    between atoms: C_21  and  C_26
REMARK                            x       y       z     vdW  Elec       q    Type
REMARK                         _______ _______ _______ _____ _____    ______ ____
ROOT
ATOM      1  C   UNL     1      -7.873  -6.035   0.050  0.00  0.00    +0.121 A 
ATOM      2  N   UNL     1      -9.210  -5.801   0.054  0.00  0.00    -0.310 N 
ATOM      3  H   UNL     1      -9.532  -4.886   0.054  0.00  0.00    +0.170 HD
ATOM      4  C   UNL     1     -10.097  -6.813   0.058  0.00  0.00    +0.260 A 
ATOM      5  O   UNL     1     -11.295  -6.586   0.062  0.00  0.00    -0.267 OA
ATOM      6  C   UNL     1      -9.613  -8.160   0.058  0.00  0.00    +0.080 A 
ATOM      7  C   UNL     1     -10.363  -9.410   0.061  0.00  0.00    +0.005 A 
ATOM      8  C   UNL     1      -9.680 -10.580   0.059  0.00  0.00    +0.056 A 
ATOM      9  S   UNL     1      -7.975 -10.062   0.053  0.00  0.00    -0.076 S 
ATOM     10  C   UNL     1      -8.216  -8.304   0.053  0.00  0.00    +0.116 A 
ATOM     11  N   UNL     1      -7.401  -7.253   0.044  0.00  0.00    -0.226 NA
ENDROOT
BRANCH   7  12
ATOM     12  C   UNL     1     -11.846  -9.401   0.067  0.00  0.00    +0.002 A 
ATOM     13  C   UNL     1     -12.544  -9.901   1.165  0.00  0.00    +0.010 A 
ATOM     14  C   UNL     1     -13.924  -9.890   1.165  0.00  0.00    +0.001 A 
ATOM     15  C   UNL     1     -14.615  -9.384   0.078  0.00  0.00    +0.001 A 
ATOM     16  C   UNL     1     -13.928  -8.887  -1.015  0.00  0.00    +0.020 A 
ATOM     17  C   UNL     1     -12.547  -8.888  -1.024  0.00  0.00    +0.049 A 
ATOM     18 CL   UNL     1     -11.686  -8.257  -2.393  0.00  0.00    -0.083 Cl
ENDBRANCH   7  12
BRANCH   1  19
ATOM     19  C   UNL     1      -6.917  -4.870   0.045  0.00  0.00    +0.151 C 
BRANCH  19  20
ATOM     20  S   UNL     1      -5.211  -5.488   0.031  0.00  0.00    -0.080 S 
BRANCH  20  29
ATOM     21  C   UNL     1      -1.201  -0.638   0.010  0.00  0.00    +0.122 A 
ATOM     22  C   UNL     1      -2.376   0.107   0.019  0.00  0.00    +0.048 A 
ATOM     23  C   UNL     1      -3.601  -0.522   0.028  0.00  0.00    +0.033 A 
ATOM     24  C   UNL     1      -3.666  -1.917   0.026  0.00  0.00    +0.090 A 
ATOM     25  C   UNL     1      -2.478  -2.666   0.016  0.00  0.00    +0.070 A 
ATOM     26  C   UNL     1      -1.251  -2.021   0.003  0.00  0.00    +0.073 A 
ATOM     27  N   UNL     1      -2.862  -3.998   0.017  0.00  0.00    -0.333 N 
ATOM     28  H   UNL     1      -2.270  -4.767   0.011  0.00  0.00    +0.168 HD
ATOM     29  C   UNL     1      -4.228  -4.026   0.027  0.00  0.00    +0.168 A 
ATOM     30  N   UNL     1      -4.698  -2.803   0.032  0.00  0.00    -0.222 NA
BRANCH  21  32
ATOM     31  C   UNL     1      -0.017   1.425   0.010  0.00  0.00    +0.277 C 
ATOM     32  O   UNL     1       0.002  -0.004   0.002  0.00  0.00    -0.495 OA
ENDBRANCH  21  32
ENDBRANCH  20  29
ENDBRANCH  19  20
ENDBRANCH   1  19
TORSDOF 5
