REMARK  Name = ZINC39597657
REMARK  6 active torsions:
REMARK  status: ('A' for Active; 'I' for Inactive)
REMARK    1  A    between atoms: C_7  and  C_10
REMARK    2  A    between atoms: C_10  and  C_11
REMARK    3  A    between atoms: C_11  and  N_12
REMARK    4  A    between atoms: C_13  and  C_15
REMARK    5  A    between atoms: C_26  and  C_28
REMARK    6  A    between atoms: C_32  and  C_34
REMARK                            x       y       z     vdW  Elec       q    Type
REMARK                         _______ _______ _______ _____ _____    ______ ____
ROOT
ATOM      1  C   UNL     1      -5.924   7.707  -2.245  0.00  0.00    +0.100 C 
ATOM      2  C   UNL     1      -4.786   8.359  -1.428  0.00  0.00    +0.121 C 
ATOM      3  N   UNL     1      -3.867   8.918  -2.447  0.00  0.00    -0.296 N 
ATOM      4  C   UNL     1      -4.765   9.466  -3.492  0.00  0.00    +0.115 C 
ATOM      5  C   UNL     1      -5.910   8.439  -3.597  0.00  0.00    -0.004 C 
ATOM      6  C   UNL     1      -7.239   9.151  -3.827  0.00  0.00    -0.010 C 
ATOM      7  C   UNL     1      -7.222   9.822  -5.203  0.00  0.00    -0.082 C 
ATOM      8  N   UNL     1      -7.000   8.809  -6.242  0.00  0.00    +0.379 N 
ATOM      9  C   UNL     1      -5.679   8.194  -6.067  0.00  0.00    -0.082 C 
ATOM     10  C   UNL     1      -5.631   7.454  -4.728  0.00  0.00    -0.010 C 
ATOM     11  C   UNL     1      -2.520   8.928  -2.428  0.00  0.00    +0.247 C 
ATOM     12  O   UNL     1      -1.920   8.325  -1.558  0.00  0.00    -0.270 OA
ATOM     13  H   UNL     1      -7.712   8.098  -6.173  0.00  0.00    -0.086 HD
ATOM     14  H   UNL     1      -7.050   9.244  -7.151  0.00  0.00    -0.086 HD
ENDROOT
BRANCH  11  15
ATOM     15  C   UNL     1      -1.771   9.670  -3.462  0.00  0.00    +0.038 A 
ATOM     16  C   UNL     1      -2.395  10.693  -4.180  0.00  0.00    +0.016 A 
ATOM     17  C   UNL     1      -1.692  11.382  -5.144  0.00  0.00    +0.039 A 
ATOM     18  C   UNL     1      -0.368  11.062  -5.403  0.00  0.00    +0.135 A 
ATOM     19  C   UNL     1       0.256  10.047  -4.694  0.00  0.00    +0.091 A 
ATOM     20  C   UNL     1      -0.436   9.355  -3.723  0.00  0.00    +0.028 A 
ATOM     21  F   UNL     1       0.316  11.740  -6.350  0.00  0.00    -0.205 F 
BRANCH  19  22
ATOM     22  C   UNL     1       1.695   9.704  -4.981  0.00  0.00    +0.420 C 
ATOM     23  F   UNL     1       2.100   8.656  -4.146  0.00  0.00    -0.166 F 
ATOM     24  F   UNL     1       1.823   9.311  -6.318  0.00  0.00    -0.166 F 
ATOM     25  F   UNL     1       2.498  10.825  -4.745  0.00  0.00    -0.166 F 
ENDBRANCH  19  22
ENDBRANCH  11  15
BRANCH   1  27
ATOM     26  N   UNL     1      -6.674   5.390  -2.683  0.00  0.00    -0.315 N 
ATOM     27  C   UNL     1      -5.654   6.237  -2.441  0.00  0.00    +0.218 C 
ATOM     28  O   UNL     1      -4.518   5.816  -2.380  0.00  0.00    -0.275 OA
ATOM     29  H   UNL     1      -7.583   5.727  -2.731  0.00  0.00    +0.149 HD
BRANCH  26  30
ATOM     30  C   UNL     1      -6.411   3.962  -2.873  0.00  0.00    +0.109 C 
BRANCH  30  31
ATOM     31  C   UNL     1      -7.730   3.230  -3.131  0.00  0.00    +0.056 C 
BRANCH  31  38
ATOM     32  C   UNL     1      -7.230  -0.363  -0.162  0.00  0.00    +0.001 A 
ATOM     33  C   UNL     1      -6.986  -1.567  -0.806  0.00  0.00    +0.002 A 
ATOM     34  C   UNL     1      -6.911  -1.626  -2.181  0.00  0.00    +0.026 A 
ATOM     35  C   UNL     1      -7.082  -0.468  -2.932  0.00  0.00    +0.047 A 
ATOM     36  N   UNL     1      -7.065  -0.203  -4.283  0.00  0.00    -0.360 N 
ATOM     37  C   UNL     1      -7.292   1.129  -4.499  0.00  0.00    +0.087 A 
ATOM     38  C   UNL     1      -7.460   1.761  -3.326  0.00  0.00    -0.021 A 
ATOM     39  C   UNL     1      -7.330   0.751  -2.273  0.00  0.00    +0.003 A 
ATOM     40  C   UNL     1      -7.407   0.786  -0.880  0.00  0.00    +0.010 A 
ATOM     41  H   UNL     1      -6.915  -0.862  -4.979  0.00  0.00    +0.165 HD
ENDBRANCH  31  38
ENDBRANCH  30  31
ENDBRANCH  26  30
ENDBRANCH   1  27
TORSDOF 6
