REMARK  Name = ZINC59505603
REMARK  4 active torsions:
REMARK  status: ('A' for Active; 'I' for Inactive)
REMARK    1  A    between atoms: C_3  and  O_32
REMARK    2  A    between atoms: C_6  and  N_7
REMARK    3  A    between atoms: N_21  and  C_24
REMARK    4  A    between atoms: C_27  and  O_30
REMARK                            x       y       z     vdW  Elec       q    Type
REMARK                         _______ _______ _______ _____ _____    ______ ____
ROOT
ATOM      1  N   UNL     1      -1.203  -0.722   0.010  0.00  0.00    -0.243 N 
ATOM      2  C   UNL     1      -2.425  -0.159   0.019  0.00  0.00    +0.268 A 
ATOM      3  O   UNL     1      -2.656   1.033   0.022  0.00  0.00    -0.267 OA
ATOM      4  C   UNL     1      -3.440  -1.235   0.026  0.00  0.00    +0.073 A 
ATOM      5  C   UNL     1      -2.719  -2.445   0.020  0.00  0.00    +0.073 A 
ATOM      6  C   UNL     1      -1.290  -2.065   0.004  0.00  0.00    +0.268 A 
ATOM      7  O   UNL     1      -0.351  -2.835  -0.010  0.00  0.00    -0.267 OA
ATOM      8  C   UNL     1      -3.393  -3.662   0.024  0.00  0.00    +0.067 A 
ATOM      9  C   UNL     1      -4.784  -3.676   0.034  0.00  0.00    +0.073 A 
ATOM     10  C   UNL     1      -5.505  -2.466   0.040  0.00  0.00    +0.073 A 
ATOM     11  C   UNL     1      -4.830  -1.249   0.036  0.00  0.00    +0.067 A 
ATOM     12 CL   UNL     1      -5.719   0.242   0.045  0.00  0.00    -0.082 Cl
ATOM     13  C   UNL     1      -6.934  -2.846   0.049  0.00  0.00    +0.268 A 
ATOM     14  O   UNL     1      -7.873  -2.076   0.057  0.00  0.00    -0.267 OA
ATOM     15  N   UNL     1      -7.020  -4.189   0.049  0.00  0.00    -0.243 N 
ATOM     16  C   UNL     1      -5.799  -4.752   0.040  0.00  0.00    +0.268 A 
ATOM     17  O   UNL     1      -5.568  -5.944   0.037  0.00  0.00    -0.267 OA
ATOM     18 CL   UNL     1      -2.504  -5.153   0.015  0.00  0.00    -0.082 Cl
ENDROOT
BRANCH   1  24
ATOM     19  C   UNL     1      -0.017   1.384   0.010  0.00  0.00    +0.030 A 
ATOM     20  C   UNL     1       1.170   2.090   0.002  0.00  0.00    +0.047 A 
ATOM     21  C   UNL     1       2.380   1.413  -0.013  0.00  0.00    +0.117 A 
ATOM     22  C   UNL     1       2.400   0.026  -0.021  0.00  0.00    +0.047 A 
ATOM     23  C   UNL     1       1.214  -0.681  -0.014  0.00  0.00    +0.030 A 
ATOM     24  C   UNL     1       0.002  -0.004   0.002  0.00  0.00    +0.053 A 
BRANCH  21  25
ATOM     25  O   UNL     1       3.548   2.109  -0.021  0.00  0.00    -0.507 OA
ATOM     26  H   UNL     1       3.895   2.306   0.860  0.00  0.00    +0.292 HD
ENDBRANCH  21  25
ENDBRANCH   1  24
BRANCH  15  27
ATOM     27  C   UNL     1      -8.226  -4.907   0.057  0.00  0.00    +0.053 A 
ATOM     28  C   UNL     1      -9.437  -4.230   0.061  0.00  0.00    +0.030 A 
ATOM     29  C   UNL     1     -10.623  -4.937   0.068  0.00  0.00    +0.047 A 
ATOM     30  C   UNL     1     -10.604  -6.324   0.072  0.00  0.00    +0.117 A 
ATOM     31  C   UNL     1      -9.393  -7.001   0.068  0.00  0.00    +0.047 A 
ATOM     32  C   UNL     1      -8.207  -6.295   0.055  0.00  0.00    +0.030 A 
BRANCH  30  33
ATOM     33  O   UNL     1     -11.772  -7.020   0.080  0.00  0.00    -0.507 OA
ATOM     34  H   UNL     1     -12.114  -7.224  -0.802  0.00  0.00    +0.292 HD
ENDBRANCH  30  33
ENDBRANCH  15  27
TORSDOF 4
