REMARK  Name = ZINC63869763
REMARK  3 active torsions:
REMARK  status: ('A' for Active; 'I' for Inactive)
REMARK    1  A    between atoms: C_1  and  C_2
REMARK    2  A    between atoms: C_5  and  N_9
REMARK    3  A    between atoms: C_15  and  N_18
REMARK                            x       y       z     vdW  Elec       q    Type
REMARK                         _______ _______ _______ _____ _____    ______ ____
ROOT
ATOM      1  N   UNL     1       1.343  -4.594  -1.727  0.00  0.00    -0.274 N 
ATOM      2  C   UNL     1       2.158  -3.679  -2.287  0.00  0.00    +0.304 C 
ATOM      3  O   UNL     1       1.947  -2.493  -2.119  0.00  0.00    -0.253 OA
ATOM      4  N   UNL     1       3.207  -4.077  -3.033  0.00  0.00    -0.285 N 
ATOM      5  C   UNL     1       4.171  -3.098  -3.553  0.00  0.00    +0.111 C 
ATOM      6  C   UNL     1       5.582  -3.523  -3.133  0.00  0.00    +0.044 C 
ATOM      7  C   UNL     1       5.835  -4.960  -3.594  0.00  0.00    +0.095 C 
ATOM      8  C   UNL     1       4.828  -5.898  -2.924  0.00  0.00    +0.044 C 
ATOM      9  C   UNL     1       3.412  -5.500  -3.336  0.00  0.00    +0.111 C 
ATOM     10  H   UNL     1       1.466  -5.537  -1.920  0.00  0.00    +0.153 HD
ENDROOT
BRANCH   7  11
ATOM     11  N   UNL     1       7.195  -5.359  -3.224  0.00  0.00    -0.289 N 
ATOM     12  C   UNL     1       8.199  -5.750  -4.106  0.00  0.00    +0.070 A 
ATOM     13  C   UNL     1       8.255  -5.883  -5.485  0.00  0.00    +0.028 A 
ATOM     14  C   UNL     1       9.424  -6.303  -6.089  0.00  0.00    +0.002 A 
ATOM     15  C   UNL     1      10.540  -6.593  -5.322  0.00  0.00    +0.002 A 
ATOM     16  C   UNL     1      10.494  -6.463  -3.948  0.00  0.00    +0.028 A 
ATOM     17  C   UNL     1       9.325  -6.042  -3.333  0.00  0.00    +0.067 A 
ATOM     18  N   UNL     1       8.970  -5.818  -2.005  0.00  0.00    -0.306 N 
ATOM     19  H   UNL     1       9.549  -5.937  -1.236  0.00  0.00    +0.170 HD
ATOM     20  C   UNL     1       7.689  -5.404  -1.972  0.00  0.00    +0.328 A 
ATOM     21  O   UNL     1       7.071  -5.118  -0.964  0.00  0.00    -0.247 OA
ENDBRANCH   7  11
BRANCH   1  25
ATOM     22  C   UNL     1      -2.303  -6.236   0.979  0.00  0.00    +0.042 C 
ATOM     23  C   UNL     1      -1.638  -4.979   0.413  0.00  0.00    +0.131 C 
ATOM     24  N   UNL     1      -0.277  -5.317  -0.042  0.00  0.00    -0.273 NA
ATOM     25  C   UNL     1       0.269  -4.166  -0.826  0.00  0.00    +0.219 C 
ATOM     26  S   UNL     1      -1.245  -3.687  -1.763  0.00  0.00    -0.040 S 
ATOM     27  N   UNL     1      -2.468  -4.450  -0.701  0.00  0.00    -0.245 NA
ATOM     28  H   UNL     1       0.321  -5.538   0.740  0.00  0.00    +0.126 HD
ATOM     29  H   UNL     1      -3.131  -3.767  -0.365  0.00  0.00    +0.137 HD
ENDBRANCH   1  25
TORSDOF 2
