REMARK  Name = ZINC58788219
REMARK  9 active torsions:
REMARK  status: ('A' for Active; 'I' for Inactive)
REMARK    1  A    between atoms: C_1  and  S_2
REMARK    2  A    between atoms: S_2  and  C_5
REMARK    3  A    between atoms: C_5  and  C_6
REMARK    4  A    between atoms: N_14  and  C_15
REMARK    5  A    between atoms: C_15  and  C_16
REMARK    6  A    between atoms: N_18  and  C_19
REMARK    7  A    between atoms: C_19  and  C_20
REMARK    8  A    between atoms: C_20  and  C_22
REMARK    9  A    between atoms: C_20  and  N_29
REMARK                            x       y       z     vdW  Elec       q    Type
REMARK                         _______ _______ _______ _____ _____    ______ ____
ROOT
ATOM      1  C   UNL     1      -0.956  -2.074  -4.463  0.00  0.00    +0.233 C 
ATOM      2  O   UNL     1       0.088  -2.424  -4.973  0.00  0.00    -0.274 OA
ATOM      3  N   UNL     1      -1.913  -1.496  -5.216  0.00  0.00    -0.315 N 
ATOM      4  H   UNL     1      -2.747  -1.217  -4.809  0.00  0.00    +0.149 HD
ENDROOT
BRANCH   1   5
ATOM      5  C   UNL     1      -1.182  -2.285  -2.989  0.00  0.00    +0.219 C 
BRANCH   5  14
ATOM      6  C   UNL     1       1.077  -2.292  -1.869  0.00  0.00    +0.132 A 
ATOM      7  N   UNL     1       1.937  -3.165  -1.430  0.00  0.00    -0.231 NA
ATOM      8  C   UNL     1       1.468  -4.419  -1.656  0.00  0.00    +0.089 A 
ATOM      9  C   UNL     1       1.970  -5.697  -1.394  0.00  0.00    +0.030 A 
ATOM     10  C   UNL     1       1.245  -6.799  -1.750  0.00  0.00    +0.002 A 
ATOM     11  C   UNL     1       0.011  -6.664  -2.371  0.00  0.00    +0.002 A 
ATOM     12  C   UNL     1      -0.503  -5.414  -2.639  0.00  0.00    +0.028 A 
ATOM     13  C   UNL     1       0.219  -4.283  -2.284  0.00  0.00    +0.069 A 
ATOM     14  N   UNL     1      -0.003  -2.925  -2.400  0.00  0.00    -0.317 N 
BRANCH   6  15
ATOM     15  C   UNL     1       1.251  -0.797  -1.793  0.00  0.00    +0.239 C 
BRANCH  15  17
ATOM     16  C   UNL     1       0.863   1.600  -0.330  0.00  0.00    +0.194 C 
ATOM     17  S   UNL     1       0.561  -0.186  -0.231  0.00  0.00    -0.027 S 
ATOM     18  O   UNL     1       1.334  -0.713   0.839  0.00  0.00    -0.174 OA
ATOM     19  O   UNL     1      -0.843  -0.406  -0.243  0.00  0.00    -0.174 OA
ENDBRANCH  15  17
ENDBRANCH   6  15
ENDBRANCH   5  14
ENDBRANCH   1   5
BRANCH   3  20
ATOM     20  C   UNL     1      -1.692  -1.291  -6.650  0.00  0.00    +0.093 C 
BRANCH  20  21
ATOM     21  C   UNL     1      -2.971  -0.748  -7.290  0.00  0.00    -0.020 C 
BRANCH  21  22
ATOM     22  C   UNL     1      -4.056  -1.790  -7.209  0.00  0.00    -0.058 A 
ATOM     23  C   UNL     1      -4.081  -2.834  -8.116  0.00  0.00    +0.002 A 
ATOM     24  C   UNL     1      -5.075  -3.791  -8.043  0.00  0.00    +0.002 A 
ATOM     25  C   UNL     1      -6.046  -3.705  -7.063  0.00  0.00    +0.020 A 
ATOM     26  C   UNL     1      -6.022  -2.661  -6.155  0.00  0.00    +0.041 A 
ATOM     27  C   UNL     1      -5.023  -1.707  -6.225  0.00  0.00    +0.022 A 
ATOM     28 CL   UNL     1      -7.241  -2.553  -4.924  0.00  0.00    -0.084 Cl
ENDBRANCH  21  22
BRANCH  21  29
ATOM     29  N   UNL     1      -2.712  -0.418  -8.698  0.00  0.00    +0.385 N 
ATOM     30  C   UNL     1      -3.941   0.126  -9.331  0.00  0.00    -0.078 C 
ATOM     31  C   UNL     1      -3.394   0.918 -10.545  0.00  0.00    -0.020 C 
ATOM     32  C   UNL     1      -2.090   1.540  -9.993  0.00  0.00    -0.020 C 
ATOM     33  C   UNL     1      -1.700   0.656  -8.793  0.00  0.00    -0.078 C 
ATOM     34  H   UNL     1      -2.397  -1.238  -9.195  0.00  0.00    -0.081 HD
ENDBRANCH  21  29
ENDBRANCH  20  21
ENDBRANCH   3  20
TORSDOF 8
