REMARK  Name = ZINC48533511
REMARK  2 active torsions:
REMARK  status: ('A' for Active; 'I' for Inactive)
REMARK    1  A    between atoms: C_4  and  C_7
REMARK    2  A    between atoms: C_8  and  C_14
REMARK                            x       y       z     vdW  Elec       q    Type
REMARK                         _______ _______ _______ _____ _____    ______ ____
ROOT
ATOM      1  C   UNL     1       3.583  -0.946  -0.124  0.00  0.00    +0.001 C 
ATOM      2  C   UNL     1       4.098  -1.369   1.051  0.00  0.00    +0.053 C 
ATOM      3  N   UNL     1       5.431  -1.765   1.136  0.00  0.00    -0.337 N 
ATOM      4  C   UNL     1       6.311  -1.425   0.142  0.00  0.00    +0.143 C 
ATOM      5  N   UNL     1       5.849  -0.717  -0.938  0.00  0.00    -0.320 N 
ATOM      6  C   UNL     1       4.452  -0.919  -1.357  0.00  0.00    +0.141 C 
ATOM      7  S   UNL     1       7.909  -1.862   0.244  0.00  0.00    -0.016 SA
ATOM      8  H   UNL     1       6.428  -0.102  -1.414  0.00  0.00    +0.148 HD
ATOM      9  H   UNL     1       5.735  -2.282   1.898  0.00  0.00    +0.168 HD
ENDROOT
BRANCH   1  13
ATOM     10  C   UNL     1      -0.471   0.284  -0.351  0.00  0.00    +0.000 A 
ATOM     11  C   UNL     1       0.541   1.210  -0.538  0.00  0.00    +0.001 A 
ATOM     12  C   UNL     1       1.861   0.818  -0.466  0.00  0.00    +0.008 A 
ATOM     13  C   UNL     1       2.176  -0.519  -0.202  0.00  0.00    -0.018 A 
ATOM     14  C   UNL     1       1.148  -1.448  -0.015  0.00  0.00    +0.008 A 
ATOM     15  C   UNL     1      -0.167  -1.041  -0.090  0.00  0.00    +0.001 A 
ENDBRANCH   1  13
BRANCH   2  16
ATOM     16  C   UNL     1       3.242  -1.410   2.255  0.00  0.00    -0.001 A 
ATOM     17  C   UNL     1       3.198  -2.561   3.044  0.00  0.00    +0.010 A 
ATOM     18  C   UNL     1       2.397  -2.594   4.166  0.00  0.00    +0.001 A 
ATOM     19  C   UNL     1       1.638  -1.489   4.511  0.00  0.00    +0.000 A 
ATOM     20  C   UNL     1       1.677  -0.345   3.733  0.00  0.00    +0.001 A 
ATOM     21  C   UNL     1       2.479  -0.297   2.611  0.00  0.00    +0.010 A 
ENDBRANCH   2  16
TORSDOF 2
