REMARK  Name = ZINC08872325
REMARK  5 active torsions:
REMARK  status: ('A' for Active; 'I' for Inactive)
REMARK    1  A    between atoms: C_4  and  N_7
REMARK    2  A    between atoms: N_20  and  N_21
REMARK    3  A    between atoms: C_22  and  C_23
REMARK    4  A    between atoms: C_26  and  O_30
REMARK    5  A    between atoms: C_28  and  O_29
REMARK                            x       y       z     vdW  Elec       q    Type
REMARK                         _______ _______ _______ _____ _____    ______ ____
ROOT
ATOM      1  N   UNL     1       3.557  -0.568   0.369  0.00  0.00    -0.283 N 
ATOM      2  C   UNL     1       3.572  -1.930   0.599  0.00  0.00    +0.225 A 
ATOM      3  N   UNL     1       2.446  -2.631   0.519  0.00  0.00    -0.179 NA
ATOM      4  C   UNL     1       2.461  -3.942   0.740  0.00  0.00    +0.241 A 
ATOM      5  N   UNL     1       3.603  -4.552   1.042  0.00  0.00    -0.180 NA
ATOM      6  C   UNL     1       4.730  -3.851   1.122  0.00  0.00    +0.224 A 
ATOM      7  N   UNL     1       4.715  -2.541   0.895  0.00  0.00    -0.181 NA
ATOM      8  N   UNL     1       5.916  -4.484   1.435  0.00  0.00    -0.299 N 
ATOM      9  C   UNL     1       7.168  -3.722   1.533  0.00  0.00    +0.108 C 
ATOM     10  C   UNL     1       7.812  -4.004   2.894  0.00  0.00    +0.019 C 
ATOM     11  C   UNL     1       7.980  -5.515   3.071  0.00  0.00    +0.003 C 
ATOM     12  C   UNL     1       6.607  -6.190   3.036  0.00  0.00    +0.019 C 
ATOM     13  C   UNL     1       5.949  -5.932   1.683  0.00  0.00    +0.108 C 
ATOM     14  N   UNL     1       1.291  -4.669   0.657  0.00  0.00    -0.205 N 
ATOM     15  H   UNL     1       4.385  -0.064   0.384  0.00  0.00    +0.155 HD
ATOM     16  H   UNL     1       0.445  -4.214   0.525  0.00  0.00    +0.177 HD
ENDROOT
BRANCH   1  20
ATOM     17  C   UNL     1      -0.049   1.375  -0.389  0.00  0.00    +0.000 A 
ATOM     18  C   UNL     1       0.956   2.030   0.299  0.00  0.00    +0.002 A 
ATOM     19  C   UNL     1       2.153   1.388   0.552  0.00  0.00    +0.023 A 
ATOM     20  C   UNL     1       2.346   0.085   0.115  0.00  0.00    +0.034 A 
ATOM     21  C   UNL     1       1.335  -0.570  -0.576  0.00  0.00    +0.023 A 
ATOM     22  C   UNL     1       0.140   0.077  -0.826  0.00  0.00    +0.002 A 
ENDBRANCH   1  20
BRANCH  14  23
ATOM     23  N   UNL     1       1.325  -6.066   0.765  0.00  0.00    -0.187 NA
ATOM     24  C   UNL     1       0.219  -6.746   0.746  0.00  0.00    +0.142 C 
BRANCH  24  25
ATOM     25  C   UNL     1       0.251  -8.208   0.923  0.00  0.00    +0.037 A 
ATOM     26  C   UNL     1      -0.939  -8.940   0.922  0.00  0.00    +0.032 A 
ATOM     27  C   UNL     1      -0.905 -10.309   1.087  0.00  0.00    +0.060 A 
ATOM     28  C   UNL     1       0.310 -10.963   1.256  0.00  0.00    +0.134 A 
ATOM     29  C   UNL     1       1.496 -10.244   1.259  0.00  0.00    +0.092 A 
ATOM     30  C   UNL     1       1.475  -8.871   1.088  0.00  0.00    +0.129 A 
ATOM     31 BR   UNL     1      -2.517 -11.298   1.085  0.00  0.00    -0.047 Br
BRANCH  30  32
ATOM     32  O   UNL     1       2.636  -8.167   1.085  0.00  0.00    -0.506 OA
ATOM     33  H   UNL     1       2.898  -7.837   1.955  0.00  0.00    +0.292 HD
ENDBRANCH  30  32
BRANCH  28  34
ATOM     34  O   UNL     1       0.335 -12.312   1.419  0.00  0.00    -0.506 OA
ATOM     35  H   UNL     1       0.408 -12.806   0.592  0.00  0.00    +0.292 HD
ENDBRANCH  28  34
ENDBRANCH  24  25
ENDBRANCH  14  23
TORSDOF 5
