REMARK  Name = ZINC40755745
REMARK  5 active torsions:
REMARK  status: ('A' for Active; 'I' for Inactive)
REMARK    1  A    between atoms: C_6  and  C_7
REMARK    2  A    between atoms: N_9  and  N_10
REMARK    3  A    between atoms: C_12  and  N_28
REMARK    4  A    between atoms: C_13  and  N_17
REMARK    5  A    between atoms: N_17  and  C_18
REMARK                            x       y       z     vdW  Elec       q    Type
REMARK                         _______ _______ _______ _____ _____    ______ ____
ROOT
ATOM      1  N   UNL     1      -2.446  -2.830   0.011  0.00  0.00    -0.247 N 
ATOM      2  C   UNL     1      -2.425  -4.220   0.004  0.00  0.00    +0.161 A 
ATOM      3  C   UNL     1      -3.616  -4.948   0.006  0.00  0.00    +0.107 A 
ATOM      4  C   UNL     1      -3.537  -6.341  -0.003  0.00  0.00    +0.145 A 
ATOM      5  N   UNL     1      -2.338  -6.919  -0.013  0.00  0.00    -0.219 NA
ATOM      6  C   UNL     1      -1.237  -6.195  -0.014  0.00  0.00    +0.225 A 
ATOM      7  N   UNL     1      -1.268  -4.877  -0.011  0.00  0.00    -0.217 NA
ATOM      8  H   UNL     1      -3.294  -2.359   0.022  0.00  0.00    +0.172 HD
ENDROOT
BRANCH   1  11
ATOM      9  C   UNL     1      -1.266  -0.763   0.011  0.00  0.00    +0.260 C 
ATOM     10  O   UNL     1      -2.328  -0.172   0.024  0.00  0.00    -0.269 OA
ATOM     11  N   UNL     1      -1.244  -2.111   0.003  0.00  0.00    -0.231 N 
ATOM     12  H   UNL     1      -0.397  -2.582  -0.008  0.00  0.00    +0.173 HD
BRANCH   9  18
ATOM     13  C   UNL     1      -0.017   1.392   0.010  0.00  0.00    +0.014 A 
ATOM     14  C   UNL     1       1.169   2.095   0.002  0.00  0.00    +0.021 A 
ATOM     15  C   UNL     1       2.378   1.419  -0.013  0.00  0.00    +0.041 A 
ATOM     16  C   UNL     1       2.403   0.034  -0.022  0.00  0.00    +0.021 A 
ATOM     17  C   UNL     1       1.224  -0.680  -0.014  0.00  0.00    +0.014 A 
ATOM     18  C   UNL     1       0.002  -0.004   0.002  0.00  0.00    +0.038 A 
ATOM     19 CL   UNL     1       3.868   2.310  -0.024  0.00  0.00    -0.084 Cl
ENDBRANCH   9  18
ENDBRANCH   1  11
BRANCH   3  20
ATOM     20  N   UNL     1      -4.860  -4.296   0.016  0.00  0.00    -0.353 N 
ATOM     21  H   UNL     1      -4.899  -3.327   0.022  0.00  0.00    +0.143 HD
ATOM     22  H   UNL     1      -5.679  -4.814   0.018  0.00  0.00    +0.143 HD
ENDBRANCH   3  20
BRANCH   4  23
ATOM     23  N   UNL     1      -4.692  -7.114  -0.001  0.00  0.00    -0.322 N 
ATOM     24  H   UNL     1      -5.562  -6.685   0.006  0.00  0.00    +0.148 HD
BRANCH  23  25
ATOM     25  C   UNL     1      -4.596  -8.575  -0.010  0.00  0.00    +0.034 C 
ATOM     26  C   UNL     1      -3.836  -9.044   1.232  0.00  0.00    +0.029 C 
ATOM     27  C   UNL     1      -3.736 -10.571   1.223  0.00  0.00    -0.008 C 
ATOM     28  C   UNL     1      -5.142 -11.175   1.228  0.00  0.00    +0.007 C 
ATOM     29  C   UNL     1      -5.902 -10.706  -0.015  0.00  0.00    -0.008 C 
ATOM     30  C   UNL     1      -6.002  -9.179  -0.005  0.00  0.00    +0.029 C 
ATOM     31  C   UNL     1      -5.156 -11.160  -1.271  0.00  0.00    +0.007 C 
ATOM     32  C   UNL     1      -3.750 -10.557  -1.275  0.00  0.00    -0.008 C 
ATOM     33  C   UNL     1      -2.990 -11.025  -0.033  0.00  0.00    +0.007 C 
ATOM     34  C   UNL     1      -3.850  -9.030  -1.266  0.00  0.00    +0.029 C 
ENDBRANCH  23  25
ENDBRANCH   4  23
TORSDOF 5
