REMARK  Name = ZINC14474258
REMARK  7 active torsions:
REMARK  status: ('A' for Active; 'I' for Inactive)
REMARK    1  A    between atoms: C_1  and  C_2
REMARK    2  A    between atoms: C_6  and  C_35
REMARK    3  A    between atoms: C_7  and  N_8
REMARK    4  A    between atoms: N_8  and  S_9
REMARK    5  A    between atoms: S_9  and  C_12
REMARK    6  A    between atoms: C_25  and  C_28
REMARK    7  A    between atoms: C_33  and  O_34
REMARK                            x       y       z     vdW  Elec       q    Type
REMARK                         _______ _______ _______ _____ _____    ______ ____
ROOT
ATOM      1  C   UNL     1       2.712   2.539   0.027  0.00  0.00    +0.109 A 
ATOM      2  C   UNL     1       3.180   2.887  -1.227  0.00  0.00    +0.030 A 
ATOM      3  C   UNL     1       4.537   3.034  -1.433  0.00  0.00    +0.025 A 
ATOM      4  C   UNL     1       5.426   2.832  -0.384  0.00  0.00    +0.031 A 
ATOM      5  C   UNL     1       4.961   2.480   0.874  0.00  0.00    -0.018 A 
ATOM      6  C   UNL     1       3.593   2.343   1.070  0.00  0.00    +0.034 A 
ATOM      7  C   UNL     1       5.879   2.248   2.031  0.00  0.00    +0.049 C 
ATOM      8  C   UNL     1       5.837   3.398   3.008  0.00  0.00    -0.023 C 
ATOM      9  C   UNL     1       7.029   3.611   3.511  0.00  0.00    -0.030 C 
ATOM     10  C   UNL     1       8.029   2.624   2.941  0.00  0.00    +0.033 C 
ATOM     11  C   UNL     1       7.360   2.157   1.615  0.00  0.00    +0.029 C 
ATOM     12  C   UNL     1       7.670   3.214   0.550  0.00  0.00    +0.108 C 
ATOM     13  N   UNL     1       6.798   2.989  -0.608  0.00  0.00    -0.336 N 
ATOM     14  H   UNL     1       7.163   2.951  -1.505  0.00  0.00    +0.147 HD
ENDROOT
BRANCH  12  15
ATOM     15  C   UNL     1       7.418   4.589   1.113  0.00  0.00    +0.014 A 
ATOM     16  C   UNL     1       6.169   5.167   0.993  0.00  0.00    +0.009 A 
ATOM     17  C   UNL     1       5.938   6.428   1.510  0.00  0.00    +0.001 A 
ATOM     18  C   UNL     1       6.955   7.115   2.146  0.00  0.00    +0.004 A 
ATOM     19  C   UNL     1       8.206   6.542   2.267  0.00  0.00    +0.046 A 
ATOM     20  C   UNL     1       8.440   5.274   1.755  0.00  0.00    +0.122 A 
BRANCH  20  21
ATOM     21  O   UNL     1       9.668   4.705   1.878  0.00  0.00    -0.506 OA
ATOM     22  H   UNL     1      10.267   4.900   1.144  0.00  0.00    +0.292 HD
ENDBRANCH  20  21
ENDBRANCH  12  15
BRANCH   1  23
ATOM     23  S   UNL     1       0.980   2.354   0.296  0.00  0.00    +0.072 S 
ATOM     24  O   UNL     1       0.329   3.042  -0.763  0.00  0.00    -0.150 OA
ATOM     25  O   UNL     1       0.746   2.663   1.663  0.00  0.00    -0.150 OA
BRANCH  23  26
ATOM     26  N   UNL     1       0.625   0.748   0.106  0.00  0.00    -0.216 N 
ATOM     27  H   UNL     1       0.111   0.452  -0.661  0.00  0.00    +0.174 HD
BRANCH  26  34
ATOM     28  C   UNL     1       2.824  -0.923  -0.575  0.00  0.00    +0.046 C 
ATOM     29  C   UNL     1       2.135  -1.017   0.762  0.00  0.00    -0.028 A 
ATOM     30  C   UNL     1       2.570  -1.931   1.702  0.00  0.00    +0.005 A 
ATOM     31  C   UNL     1       1.934  -2.022   2.926  0.00  0.00    +0.001 A 
ATOM     32  C   UNL     1       0.865  -1.195   3.217  0.00  0.00    +0.005 A 
ATOM     33  C   UNL     1       0.428  -0.275   2.284  0.00  0.00    -0.028 A 
ATOM     34  C   UNL     1       1.064  -0.181   1.052  0.00  0.00    +0.054 A 
ATOM     35  C   UNL     1      -0.738   0.626   2.601  0.00  0.00    +0.046 C 
ENDBRANCH  26  34
ENDBRANCH  23  26
ENDBRANCH   1  23
TORSDOF 5
