REMARK  Name = ZINC00483769
REMARK  6 active torsions:
REMARK  status: ('A' for Active; 'I' for Inactive)
REMARK    1  A    between atoms: C_1  and  C_2
REMARK    2  A    between atoms: C_2  and  O_3
REMARK    3  A    between atoms: O_3  and  C_4
REMARK    4  A    between atoms: C_4  and  C_6
REMARK    5  A    between atoms: C_7  and  C_22
REMARK    6  A    between atoms: C_12  and  C_14
REMARK                            x       y       z     vdW  Elec       q    Type
REMARK                         _______ _______ _______ _____ _____    ______ ____
ROOT
ATOM      1  C   UNL     1      -1.633  -1.206  -1.446  0.00  0.00    +0.078 C 
ATOM      2  C   UNL     1      -2.764  -0.680  -1.965  0.00  0.00    +0.019 C 
ATOM      3  N   UNL     1      -3.587   0.103  -1.209  0.00  0.00    -0.300 N 
ATOM      4  C   UNL     1      -3.351   0.408   0.073  0.00  0.00    +0.135 C 
ATOM      5  S   UNL     1      -4.468   1.403   0.906  0.00  0.00    -0.019 S 
ATOM      6  N   UNL     1      -2.264  -0.042   0.728  0.00  0.00    -0.315 N 
ATOM      7  C   UNL     1      -1.310  -0.897   0.001  0.00  0.00    +0.142 C 
ATOM      8  C   UNL     1      -3.123  -0.964  -3.401  0.00  0.00    +0.061 C 
ATOM      9  H   UNL     1      -4.389   0.458  -1.624  0.00  0.00    +0.154 HD
ATOM     10  H   UNL     1      -2.113   0.192   1.657  0.00  0.00    +0.149 HD
ENDROOT
BRANCH   7  11
ATOM     11  C   UNL     1       0.040  -0.228   0.044  0.00  0.00    -0.003 A 
ATOM     12  C   UNL     1       0.130   1.151  -0.004  0.00  0.00    +0.007 A 
ATOM     13  C   UNL     1       1.367   1.765   0.035  0.00  0.00    +0.002 A 
ATOM     14  C   UNL     1       2.516   1.002   0.121  0.00  0.00    +0.021 A 
ATOM     15  C   UNL     1       2.428  -0.378   0.169  0.00  0.00    +0.060 A 
ATOM     16  C   UNL     1       1.188  -0.993   0.131  0.00  0.00    +0.064 A 
ATOM     17 CL   UNL     1       1.076  -2.724   0.190  0.00  0.00    -0.082 Cl
ATOM     18 CL   UNL     1       3.871  -1.337   0.277  0.00  0.00    -0.082 Cl
ENDBRANCH   7  11
BRANCH   1  19
ATOM     19  C   UNL     1      -0.779  -2.018  -2.228  0.00  0.00    +0.339 C 
ATOM     20  O   UNL     1      -0.833  -3.230  -2.130  0.00  0.00    -0.245 OA
BRANCH  19  21
ATOM     21  O   UNL     1       0.097  -1.449  -3.083  0.00  0.00    -0.462 OA
BRANCH  21  23
ATOM     22  C   UNL     1       1.696  -1.506  -4.894  0.00  0.00    +0.048 C 
ATOM     23  C   UNL     1       0.855  -2.329  -3.916  0.00  0.00    +0.229 C 
ENDBRANCH  21  23
ENDBRANCH  19  21
ENDBRANCH   1  19
TORSDOF 4
