REMARK  Name = ZINC38935716
REMARK  12 active torsions:
REMARK  status: ('A' for Active; 'I' for Inactive)
REMARK    1  A    between atoms: C_1  and  C_2
REMARK    2  A    between atoms: C_2  and  O_3
REMARK    3  A    between atoms: O_3  and  C_4
REMARK    4  A    between atoms: C_4  and  C_6
REMARK    5  A    between atoms: C_8  and  N_18
REMARK    6  A    between atoms: C_11  and  O_16
REMARK    7  A    between atoms: O_16  and  C_17
REMARK    8  A    between atoms: N_19  and  N_20
REMARK    9  A    between atoms: C_23  and  C_26
REMARK   10  A    between atoms: C_26  and  C_27
REMARK   11  A    between atoms: C_26  and  C_33
REMARK   12  A    between atoms: C_26  and  O_39
REMARK                            x       y       z     vdW  Elec       q    Type
REMARK                         _______ _______ _______ _____ _____    ______ ____
ROOT
ATOM      1  N   UNL     1       6.071   0.713  -0.649  0.00  0.00    -0.312 NA
ATOM      2  C   UNL     1       5.537   1.180   0.636  0.00  0.00    +0.104 C 
ATOM      3  C   UNL     1       6.471   2.240   1.225  0.00  0.00    +0.025 C 
ATOM      4  C   UNL     1       7.859   1.628   1.438  0.00  0.00    +0.033 C 
ATOM      5  C   UNL     1       8.373   1.078   0.105  0.00  0.00    +0.025 C 
ATOM      6  C   UNL     1       7.369   0.061  -0.443  0.00  0.00    +0.104 C 
ATOM      7  H   UNL     1       6.186   1.501  -1.269  0.00  0.00    +0.148 HD
ENDROOT
BRANCH   1   9
ATOM      8  N   UNL     1       4.066   0.193  -1.550  0.00  0.00    -0.136 NA
ATOM      9  N   UNL     1       5.198  -0.179  -1.205  0.00  0.00    -0.097 NA
BRANCH   8  11
ATOM     10  C   UNL     1       1.797  -0.411  -2.573  0.00  0.00    +0.240 C 
ATOM     11  C   UNL     1       3.207  -0.685  -2.098  0.00  0.00    +0.107 C 
ATOM     12  C   UNL     1       3.429  -2.029  -2.344  0.00  0.00    +0.027 A 
ATOM     13  C   UNL     1       4.540  -2.873  -2.124  0.00  0.00    +0.057 A 
ATOM     14  C   UNL     1       4.482  -4.184  -2.470  0.00  0.00    +0.121 A 
ATOM     15  C   UNL     1       3.335  -4.757  -3.054  0.00  0.00    +0.047 A 
ATOM     16  C   UNL     1       2.224  -4.031  -3.303  0.00  0.00    +0.029 A 
ATOM     17  C   UNL     1       2.208  -2.603  -2.956  0.00  0.00    +0.046 A 
ATOM     18  N   UNL     1       1.285  -1.686  -3.084  0.00  0.00    -0.367 N 
ATOM     19  H   UNL     1       0.401  -1.826  -3.458  0.00  0.00    +0.161 HD
BRANCH  10  20
ATOM     20  C   UNL     1       1.812   0.621  -3.671  0.00  0.00    +0.336 C 
ATOM     21  O   UNL     1       1.745   0.274  -4.827  0.00  0.00    -0.248 OA
BRANCH  20  22
ATOM     22  O   UNL     1       1.900   1.925  -3.366  0.00  0.00    -0.463 OA
BRANCH  22  24
ATOM     23  C   UNL     1       2.013   4.275  -3.918  0.00  0.00    +0.048 C 
ATOM     24  C   UNL     1       1.908   2.847  -4.458  0.00  0.00    +0.229 C 
ENDBRANCH  22  24
ENDBRANCH  20  22
ENDBRANCH  10  20
BRANCH  14  25
ATOM     25  O   UNL     1       5.566  -4.970  -2.246  0.00  0.00    -0.495 OA
ATOM     26  C   UNL     1       5.460  -6.344  -2.625  0.00  0.00    +0.277 C 
ENDBRANCH  14  25
ENDBRANCH   8  11
ENDBRANCH   1   9
BRANCH   4  27
ATOM     27  C   UNL     1       8.818   2.704   1.952  0.00  0.00    +0.119 C 
BRANCH  27  28
ATOM     28  C   UNL     1       8.345   3.198   3.295  0.00  0.00    -0.011 A 
ATOM     29  C   UNL     1       8.044   2.296   4.298  0.00  0.00    +0.007 A 
ATOM     30  C   UNL     1       7.610   2.750   5.529  0.00  0.00    +0.000 A 
ATOM     31  C   UNL     1       7.477   4.106   5.758  0.00  0.00    +0.000 A 
ATOM     32  C   UNL     1       7.779   5.009   4.756  0.00  0.00    +0.000 A 
ATOM     33  C   UNL     1       8.217   4.555   3.526  0.00  0.00    +0.007 A 
ENDBRANCH  27  28
BRANCH  27  34
ATOM     34  C   UNL     1      10.200   2.119   2.091  0.00  0.00    -0.011 A 
ATOM     35  C   UNL     1      10.380   0.920   2.755  0.00  0.00    +0.007 A 
ATOM     36  C   UNL     1      11.647   0.383   2.883  0.00  0.00    +0.000 A 
ATOM     37  C   UNL     1      12.735   1.046   2.345  0.00  0.00    +0.000 A 
ATOM     38  C   UNL     1      12.556   2.244   1.681  0.00  0.00    +0.000 A 
ATOM     39  C   UNL     1      11.287   2.779   1.550  0.00  0.00    +0.007 A 
ENDBRANCH  27  34
BRANCH  27  40
ATOM     40  O   UNL     1       8.852   3.793   1.028  0.00  0.00    -0.379 OA
ATOM     41  H   UNL     1       9.149   3.547   0.141  0.00  0.00    +0.211 HD
ENDBRANCH  27  40
ENDBRANCH   4  27
TORSDOF 10
