REMARK  Name = ZINC39841289
REMARK  10 active torsions:
REMARK  status: ('A' for Active; 'I' for Inactive)
REMARK    1  A    between atoms: C_1  and  C_2
REMARK    2  A    between atoms: C_2  and  O_3
REMARK    3  A    between atoms: O_3  and  C_4
REMARK    4  A    between atoms: C_4  and  C_5
REMARK    5  A    between atoms: C_5  and  C_6
REMARK    6  A    between atoms: C_6  and  N_7
REMARK    7  A    between atoms: C_8  and  N_9
REMARK    8  A    between atoms: C_10  and  C_23
REMARK    9  A    between atoms: C_28  and  C_31
REMARK   10  A    between atoms: C_31  and  C_32
REMARK                            x       y       z     vdW  Elec       q    Type
REMARK                         _______ _______ _______ _____ _____    ______ ____
ROOT
ATOM      1  N   UNL     1       2.321  -4.212   3.863  0.00  0.00    -0.313 N 
ATOM      2  C   UNL     1       3.633  -4.344   3.803  0.00  0.00    +0.110 A 
ATOM      3  C   UNL     1       4.388  -4.707   4.940  0.00  0.00    +0.075 A 
ATOM      4  C   UNL     1       3.731  -4.930   6.152  0.00  0.00    +0.033 A 
ATOM      5  C   UNL     1       2.346  -4.783   6.181  0.00  0.00    +0.083 A 
ATOM      6  C   UNL     1       1.650  -4.410   4.999  0.00  0.00    +0.150 A 
ATOM      7  N   UNL     1       0.322  -4.269   5.050  0.00  0.00    -0.211 NA
ATOM      8  C   UNL     1      -0.368  -4.460   6.169  0.00  0.00    +0.143 A 
ATOM      9  C   UNL     1      -1.769  -4.290   6.133  0.00  0.00    +0.047 A 
ATOM     10  C   UNL     1      -2.499  -4.481   7.265  0.00  0.00    +0.005 A 
ATOM     11  C   UNL     1      -1.851  -4.844   8.456  0.00  0.00    +0.018 A 
ATOM     12  C   UNL     1      -0.511  -5.004   8.476  0.00  0.00    +0.096 A 
ATOM     13  N   UNL     1       0.233  -4.816   7.346  0.00  0.00    -0.268 N 
ATOM     14  C   UNL     1       1.573  -4.997   7.405  0.00  0.00    +0.268 A 
ATOM     15  O   UNL     1       2.119  -5.313   8.447  0.00  0.00    -0.267 OA
ENDROOT
BRANCH   3  16
ATOM     16  C   UNL     1       5.850  -4.849   4.849  0.00  0.00    +0.250 C 
ATOM     17  O   UNL     1       6.339  -5.595   4.022  0.00  0.00    -0.270 OA
ATOM     18  N   UNL     1       6.648  -4.152   5.682  0.00  0.00    -0.297 N 
ATOM     19  C   UNL     1       6.073  -3.323   6.751  0.00  0.00    +0.108 C 
ATOM     20  C   UNL     1       6.634  -1.903   6.630  0.00  0.00    +0.023 C 
ATOM     21  C   UNL     1       8.164  -1.962   6.634  0.00  0.00    -0.004 C 
ATOM     22  C   UNL     1       8.648  -2.776   5.433  0.00  0.00    +0.023 C 
ATOM     23  C   UNL     1       8.109  -4.211   5.543  0.00  0.00    +0.108 C 
BRANCH  21  24
ATOM     24  C   UNL     1       8.728  -0.542   6.548  0.00  0.00    +0.038 C 
BRANCH  24  25
ATOM     25  C   UNL     1      10.229  -0.590   6.676  0.00  0.00    -0.047 A 
ATOM     26  C   UNL     1      10.820  -0.507   7.923  0.00  0.00    +0.003 A 
ATOM     27  C   UNL     1      12.196  -0.551   8.040  0.00  0.00    +0.000 A 
ATOM     28  C   UNL     1      12.982  -0.678   6.910  0.00  0.00    +0.000 A 
ATOM     29  C   UNL     1      12.392  -0.762   5.663  0.00  0.00    +0.000 A 
ATOM     30  C   UNL     1      11.015  -0.722   5.546  0.00  0.00    +0.003 A 
ENDBRANCH  24  25
ENDBRANCH  21  24
ENDBRANCH   3  16
BRANCH   2  31
ATOM     31  N   UNL     1       4.280  -4.123   2.605  0.00  0.00    -0.344 N 
ATOM     32  H   UNL     1       3.766  -3.944   1.802  0.00  0.00    +0.144 HD
ATOM     33  H   UNL     1       5.249  -4.146   2.565  0.00  0.00    +0.144 HD
ENDBRANCH   2  31
BRANCH   1  34
ATOM     34  C   UNL     1       1.585  -3.834   2.655  0.00  0.00    +0.127 C 
BRANCH  34  35
ATOM     35  C   UNL     1       1.490  -2.309   2.572  0.00  0.00    +0.050 C 
BRANCH  35  36
ATOM     36  C   UNL     1       0.721  -1.914   1.310  0.00  0.00    +0.161 C 
BRANCH  36  37
ATOM     37  O   UNL     1       0.632  -0.490   1.232  0.00  0.00    -0.380 OA
BRANCH  37  39
ATOM     38  C   UNL     1      -0.105   1.516   0.104  0.00  0.00    +0.034 C 
ATOM     39  C   UNL     1      -0.072  -0.013   0.083  0.00  0.00    +0.156 C 
ENDBRANCH  37  39
ENDBRANCH  36  37
ENDBRANCH  35  36
ENDBRANCH  34  35
ENDBRANCH   1  34
TORSDOF 9
