REMARK  Name = ZINC25463572
REMARK  6 active torsions:
REMARK  status: ('A' for Active; 'I' for Inactive)
REMARK    1  A    between atoms: C_1  and  C_2
REMARK    2  A    between atoms: C_2  and  C_4
REMARK    3  A    between atoms: C_2  and  N_21
REMARK    4  A    between atoms: N_6  and  C_7
REMARK    5  A    between atoms: C_9  and  C_18
REMARK    6  A    between atoms: C_12  and  N_13
REMARK                            x       y       z     vdW  Elec       q    Type
REMARK                         _______ _______ _______ _____ _____    ______ ____
ROOT
ATOM      1  C   UNL     1       3.051   9.249  -0.039  0.00  0.00    +0.237 C 
ATOM      2  O   UNL     1       2.115  10.010   0.089  0.00  0.00    -0.273 OA
ATOM      3  N   UNL     1       4.158   9.647  -0.698  0.00  0.00    -0.282 N 
ATOM      4  H   UNL     1       5.041   8.992  -0.735  0.00  0.00    +0.155 HD
ENDROOT
BRANCH   3   5
ATOM      5  C   UNL     1       4.184  10.895  -1.335  0.00  0.00    +0.055 A 
ATOM      6  C   UNL     1       3.004  11.487  -1.744  0.00  0.00    +0.038 A 
ATOM      7  C   UNL     1       3.034  12.732  -2.379  0.00  0.00    +0.038 A 
ATOM      8  C   UNL     1       4.256  13.374  -2.597  0.00  0.00    +0.015 A 
ATOM      9  C   UNL     1       5.429  12.781  -2.188  0.00  0.00    +0.026 A 
ATOM     10  C   UNL     1       5.402  11.545  -1.551  0.00  0.00    +0.051 A 
BRANCH  10  11
ATOM     11  N   UNL     1       6.590  10.951  -1.134  0.00  0.00    -0.328 N 
ATOM     12  C   UNL     1       7.737  11.879  -1.306  0.00  0.00    +0.105 C 
ATOM     13  C   UNL     1       8.808  11.300  -0.347  0.00  0.00    +0.020 C 
ATOM     14  C   UNL     1       7.969  10.823   0.860  0.00  0.00    +0.020 C 
ATOM     15  C   UNL     1       6.544  10.631   0.309  0.00  0.00    +0.105 C 
ENDBRANCH  10  11
BRANCH   7  16
ATOM     16  C   UNL     1       1.777  13.367  -2.818  0.00  0.00    +0.242 C 
ATOM     17  O   UNL     1       0.714  12.808  -2.629  0.00  0.00    -0.270 OA
ATOM     18  N   UNL     1       1.806  14.568  -3.430  0.00  0.00    -0.325 N 
ATOM     19  H   UNL     1       0.869  15.041  -3.758  0.00  0.00    +0.145 HD
ATOM     20  H   UNL     1       2.768  15.074  -3.602  0.00  0.00    +0.145 HD
ENDBRANCH   7  16
ENDBRANCH   3   5
BRANCH   1  22
ATOM     21  C   UNL     1       4.102   7.670   1.558  0.00  0.00    +0.038 C 
ATOM     22  C   UNL     1       2.977   7.859   0.538  0.00  0.00    +0.155 C 
BRANCH  22  23
ATOM     23  N   UNL     1       1.683   7.674   1.199  0.00  0.00    -0.312 N 
ATOM     24  C   UNL     1       1.158   6.406   1.345  0.00  0.00    +0.160 A 
ATOM     25  N   UNL     1       0.026   6.042   1.902  0.00  0.00    -0.225 NA
ATOM     26  C   UNL     1      -0.365   4.750   1.975  0.00  0.00    +0.080 A 
ATOM     27  C   UNL     1      -1.549   4.227   2.544  0.00  0.00    +0.029 A 
ATOM     28  C   UNL     1      -1.797   2.879   2.529  0.00  0.00    +0.002 A 
ATOM     29  C   UNL     1      -0.897   1.983   1.971  0.00  0.00    +0.001 A 
ATOM     30  C   UNL     1       0.271   2.460   1.405  0.00  0.00    +0.017 A 
ATOM     31  C   UNL     1       0.525   3.808   1.410  0.00  0.00    +0.041 A 
ATOM     32  S   UNL     1       1.846   4.841   0.823  0.00  0.00    -0.052 S 
ATOM     33  H   UNL     1       1.129   8.545   1.579  0.00  0.00    +0.149 HD
ENDBRANCH  22  23
ENDBRANCH   1  22
TORSDOF 5
