REMARK  Name = ZINC04912961
REMARK  6 active torsions:
REMARK  status: ('A' for Active; 'I' for Inactive)
REMARK    1  A    between atoms: C_1  and  O_2
REMARK    2  A    between atoms: O_2  and  C_3
REMARK    3  A    between atoms: C_7  and  O_9
REMARK    4  A    between atoms: O_9  and  C_10
REMARK    5  A    between atoms: C_11  and  C_17
REMARK    6  A    between atoms: C_20  and  C_23
REMARK                            x       y       z     vdW  Elec       q    Type
REMARK                         _______ _______ _______ _____ _____    ______ ____
ROOT
ATOM      1  C   UNL     1       1.909  11.038   3.533  0.00  0.00    +0.125 A 
ATOM      2  C   UNL     1       2.625  10.745   2.382  0.00  0.00    +0.069 A 
ATOM      3  C   UNL     1       1.964  10.280   1.254  0.00  0.00    +0.044 A 
ATOM      4  C   UNL     1       0.587  10.108   1.279  0.00  0.00    +0.023 A 
ATOM      5  C   UNL     1      -0.128  10.401   2.430  0.00  0.00    +0.129 A 
ATOM      6  C   UNL     1       0.533  10.866   3.557  0.00  0.00    +0.091 A 
ATOM      7  C   UNL     1      -0.128   9.603   0.053  0.00  0.00    +0.063 C 
ATOM      8  C   UNL     1       0.573  10.128  -1.200  0.00  0.00    +0.109 C 
ATOM      9  C   UNL     1       2.055   9.893  -1.094  0.00  0.00    +0.218 C 
ATOM     10  O   UNL     1       2.692   9.620  -2.090  0.00  0.00    -0.275 OA
ATOM     11  N   UNL     1       2.683   9.982   0.092  0.00  0.00    -0.285 N 
ATOM     12  H   UNL     1       3.642   9.840   0.142  0.00  0.00    +0.155 HD
ENDROOT
BRANCH   7  13
ATOM     13  C   UNL     1      -0.108   8.096   0.045  0.00  0.00    -0.039 A 
ATOM     14  C   UNL     1      -1.298   7.391   0.053  0.00  0.00    +0.005 A 
ATOM     15  C   UNL     1      -1.285   6.011   0.045  0.00  0.00    +0.009 A 
ATOM     16  C   UNL     1      -0.070   5.328   0.030  0.00  0.00    -0.018 A 
ATOM     17  C   UNL     1       1.125   6.043   0.029  0.00  0.00    +0.009 A 
ATOM     18  C   UNL     1       1.101   7.423   0.031  0.00  0.00    +0.005 A 
BRANCH  16  19
ATOM     19  C   UNL     1      -0.050   3.844   0.022  0.00  0.00    -0.018 A 
ATOM     20  C   UNL     1       1.164   3.161   0.007  0.00  0.00    +0.008 A 
ATOM     21  C   UNL     1       1.177   1.781   0.000  0.00  0.00    +0.001 A 
ATOM     22  C   UNL     1      -0.013   1.076   0.008  0.00  0.00    +0.000 A 
ATOM     23  C   UNL     1      -1.221   1.748   0.017  0.00  0.00    +0.001 A 
ATOM     24  C   UNL     1      -1.246   3.128   0.030  0.00  0.00    +0.008 A 
ENDBRANCH  16  19
ENDBRANCH   7  13
BRANCH   1  26
ATOM     25  C   UNL     1       1.756  11.776   5.788  0.00  0.00    +0.277 C 
ATOM     26  O   UNL     1       2.556  11.494   4.638  0.00  0.00    -0.495 OA
ENDBRANCH   1  26
BRANCH   5  27
ATOM     27  O   UNL     1      -1.476  10.234   2.453  0.00  0.00    -0.495 OA
ATOM     28  C   UNL     1      -2.149  10.556   3.673  0.00  0.00    +0.277 C 
ENDBRANCH   5  27
TORSDOF 4
