REMARK  Name = ZINC36597645
REMARK  13 active torsions:
REMARK  status: ('A' for Active; 'I' for Inactive)
REMARK    1  A    between atoms: C_1  and  C_2
REMARK    2  A    between atoms: C_5  and  C_7
REMARK    3  A    between atoms: C_7  and  N_8
REMARK    4  A    between atoms: N_8  and  C_9
REMARK    5  A    between atoms: C_9  and  C_11
REMARK    6  A    between atoms: C_9  and  C_17
REMARK    7  A    between atoms: N_19  and  C_20
REMARK    8  A    between atoms: C_20  and  C_21
REMARK    9  A    between atoms: C_20  and  C_22
REMARK   10  A    between atoms: C_20  and  C_23
REMARK   11  A    between atoms: C_24  and  C_26
REMARK   12  A    between atoms: C_30  and  O_33
REMARK   13  A    between atoms: C_31  and  O_32
REMARK                            x       y       z     vdW  Elec       q    Type
REMARK                         _______ _______ _______ _____ _____    ______ ____
ROOT
ATOM      1  N   UNL     1       0.318  -8.967  -5.797  0.00  0.00    -0.278 N 
ATOM      2  C   UNL     1       0.407  -8.227  -4.674  0.00  0.00    +0.251 C 
ATOM      3  O   UNL     1      -0.238  -7.202  -4.569  0.00  0.00    -0.270 OA
ENDROOT
BRANCH   2   4
ATOM      4  C   UNL     1       1.288  -8.661  -3.573  0.00  0.00    +0.082 A 
ATOM      5  C   UNL     1       2.659  -8.822  -3.792  0.00  0.00    +0.017 A 
ATOM      6  C   UNL     1       3.478  -9.227  -2.761  0.00  0.00    +0.005 A 
ATOM      7  C   UNL     1       2.951  -9.476  -1.504  0.00  0.00    +0.049 A 
ATOM      8  C   UNL     1       1.595  -9.321  -1.272  0.00  0.00    +0.159 A 
ATOM      9  C   UNL     1       0.755  -8.907  -2.302  0.00  0.00    +0.171 A 
BRANCH   9  10
ATOM     10  O   UNL     1      -0.574  -8.748  -2.076  0.00  0.00    -0.503 OA
ATOM     11  H   UNL     1      -1.097  -9.546  -2.232  0.00  0.00    +0.292 HD
ENDBRANCH   9  10
BRANCH   8  12
ATOM     12  O   UNL     1       1.084  -9.568  -0.035  0.00  0.00    -0.503 OA
ATOM     13  H   UNL     1       1.071  -8.795   0.546  0.00  0.00    +0.292 HD
ENDBRANCH   8  12
ENDBRANCH   2   4
BRANCH   1  14
ATOM     14  C   UNL     1      -0.673  -8.628  -6.821  0.00  0.00    +0.183 C 
BRANCH  14  19
ATOM     15  C   UNL     1      -5.142 -10.693  -5.725  0.00  0.00    +0.086 C 
ATOM     16  C   UNL     1      -4.003  -9.709  -5.783  0.00  0.00    +0.102 A 
ATOM     17  C   UNL     1      -3.983  -8.494  -5.205  0.00  0.00    +0.045 A 
ATOM     18  C   UNL     1      -2.730  -7.915  -5.513  0.00  0.00    +0.046 A 
ATOM     19  C   UNL     1      -2.059  -8.811  -6.259  0.00  0.00    +0.122 A 
ATOM     20  O   UNL     1      -2.833  -9.897  -6.415  0.00  0.00    -0.463 OA
ENDBRANCH  14  19
ENDBRANCH   1  14
BRANCH   1  21
ATOM     21  C   UNL     1       1.212 -10.111  -5.993  0.00  0.00    +0.166 C 
BRANCH  21  22
ATOM     22  C   UNL     1       2.196  -9.802  -7.123  0.00  0.00    +0.019 C 
ATOM     23  C   UNL     1       1.431  -9.663  -8.441  0.00  0.00    +0.006 C 
ATOM     24  C   UNL     1       2.415  -9.354  -9.571  0.00  0.00    +0.000 C 
ATOM     25  C   UNL     1       3.431 -10.491  -9.688  0.00  0.00    +0.000 C 
ATOM     26  C   UNL     1       4.196 -10.630  -8.370  0.00  0.00    +0.000 C 
ATOM     27  C   UNL     1       3.212 -10.940  -7.240  0.00  0.00    +0.006 C 
ENDBRANCH  21  22
BRANCH  21  28
ATOM     28  C   UNL     1       0.399 -11.328  -6.354  0.00  0.00    +0.234 C 
ATOM     29  O   UNL     1      -0.552 -11.223  -7.099  0.00  0.00    -0.274 OA
ATOM     30  N   UNL     1       0.729 -12.533  -5.849  0.00  0.00    -0.309 N 
ATOM     31  H   UNL     1       1.490 -12.617  -5.253  0.00  0.00    +0.149 HD
BRANCH  30  32
ATOM     32  C   UNL     1      -0.061 -13.716  -6.200  0.00  0.00    +0.026 C 
ATOM     33  C   UNL     1      -0.020 -13.926  -7.715  0.00  0.00    +0.031 C 
ATOM     34  C   UNL     1       0.521 -14.945  -5.498  0.00  0.00    +0.031 C 
ATOM     35  C   UNL     1      -1.510 -13.512  -5.753  0.00  0.00    +0.031 C 
ENDBRANCH  30  32
ENDBRANCH  21  28
ENDBRANCH   1  21
TORSDOF 9
