REMARK  Name = ZINC39686561
REMARK  11 active torsions:
REMARK  status: ('A' for Active; 'I' for Inactive)
REMARK    1  A    between atoms: C_1  and  C_2
REMARK    2  A    between atoms: C_2  and  O_3
REMARK    3  A    between atoms: O_3  and  C_4
REMARK    4  A    between atoms: C_9  and  C_10
REMARK    5  A    between atoms: C_14  and  C_23
REMARK    6  A    between atoms: N_25  and  C_26
REMARK    7  A    between atoms: C_26  and  C_28
REMARK    8  A    between atoms: C_26  and  C_29
REMARK    9  A    between atoms: C_29  and  C_30
REMARK   10  A    between atoms: C_35  and  O_36
REMARK   11  A    between atoms: O_36  and  C_37
REMARK                            x       y       z     vdW  Elec       q    Type
REMARK                         _______ _______ _______ _____ _____    ______ ____
ROOT
ATOM      1  C   UNL     1      -3.830  -1.943   0.002  0.00  0.00    +0.250 C 
ATOM      2  O   UNL     1      -3.729  -0.732   0.002  0.00  0.00    -0.270 OA
ATOM      3  N   UNL     1      -5.043  -2.518  -0.117  0.00  0.00    -0.296 N 
ATOM      4  C   UNL     1      -5.378  -3.960  -0.034  0.00  0.00    +0.121 C 
ATOM      5  C   UNL     1      -6.712  -4.007   0.744  0.00  0.00    +0.100 C 
ATOM      6  C   UNL     1      -7.343  -2.622   0.525  0.00  0.00    -0.004 C 
ATOM      7  C   UNL     1      -6.346  -1.851  -0.352  0.00  0.00    +0.115 C 
ATOM      8  C   UNL     1      -7.523  -1.907   1.861  0.00  0.00    -0.010 C 
ATOM      9  C   UNL     1      -8.204  -0.556   1.623  0.00  0.00    -0.082 C 
ATOM     10  N   UNL     1      -9.506  -0.769   0.980  0.00  0.00    +0.379 N 
ATOM     11  C   UNL     1      -9.317  -1.373  -0.345  0.00  0.00    -0.082 C 
ATOM     12  C   UNL     1      -8.683  -2.758  -0.190  0.00  0.00    -0.010 C 
ATOM     13  H   UNL     1     -10.066  -1.383   1.552  0.00  0.00    -0.086 HD
ATOM     14  H   UNL     1      -9.979   0.117   0.880  0.00  0.00    -0.086 HD
ENDROOT
BRANCH   1  20
ATOM     15  C   UNL     1      -1.542  -2.349   0.906  0.00  0.00    +0.133 A 
ATOM     16  C   UNL     1      -0.416  -3.151   1.025  0.00  0.00    +0.046 A 
ATOM     17  C   UNL     1      -0.361  -4.368   0.376  0.00  0.00    +0.004 A 
ATOM     18  C   UNL     1      -1.427  -4.799  -0.397  0.00  0.00    +0.001 A 
ATOM     19  C   UNL     1      -2.554  -4.016  -0.525  0.00  0.00    +0.017 A 
ATOM     20  C   UNL     1      -2.625  -2.784   0.131  0.00  0.00    +0.078 A 
BRANCH  15  21
ATOM     21  O   UNL     1      -1.597  -1.153   1.543  0.00  0.00    -0.491 OA
BRANCH  21  23
ATOM     22  C   UNL     1      -0.700   0.593   2.954  0.00  0.00    +0.048 C 
ATOM     23  C   UNL     1      -0.455  -0.776   2.316  0.00  0.00    +0.226 C 
ENDBRANCH  21  23
ENDBRANCH  15  21
ENDBRANCH   1  20
BRANCH   5  24
ATOM     24  C   UNL     1      -6.457  -4.245   2.210  0.00  0.00    +0.218 C 
ATOM     25  O   UNL     1      -5.474  -3.769   2.739  0.00  0.00    -0.275 OA
ATOM     26  N   UNL     1      -7.320  -4.985   2.933  0.00  0.00    -0.312 N 
ATOM     27  H   UNL     1      -8.138  -5.312   2.526  0.00  0.00    +0.149 HD
BRANCH  26  28
ATOM     28  C   UNL     1      -7.022  -5.298   4.333  0.00  0.00    +0.074 C 
ATOM     29  C   UNL     1      -6.065  -6.490   4.397  0.00  0.00    +0.028 C 
BRANCH  28  30
ATOM     30  C   UNL     1      -8.320  -5.647   5.064  0.00  0.00    +0.060 C 
BRANCH  30  31
ATOM     31  C   UNL     1      -9.205  -4.428   5.125  0.00  0.00    -0.004 A 
ATOM     32  C   UNL     1      -9.095  -3.546   6.182  0.00  0.00    +0.007 A 
ATOM     33  C   UNL     1      -9.907  -2.428   6.239  0.00  0.00    +0.000 A 
ATOM     34  C   UNL     1     -10.831  -2.191   5.237  0.00  0.00    +0.004 A 
ATOM     35  C   UNL     1     -10.945  -3.070   4.178  0.00  0.00    +0.046 A 
ATOM     36  C   UNL     1     -10.127  -4.190   4.117  0.00  0.00    +0.123 A 
BRANCH  36  37
ATOM     37  O   UNL     1     -10.233  -5.053   3.073  0.00  0.00    -0.495 OA
ATOM     38  C   UNL     1     -11.162  -4.713   2.041  0.00  0.00    +0.277 C 
ENDBRANCH  36  37
ENDBRANCH  30  31
ENDBRANCH  28  30
ENDBRANCH  26  28
ENDBRANCH   5  24
TORSDOF 8
