REMARK  Name = ZINC08941023
REMARK  6 active torsions:
REMARK  status: ('A' for Active; 'I' for Inactive)
REMARK    1  A    between atoms: C_11  and  C_15
REMARK    2  A    between atoms: C_15  and  N_59
REMARK    3  A    between atoms: N_18  and  C_21
REMARK    4  A    between atoms: C_21  and  N_23
REMARK    5  A    between atoms: N_23  and  C_24
REMARK    6  A    between atoms: C_24  and  C_25
REMARK                            x       y       z     vdW  Elec       q    Type
REMARK                         _______ _______ _______ _____ _____    ______ ____
ROOT
ATOM      1  C   UNL     1      -2.013  -5.822   1.840  0.00  0.00    -0.059 C 
ATOM      2  C   UNL     1      -3.516  -5.759   2.133  0.00  0.00    +0.088 C 
ATOM      3  N   UNL     1      -4.095  -7.089   1.894  0.00  0.00    -0.316 N 
ATOM      4  C   UNL     1      -3.814  -7.750   0.610  0.00  0.00    +0.088 C 
ATOM      5  C   UNL     1      -2.299  -7.735   0.377  0.00  0.00    -0.059 C 
ATOM      6  N   UNL     1      -1.819  -6.339   0.468  0.00  0.00    +0.386 N 
ATOM      7  H   UNL     1      -2.357  -5.759  -0.186  0.00  0.00    -0.081 HD
ENDROOT
BRANCH   3   8
ATOM      8  C   UNL     1      -4.864  -7.687   2.825  0.00  0.00    +0.133 C 
ATOM      9  S   UNL     1      -5.069  -6.959   4.362  0.00  0.00    -0.019 S 
BRANCH   8  10
ATOM     10  N   UNL     1      -5.472  -8.857   2.548  0.00  0.00    -0.324 N 
ATOM     11  H   UNL     1      -5.299  -9.306   1.705  0.00  0.00    +0.148 HD
BRANCH  10  12
ATOM     12  C   UNL     1      -6.394  -9.452   3.518  0.00  0.00    +0.134 C 
BRANCH  12  13
ATOM     13  C   UNL     1      -6.942 -10.768   2.961  0.00  0.00    +0.135 C 
ATOM     14  C   UNL     1      -7.919 -11.398   3.973  0.00  0.00    +0.035 C 
ATOM     15  C   UNL     1      -9.249 -11.519   3.190  0.00  0.00    +0.031 C 
ATOM     16  C   UNL     1      -8.766 -11.468   1.718  0.00  0.00    +0.160 C 
ATOM     17  O   UNL     1      -7.677 -10.518   1.751  0.00  0.00    -0.375 OA
ENDBRANCH  12  13
ENDBRANCH  10  12
ENDBRANCH   8  10
ENDBRANCH   3   8
BRANCH   6  18
ATOM     18  C   UNL     1      -0.388  -6.274   0.102  0.00  0.00    -0.003 C 
BRANCH  18  29
ATOM     19  C   UNL     1       2.192   1.253  -1.091  0.00  0.00    +0.005 C 
ATOM     20  C   UNL     1       1.413   2.009  -0.011  0.00  0.00    +0.005 C 
ATOM     21  C   UNL     1      -0.035   1.499  -0.001  0.00  0.00    +0.043 C 
ATOM     22  C   UNL     1      -0.011   0.002  -0.006  0.00  0.00    -0.004 A 
ATOM     23  C   UNL     1       1.041  -0.801  -0.292  0.00  0.00    -0.023 A 
ATOM     24  C   UNL     1       0.805  -2.232  -0.225  0.00  0.00    +0.075 A 
ATOM     25  C   UNL     1       1.759  -3.273  -0.485  0.00  0.00    +0.260 A 
ATOM     26  O   UNL     1       2.912  -3.033  -0.799  0.00  0.00    -0.267 OA
ATOM     27  N   UNL     1       1.295  -4.539  -0.357  0.00  0.00    -0.312 N 
ATOM     28  H   UNL     1       1.906  -5.274  -0.523  0.00  0.00    +0.170 HD
ATOM     29  C   UNL     1       0.018  -4.827  -0.009  0.00  0.00    +0.094 A 
ATOM     30  N   UNL     1      -0.884  -3.901   0.236  0.00  0.00    -0.229 NA
ATOM     31  C   UNL     1      -0.501  -2.632   0.131  0.00  0.00    +0.116 A 
ATOM     32  S   UNL     1      -1.352  -1.103   0.361  0.00  0.00    -0.073 S 
ATOM     33  C   UNL     1       2.395  -0.201  -0.663  0.00  0.00    +0.037 C 
ENDBRANCH  18  29
ENDBRANCH   6  18
TORSDOF 6
