REMARK  Name = ZINC41586253
REMARK  9 active torsions:
REMARK  status: ('A' for Active; 'I' for Inactive)
REMARK    1  A    between atoms: C_1  and  C_2
REMARK    2  A    between atoms: C_2  and  O_3
REMARK    3  A    between atoms: O_3  and  C_4
REMARK    4  A    between atoms: C_4  and  C_6
REMARK    5  A    between atoms: N_9  and  C_12
REMARK    6  A    between atoms: C_12  and  C_13
REMARK    7  A    between atoms: C_14  and  O_36
REMARK    8  A    between atoms: C_21  and  C_22
REMARK    9  A    between atoms: C_25  and  C_28
REMARK                            x       y       z     vdW  Elec       q    Type
REMARK                         _______ _______ _______ _____ _____    ______ ____
ROOT
ATOM      1  C   UNL     1      -5.901  -6.248   1.594  0.00  0.00    +0.020 A 
ATOM      2  C   UNL     1      -6.116  -7.048   0.483  0.00  0.00    +0.122 A 
ATOM      3  C   UNL     1      -6.331  -8.416   0.625  0.00  0.00    +0.046 A 
ATOM      4  C   UNL     1      -6.332  -8.984   1.868  0.00  0.00    +0.019 A 
ATOM      5  C   UNL     1      -6.117  -8.191   2.996  0.00  0.00    +0.068 A 
ATOM      6  C   UNL     1      -5.893  -6.811   2.864  0.00  0.00    +0.144 A 
ATOM      7  O   UNL     1      -5.705  -6.261   4.083  0.00  0.00    -0.451 OA
ATOM      8  C   UNL     1      -5.779  -7.186   5.069  0.00  0.00    +0.176 C 
ATOM      9  C   UNL     1      -5.635  -6.953   6.399  0.00  0.00    +0.058 C 
ATOM     10  C   UNL     1      -6.059  -8.485   4.439  0.00  0.00    +0.231 C 
ATOM     11  O   UNL     1      -6.197  -9.566   4.986  0.00  0.00    -0.283 OA
ENDROOT
BRANCH   9  12
ATOM     12  C   UNL     1      -5.570  -8.080   7.338  0.00  0.00    -0.021 A 
ATOM     13  C   UNL     1      -4.854  -9.235   6.999  0.00  0.00    +0.008 A 
ATOM     14  C   UNL     1      -4.795 -10.282   7.875  0.00  0.00    +0.009 A 
ATOM     15  C   UNL     1      -5.447 -10.201   9.107  0.00  0.00    -0.018 A 
ATOM     16  C   UNL     1      -6.162  -9.050   9.446  0.00  0.00    +0.009 A 
ATOM     17  C   UNL     1      -6.220  -7.999   8.576  0.00  0.00    +0.008 A 
BRANCH  15  18
ATOM     18  C   UNL     1      -5.382 -11.338  10.055  0.00  0.00    -0.018 A 
ATOM     19  C   UNL     1      -4.665 -12.486   9.722  0.00  0.00    +0.008 A 
ATOM     20  C   UNL     1      -4.607 -13.542  10.609  0.00  0.00    +0.001 A 
ATOM     21  C   UNL     1      -5.259 -13.462  11.826  0.00  0.00    +0.000 A 
ATOM     22  C   UNL     1      -5.972 -12.325  12.162  0.00  0.00    +0.001 A 
ATOM     23  C   UNL     1      -6.032 -11.261  11.286  0.00  0.00    +0.008 A 
ENDBRANCH  15  18
ENDBRANCH   9  12
BRANCH   2  24
ATOM     24  O   UNL     1      -6.117  -6.492  -0.756  0.00  0.00    -0.506 OA
ATOM     25  H   UNL     1      -5.249  -6.474  -1.180  0.00  0.00    +0.292 HD
ENDBRANCH   2  24
BRANCH   1  26
ATOM     26  C   UNL     1      -5.670  -4.769   1.424  0.00  0.00    -0.036 C 
BRANCH  26  30
ATOM     27  C   UNL     1      -1.937  -3.441  -0.143  0.00  0.00    +0.094 C 
ATOM     28  C   UNL     1      -2.494  -2.792   1.127  0.00  0.00    -0.004 C 
ATOM     29  C   UNL     1      -3.997  -3.065   1.216  0.00  0.00    -0.078 C 
ATOM     30  N   UNL     1      -4.233  -4.513   1.261  0.00  0.00    +0.383 N 
ATOM     31  C   UNL     1      -3.766  -5.133   0.015  0.00  0.00    -0.078 C 
ATOM     32  C   UNL     1      -2.254  -4.939  -0.120  0.00  0.00    -0.004 C 
ATOM     33  H   UNL     1      -3.732  -4.910   2.041  0.00  0.00    -0.081 HD
BRANCH  27  34
ATOM     34  C   UNL     1      -0.444  -3.243  -0.197  0.00  0.00    +0.310 C 
ATOM     35  O   UNL     1       0.292  -4.201  -0.215  0.00  0.00    -0.251 OA
BRANCH  34  36
ATOM     36  O   UNL     1       0.068  -2.002  -0.225  0.00  0.00    -0.465 OA
BRANCH  36  38
ATOM     37  C   UNL     1       1.885  -0.410  -0.302  0.00  0.00    +0.048 C 
ATOM     38  C   UNL     1       1.492  -1.889  -0.276  0.00  0.00    +0.229 C 
ENDBRANCH  36  38
ENDBRANCH  34  36
ENDBRANCH  27  34
ENDBRANCH  26  30
ENDBRANCH   1  26
TORSDOF 8
