REMARK  Name = ZINC20837638
REMARK  10 active torsions:
REMARK  status: ('A' for Active; 'I' for Inactive)
REMARK    1  A    between atoms: C_1  and  C_2
REMARK    2  A    between atoms: C_2  and  C_29
REMARK    3  A    between atoms: C_4  and  N_10
REMARK    4  A    between atoms: C_6  and  C_8
REMARK    5  A    between atoms: C_6  and  C_9
REMARK    6  A    between atoms: C_11  and  C_13
REMARK    7  A    between atoms: C_13  and  S_14
REMARK    8  A    between atoms: S_14  and  C_15
REMARK    9  A    between atoms: N_20  and  N_21
REMARK   10  A    between atoms: C_22  and  C_23
REMARK                            x       y       z     vdW  Elec       q    Type
REMARK                         _______ _______ _______ _____ _____    ______ ____
ROOT
ATOM      1  C   UNL     1      -8.003   3.624   0.062  0.00  0.00    +0.173 C 
ENDROOT
BRANCH   1   3
ATOM      2  N   UNL     1     -10.127   4.892   0.081  0.00  0.00    -0.312 N 
ATOM      3  C   UNL     1      -9.508   3.694   0.071  0.00  0.00    +0.224 C 
ATOM      4  O   UNL     1     -10.163   2.674   0.068  0.00  0.00    -0.275 OA
ATOM      5  H   UNL     1      -9.533   5.818   0.083  0.00  0.00    +0.149 HD
BRANCH   2   9
ATOM      6  C   UNL     1     -14.130   5.495   1.811  0.00  0.00    -0.010 C 
ATOM      7  C   UNL     1     -13.555   6.395   0.711  0.00  0.00    -0.072 C 
ATOM      8  C   UNL     1     -12.032   6.287   0.709  0.00  0.00    +0.009 C 
ATOM      9  C   UNL     1     -11.593   4.960   0.089  0.00  0.00    +0.070 C 
ATOM     10  C   UNL     1     -12.108   4.903  -1.349  0.00  0.00    +0.009 C 
ATOM     11  C   UNL     1     -13.632   4.995  -1.373  0.00  0.00    -0.072 C 
ATOM     12  N   UNL     1     -14.144   6.090  -0.576  0.00  0.00    +0.386 N 
ATOM     13  C   UNL     1     -14.233   3.657  -0.928  0.00  0.00    -0.010 C 
ATOM     14  C   UNL     1     -14.060   5.224  -2.840  0.00  0.00    -0.010 C 
ATOM     15  C   UNL     1     -13.917   7.851   1.075  0.00  0.00    -0.010 C 
ATOM     16  H   UNL     1     -15.208   5.843  -0.443  0.00  0.00    -0.084 HD
ATOM     17  H   UNL     1     -14.051   6.964  -1.238  0.00  0.00    -0.084 HD
ENDBRANCH   2   9
ENDBRANCH   1   3
BRANCH   1  18
ATOM     18  S   UNL     1      -7.480   1.891   0.050  0.00  0.00    -0.075 S 
BRANCH  18  19
ATOM     19  C   UNL     1      -5.730   2.100   0.042  0.00  0.00    +0.211 A 
ATOM     20  N   UNL     1      -4.802   1.097   0.031  0.00  0.00    -0.186 NA
ATOM     21  C   UNL     1      -3.561   1.671   0.028  0.00  0.00    +0.232 A 
ATOM     22  N   UNL     1      -3.716   2.972   0.042  0.00  0.00    -0.245 N 
ATOM     23  N   UNL     1      -5.090   3.245   0.045  0.00  0.00    -0.144 NA
ATOM     24  N   UNL     1      -2.350   0.993   0.019  0.00  0.00    -0.205 N 
ATOM     25  H   UNL     1      -2.335  -0.107   0.013  0.00  0.00    +0.177 HD
ATOM     26  H   UNL     1      -2.835   3.631   0.048  0.00  0.00    +0.192 HD
BRANCH  24  27
ATOM     27  N   UNL     1      -1.146   1.710   0.017  0.00  0.00    -0.188 NA
ATOM     28  C   UNL     1      -0.013   1.076   0.008  0.00  0.00    +0.138 C 
BRANCH  28  29
ATOM     29  C   UNL     1       1.253   1.830  -0.000  0.00  0.00    -0.003 A 
ATOM     30  C   UNL     1       1.257   3.232   0.002  0.00  0.00    +0.029 A 
ATOM     31  C   UNL     1       2.465   3.896  -0.002  0.00  0.00    +0.111 A 
ATOM     32  N   UNL     1       3.605   3.231  -0.016  0.00  0.00    -0.263 NA
ATOM     33  C   UNL     1       3.647   1.911  -0.023  0.00  0.00    +0.111 A 
ATOM     34  C   UNL     1       2.488   1.166  -0.015  0.00  0.00    +0.029 A 
ENDBRANCH  28  29
ENDBRANCH  24  27
ENDBRANCH  18  19
ENDBRANCH   1  18
TORSDOF 6
