REMARK  Name = ZINC10000693
REMARK  9 active torsions:
REMARK  status: ('A' for Active; 'I' for Inactive)
REMARK    1  A    between atoms: C_1  and  C_2
REMARK    2  A    between atoms: C_2  and  C_3
REMARK    3  A    between atoms: C_2  and  C_4
REMARK    4  A    between atoms: C_4  and  C_6
REMARK    5  A    between atoms: C_4  and  N_22
REMARK    6  A    between atoms: N_8  and  N_9
REMARK    7  A    between atoms: C_10  and  C_11
REMARK    8  A    between atoms: C_14  and  N_16
REMARK    9  A    between atoms: C_23  and  C_25
REMARK                            x       y       z     vdW  Elec       q    Type
REMARK                         _______ _______ _______ _____ _____    ______ ____
ROOT
ATOM      1  C   UNL     1      -1.446  -2.792   0.273  0.00  0.00    +0.253 C 
ATOM      2  O   UNL     1      -0.598  -3.466   0.820  0.00  0.00    -0.272 OA
ATOM      3  N   UNL     1      -2.746  -3.132   0.373  0.00  0.00    -0.205 N 
ATOM      4  H   UNL     1      -3.416  -2.635  -0.122  0.00  0.00    +0.177 HD
ENDROOT
BRANCH   3   5
ATOM      5  N   UNL     1      -3.129  -4.202   1.192  0.00  0.00    -0.185 NA
ATOM      6  C   UNL     1      -4.372  -4.589   1.218  0.00  0.00    +0.176 C 
BRANCH   6   7
ATOM      7  C   UNL     1      -5.396  -3.809   0.521  0.00  0.00    +0.150 A 
ATOM      8  C   UNL     1      -6.734  -4.084   0.498  0.00  0.00    +0.053 A 
ATOM      9  C   UNL     1      -7.340  -3.086  -0.282  0.00  0.00    +0.066 A 
ATOM     10  C   UNL     1      -6.352  -2.250  -0.698  0.00  0.00    +0.189 A 
ATOM     11  O   UNL     1      -5.182  -2.691  -0.205  0.00  0.00    -0.440 OA
BRANCH  10  12
ATOM     12  N   UNL     1      -6.523  -1.128  -1.494  0.00  0.00    -0.301 N 
ATOM     13  C   UNL     1      -7.342  -1.438  -2.673  0.00  0.00    +0.108 C 
ATOM     14  C   UNL     1      -7.631  -0.151  -3.449  0.00  0.00    +0.019 C 
ATOM     15  C   UNL     1      -6.308   0.488  -3.878  0.00  0.00    +0.003 C 
ATOM     16  C   UNL     1      -5.453   0.757  -2.636  0.00  0.00    +0.019 C 
ATOM     17  C   UNL     1      -5.227  -0.556  -1.884  0.00  0.00    +0.108 C 
ENDBRANCH  10  12
ENDBRANCH   6   7
ENDBRANCH   3   5
BRANCH   1  18
ATOM     18  C   UNL     1      -1.044  -1.574  -0.518  0.00  0.00    +0.163 C 
BRANCH  18  19
ATOM     19  N   UNL     1       0.227  -1.055  -0.005  0.00  0.00    -0.300 N 
ATOM     20  C   UNL     1       0.540   0.245  -0.172  0.00  0.00    +0.245 C 
ATOM     21  O   UNL     1      -0.229   0.986  -0.752  0.00  0.00    -0.270 OA
ATOM     22  H   UNL     1       0.842  -1.647   0.454  0.00  0.00    +0.150 HD
BRANCH  20  23
ATOM     23  C   UNL     1       1.822   0.768   0.346  0.00  0.00    +0.038 A 
ATOM     24  C   UNL     1       2.707  -0.081   1.013  0.00  0.00    +0.014 A 
ATOM     25  C   UNL     1       3.904   0.411   1.489  0.00  0.00    +0.022 A 
ATOM     26  C   UNL     1       4.224   1.747   1.317  0.00  0.00    +0.059 A 
ATOM     27  C   UNL     1       3.348   2.597   0.661  0.00  0.00    +0.060 A 
ATOM     28  C   UNL     1       2.150   2.114   0.174  0.00  0.00    +0.034 A 
ATOM     29 CL   UNL     1       3.758   4.270   0.449  0.00  0.00    -0.082 Cl
ATOM     30 CL   UNL     1       5.730   2.361   1.926  0.00  0.00    -0.082 Cl
ENDBRANCH  20  23
ENDBRANCH  18  19
BRANCH  18  32
ATOM     31  C   UNL     1       0.264  -2.956  -2.137  0.00  0.00    +0.009 C 
ATOM     32  C   UNL     1      -0.882  -1.953  -1.992  0.00  0.00    +0.012 C 
ATOM     33  C   UNL     1      -2.179  -2.583  -2.502  0.00  0.00    +0.009 C 
ENDBRANCH  18  32
ENDBRANCH   1  18
TORSDOF 7
