REMARK  Name = ZINC08942420
REMARK  8 active torsions:
REMARK  status: ('A' for Active; 'I' for Inactive)
REMARK    1  A    between atoms: C_1  and  C_2
REMARK    2  A    between atoms: C_2  and  C_25
REMARK    3  A    between atoms: N_5  and  N_9
REMARK    4  A    between atoms: C_10  and  C_12
REMARK    5  A    between atoms: C_12  and  N_60
REMARK    6  A    between atoms: C_18  and  C_20
REMARK    7  A    between atoms: C_25  and  C_26
REMARK    8  A    between atoms: C_26  and  C_27
REMARK                            x       y       z     vdW  Elec       q    Type
REMARK                         _______ _______ _______ _____ _____    ______ ____
ROOT
ATOM      1  N   UNL     1       3.710   0.845   0.114  0.00  0.00    -0.225 N 
ATOM      2  C   UNL     1       4.293   1.234  -1.037  0.00  0.00    +0.213 C 
ATOM      3  O   UNL     1       3.616   1.420  -2.027  0.00  0.00    -0.276 OA
ATOM      4  H   UNL     1       4.251   0.697   0.905  0.00  0.00    +0.173 HD
ENDROOT
BRANCH   1   9
ATOM      5  C   UNL     1      -0.375  -0.839   1.531  0.00  0.00    +0.041 C 
ATOM      6  C   UNL     1       0.236  -0.269   0.249  0.00  0.00    +0.112 C 
ATOM      7  C   UNL     1       1.724  -0.551   0.193  0.00  0.00    +0.263 C 
ATOM      8  O   UNL     1       2.263  -1.637   0.173  0.00  0.00    -0.271 OA
ATOM      9  N   UNL     1       2.323   0.656   0.168  0.00  0.00    -0.137 N 
ATOM     10  C   UNL     1       1.429   1.651   0.200  0.00  0.00    +0.326 C 
ATOM     11  O   UNL     1       1.729   2.829   0.186  0.00  0.00    -0.251 OA
ATOM     12  N   UNL     1       0.162   1.202   0.250  0.00  0.00    -0.284 N 
ATOM     13  H   UNL     1      -0.643   1.742   0.276  0.00  0.00    +0.151 HD
BRANCH   6  14
ATOM     14  C   UNL     1      -0.468  -0.843  -0.982  0.00  0.00    +0.040 C 
BRANCH  14  15
ATOM     15  C   UNL     1      -1.915  -0.348  -1.019  0.00  0.00    +0.038 C 
BRANCH  15  16
ATOM     16  C   UNL     1      -2.609  -0.913  -2.232  0.00  0.00    -0.047 A 
ATOM     17  C   UNL     1      -2.589  -0.218  -3.426  0.00  0.00    +0.003 A 
ATOM     18  C   UNL     1      -3.221  -0.739  -4.540  0.00  0.00    +0.000 A 
ATOM     19  C   UNL     1      -3.881  -1.950  -4.456  0.00  0.00    +0.000 A 
ATOM     20  C   UNL     1      -3.905  -2.644  -3.261  0.00  0.00    +0.000 A 
ATOM     21  C   UNL     1      -3.269  -2.125  -2.148  0.00  0.00    +0.003 A 
ENDBRANCH  15  16
ENDBRANCH  14  15
ENDBRANCH   6  14
ENDBRANCH   1   9
BRANCH   2  22
ATOM     22  C   UNL     1       5.785   1.438  -1.095  0.00  0.00    +0.020 C 
BRANCH  22  30
ATOM     23  C   UNL     1       5.918   0.786  -3.424  0.00  0.00    -0.059 C 
ATOM     24  C   UNL     1       6.159   1.321  -4.839  0.00  0.00    +0.089 C 
ATOM     25  N   UNL     1       7.507   1.907  -4.894  0.00  0.00    -0.299 N 
ATOM     26  C   UNL     1       7.881   2.889  -3.865  0.00  0.00    +0.089 C 
ATOM     27  C   UNL     1       7.572   2.292  -2.488  0.00  0.00    -0.059 C 
ATOM     28  C   UNL     1       8.376   1.553  -5.861  0.00  0.00    +0.282 C 
ATOM     29  O   UNL     1       9.463   2.097  -5.932  0.00  0.00    -0.267 OA
ATOM     30  N   UNL     1       6.152   1.881  -2.457  0.00  0.00    +0.387 N 
ATOM     31  H   UNL     1       5.567   2.684  -2.715  0.00  0.00    -0.081 HD
BRANCH  28  32
ATOM     32  C   UNL     1       8.013   0.512  -6.829  0.00  0.00    +0.189 A 
ATOM     33  C   UNL     1       8.840  -0.032  -7.769  0.00  0.00    +0.054 A 
ATOM     34  C   UNL     1       8.082  -0.983  -8.470  0.00  0.00    +0.042 A 
ATOM     35  C   UNL     1       6.842  -0.978  -7.933  0.00  0.00    +0.196 A 
ATOM     36  O   UNL     1       6.806  -0.079  -6.941  0.00  0.00    -0.458 OA
ENDBRANCH  28  32
ENDBRANCH  22  30
ENDBRANCH   2  22
TORSDOF 7
