REMARK  Name = ZINC10139598
REMARK  8 active torsions:
REMARK  status: ('A' for Active; 'I' for Inactive)
REMARK    1  A    between atoms: C_1  and  C_2
REMARK    2  A    between atoms: C_2  and  C_3
REMARK    3  A    between atoms: C_2  and  C_4
REMARK    4  A    between atoms: C_4  and  C_6
REMARK    5  A    between atoms: C_4  and  N_51
REMARK    6  A    between atoms: C_13  and  C_14
REMARK    7  A    between atoms: C_13  and  N_51
REMARK    8  A    between atoms: C_18  and  C_27
REMARK                            x       y       z     vdW  Elec       q    Type
REMARK                         _______ _______ _______ _____ _____    ______ ____
ROOT
ATOM      1  C   UNL     1       2.113   1.154   0.987  0.00  0.00    +0.203 C 
ATOM      2  O   UNL     1       1.583   0.411   1.785  0.00  0.00    -0.277 OA
ATOM      3  N   UNL     1       3.367   1.596   1.206  0.00  0.00    -0.266 N 
ATOM      4  C   UNL     1       4.067   2.429   0.213  0.00  0.00    +0.168 C 
ATOM      5  C   UNL     1       4.799   3.542   0.976  0.00  0.00    +0.276 C 
ATOM      6  O   UNL     1       5.701   2.944   1.911  0.00  0.00    -0.476 OA
ATOM      7  C   UNL     1       5.216   1.967   2.722  0.00  0.00    +0.143 A 
ATOM      8  C   UNL     1       4.051   1.281   2.393  0.00  0.00    +0.078 A 
ATOM      9  C   UNL     1       3.570   0.288   3.230  0.00  0.00    +0.027 A 
ATOM     10  C   UNL     1       4.245  -0.015   4.398  0.00  0.00    +0.002 A 
ATOM     11  C   UNL     1       5.399   0.671   4.729  0.00  0.00    +0.004 A 
ATOM     12  C   UNL     1       5.888   1.653   3.893  0.00  0.00    +0.047 A 
ENDROOT
BRANCH   5  13
ATOM     13  C   UNL     1       5.572   4.396   0.005  0.00  0.00    +0.253 C 
ATOM     14  O   UNL     1       6.784   4.424   0.052  0.00  0.00    -0.272 OA
ATOM     15  N   UNL     1       4.917   5.130  -0.917  0.00  0.00    -0.326 N 
ATOM     16  H   UNL     1       3.947   5.108  -0.955  0.00  0.00    +0.145 HD
ATOM     17  H   UNL     1       5.414   5.680  -1.542  0.00  0.00    +0.145 HD
ENDBRANCH   5  13
BRANCH   1  18
ATOM     18  C   UNL     1       1.368   1.585  -0.251  0.00  0.00    +0.016 C 
BRANCH  18  19
ATOM     19  N   UNL     1      -0.010   1.063  -0.192  0.00  0.00    +0.389 N 
ATOM     20  H   UNL     1       0.014   0.037  -0.225  0.00  0.00    -0.084 HD
ATOM     21  H   UNL     1      -0.450   1.367   0.685  0.00  0.00    -0.084 HD
BRANCH  19  22
ATOM     22  C   UNL     1      -0.798   1.569  -1.332  0.00  0.00    -0.038 C 
BRANCH  22  23
ATOM     23  C   UNL     1      -1.262   2.972  -1.040  0.00  0.00    -0.061 A 
ATOM     24  C   UNL     1      -1.696   3.307   0.229  0.00  0.00    +0.003 A 
ATOM     25  C   UNL     1      -2.116   4.596   0.498  0.00  0.00    +0.020 A 
ATOM     26  C   UNL     1      -2.114   5.548  -0.506  0.00  0.00    +0.041 A 
ATOM     27  C   UNL     1      -1.686   5.211  -1.777  0.00  0.00    +0.020 A 
ATOM     28  C   UNL     1      -1.260   3.923  -2.044  0.00  0.00    +0.003 A 
ATOM     29 CL   UNL     1      -2.648   7.165  -0.170  0.00  0.00    -0.084 Cl
ENDBRANCH  22  23
BRANCH  22  31
ATOM     30  C   UNL     1      -2.779   1.119  -2.787  0.00  0.00    +0.006 C 
ATOM     31  C   UNL     1      -2.013   0.663  -1.543  0.00  0.00    -0.027 C 
ATOM     32  C   UNL     1      -1.546  -0.781  -1.732  0.00  0.00    +0.006 C 
ENDBRANCH  22  31
ENDBRANCH  19  22
ENDBRANCH  18  19
ENDBRANCH   1  18
TORSDOF 6
