REMARK  Name = ZINC41585911
REMARK  10 active torsions:
REMARK  status: ('A' for Active; 'I' for Inactive)
REMARK    1  A    between atoms: C_1  and  O_2
REMARK    2  A    between atoms: O_2  and  C_3
REMARK    3  A    between atoms: C_6  and  C_13
REMARK    4  A    between atoms: C_7  and  O_11
REMARK    5  A    between atoms: C_8  and  O_9
REMARK    6  A    between atoms: O_9  and  C_10
REMARK    7  A    between atoms: O_11  and  C_12
REMARK    8  A    between atoms: C_20  and  O_37
REMARK    9  A    between atoms: C_21  and  C_24
REMARK   10  A    between atoms: C_24  and  N_25
REMARK                            x       y       z     vdW  Elec       q    Type
REMARK                         _______ _______ _______ _____ _____    ______ ____
ROOT
ATOM      1  C   UNL     1       3.160  -1.702  -3.471  0.00  0.00    +0.062 C 
ATOM      2  C   UNL     1       3.511  -1.105  -4.641  0.00  0.00    +0.176 C 
ATOM      3  C   UNL     1       4.098  -1.768  -5.811  0.00  0.00    +0.231 C 
ATOM      4  O   UNL     1       4.370  -2.950  -5.941  0.00  0.00    -0.283 OA
ATOM      5  C   UNL     1       4.287  -0.687  -6.795  0.00  0.00    +0.068 A 
ATOM      6  C   UNL     1       4.795  -0.655  -8.094  0.00  0.00    +0.019 A 
ATOM      7  C   UNL     1       4.846   0.527  -8.777  0.00  0.00    +0.046 A 
ATOM      8  C   UNL     1       4.392   1.700  -8.180  0.00  0.00    +0.125 A 
ATOM      9  C   UNL     1       3.884   1.684  -6.891  0.00  0.00    +0.051 A 
ATOM     10  C   UNL     1       3.825   0.489  -6.183  0.00  0.00    +0.147 A 
ATOM     11  O   UNL     1       3.378   0.209  -4.939  0.00  0.00    -0.451 OA
ENDROOT
BRANCH   1  15
ATOM     12  C   UNL     1       1.251   0.559  -0.429  0.00  0.00    +0.165 A 
ATOM     13  C   UNL     1       1.411   1.098  -1.702  0.00  0.00    +0.050 A 
ATOM     14  C   UNL     1       2.029   0.369  -2.691  0.00  0.00    +0.015 A 
ATOM     15  C   UNL     1       2.501  -0.923  -2.420  0.00  0.00    +0.024 A 
ATOM     16  C   UNL     1       2.341  -1.467  -1.133  0.00  0.00    +0.172 A 
ATOM     17  C   UNL     1       1.720  -0.719  -0.144  0.00  0.00    +0.204 A 
BRANCH  12  19
ATOM     18  C   UNL     1       0.181   2.592   0.182  0.00  0.00    +0.277 C 
ATOM     19  O   UNL     1       0.639   1.287   0.541  0.00  0.00    -0.491 OA
ENDBRANCH  12  19
BRANCH  17  20
ATOM     20  O   UNL     1       1.566  -1.238   1.105  0.00  0.00    -0.488 OA
ATOM     21  C   UNL     1       0.368  -1.974   1.359  0.00  0.00    +0.277 C 
ENDBRANCH  17  20
BRANCH  16  22
ATOM     22  O   UNL     1       2.795  -2.717  -0.860  0.00  0.00    -0.491 OA
ATOM     23  C   UNL     1       4.138  -2.829  -0.384  0.00  0.00    +0.277 C 
ENDBRANCH  16  22
ENDBRANCH   1  15
BRANCH   8  24
ATOM     24  O   UNL     1       4.447   2.869  -8.867  0.00  0.00    -0.506 OA
ATOM     25  H   UNL     1       3.653   3.058  -9.387  0.00  0.00    +0.292 HD
ENDBRANCH   8  24
BRANCH   9  26
ATOM     26  C   UNL     1       3.397   2.961  -6.257  0.00  0.00    +0.127 C 
BRANCH  26  27
ATOM     27  N   UNL     1       1.969   3.141  -6.554  0.00  0.00    -0.295 NA
ATOM     28  C   UNL     1       1.162   2.094  -5.913  0.00  0.00    +0.103 C 
ATOM     29  C   UNL     1      -0.289   2.209  -6.390  0.00  0.00    +0.122 C 
ATOM     30  N   UNL     1      -0.752   3.584  -6.152  0.00  0.00    -0.314 N 
ATOM     31  C   UNL     1       0.077   4.693  -6.647  0.00  0.00    +0.122 C 
ATOM     32  C   UNL     1       1.515   4.481  -6.159  0.00  0.00    +0.103 C 
ATOM     33  C   UNL     1      -1.942   3.829  -5.477  0.00  0.00    +0.099 A 
ATOM     34  C   UNL     1      -2.288   5.135  -5.140  0.00  0.00    +0.042 A 
ATOM     35  C   UNL     1      -3.475   5.364  -4.469  0.00  0.00    +0.005 A 
ATOM     36  C   UNL     1      -4.280   4.277  -4.155  0.00  0.00    +0.018 A 
ATOM     37  C   UNL     1      -3.876   3.009  -4.520  0.00  0.00    +0.084 A 
ATOM     38  N   UNL     1      -2.740   2.820  -5.166  0.00  0.00    -0.350 N 
ATOM     39  H   UNL     1      -2.482   1.918  -5.414  0.00  0.00    +0.166 HD
ENDBRANCH  26  27
ENDBRANCH   9  26
TORSDOF 7
