REMARK  Name = ZINC36484801
REMARK  7 active torsions:
REMARK  status: ('A' for Active; 'I' for Inactive)
REMARK    1  A    between atoms: C_3  and  N_8
REMARK    2  A    between atoms: N_8  and  C_9
REMARK    3  A    between atoms: C_9  and  C_11
REMARK    4  A    between atoms: C_9  and  C_20
REMARK    5  A    between atoms: N_22  and  C_23
REMARK    6  A    between atoms: C_29  and  C_31
REMARK    7  A    between atoms: C_34  and  O_37
REMARK                            x       y       z     vdW  Elec       q    Type
REMARK                         _______ _______ _______ _____ _____    ______ ____
ROOT
ATOM      1  C   UNL     1       6.080   2.458  -0.611  0.00  0.00    +0.198 C 
ENDROOT
BRANCH   1   2
ATOM      2  C   UNL     1       6.698   2.699  -1.964  0.00  0.00    -0.014 A 
ATOM      3  C   UNL     1       6.103   2.176  -3.098  0.00  0.00    +0.010 A 
ATOM      4  C   UNL     1       6.665   2.395  -4.341  0.00  0.00    +0.050 A 
ATOM      5  C   UNL     1       7.828   3.139  -4.454  0.00  0.00    +0.166 A 
ATOM      6  C   UNL     1       8.428   3.666  -3.313  0.00  0.00    +0.167 A 
ATOM      7  C   UNL     1       7.855   3.447  -2.071  0.00  0.00    +0.055 A 
ATOM      8  O   UNL     1       9.548   4.352  -3.685  0.00  0.00    -0.453 OA
ATOM      9  C   UNL     1       9.852   3.897  -5.017  0.00  0.00    +0.466 C 
ATOM     10  O   UNL     1       8.573   3.495  -5.542  0.00  0.00    -0.453 OA
ENDBRANCH   1   2
BRANCH   1  11
ATOM     11  C   UNL     1       5.798   0.987  -0.443  0.00  0.00    +0.239 C 
ATOM     12  O   UNL     1       4.663   0.605  -0.253  0.00  0.00    -0.273 OA
ATOM     13  N   UNL     1       6.808   0.096  -0.503  0.00  0.00    -0.311 N 
ATOM     14  H   UNL     1       7.715   0.402  -0.655  0.00  0.00    +0.149 HD
BRANCH  13  15
ATOM     15  C   UNL     1       6.533  -1.334  -0.339  0.00  0.00    +0.073 C 
ATOM     16  C   UNL     1       6.511  -1.681   1.151  0.00  0.00    +0.022 C 
ATOM     17  C   UNL     1       6.225  -3.175   1.321  0.00  0.00    +0.002 C 
ATOM     18  C   UNL     1       7.319  -3.987   0.625  0.00  0.00    +0.000 C 
ATOM     19  C   UNL     1       7.341  -3.639  -0.865  0.00  0.00    +0.002 C 
ATOM     20  C   UNL     1       7.627  -2.146  -1.036  0.00  0.00    +0.022 C 
ENDBRANCH  13  15
ENDBRANCH   1  11
BRANCH   1  21
ATOM     21  N   UNL     1       4.827   3.210  -0.505  0.00  0.00    -0.251 N 
ATOM     22  C   UNL     1       4.308   3.486   0.707  0.00  0.00    +0.252 C 
ATOM     23  O   UNL     1       3.126   3.751   0.817  0.00  0.00    -0.270 OA
BRANCH  21  26
ATOM     24  C   UNL     1       2.742   3.184  -3.533  0.00  0.00    +0.003 A 
ATOM     25  C   UNL     1       3.390   2.755  -2.391  0.00  0.00    +0.023 A 
ATOM     26  C   UNL     1       4.171   3.642  -1.662  0.00  0.00    +0.039 A 
ATOM     27  C   UNL     1       4.298   4.959  -2.084  0.00  0.00    +0.043 A 
ATOM     28  C   UNL     1       3.648   5.383  -3.227  0.00  0.00    +0.043 A 
ATOM     29  C   UNL     1       2.870   4.495  -3.951  0.00  0.00    +0.020 A 
ATOM     30 CL   UNL     1       3.806   7.029  -3.756  0.00  0.00    -0.083 Cl
ENDBRANCH  21  26
BRANCH  22  31
ATOM     31  C   UNL     1       5.173   3.467   1.903  0.00  0.00    +0.037 A 
ATOM     32  C   UNL     1       6.095   2.433   2.084  0.00  0.00    +0.016 A 
ATOM     33  C   UNL     1       6.901   2.418   3.200  0.00  0.00    +0.046 A 
ATOM     34  C   UNL     1       6.797   3.431   4.147  0.00  0.00    +0.117 A 
ATOM     35  C   UNL     1       5.881   4.461   3.971  0.00  0.00    +0.046 A 
ATOM     36  C   UNL     1       5.077   4.486   2.854  0.00  0.00    +0.016 A 
BRANCH  34  37
ATOM     37  O   UNL     1       7.592   3.412   5.247  0.00  0.00    -0.507 OA
ATOM     38  H   UNL     1       8.433   3.875   5.132  0.00  0.00    +0.292 HD
ENDBRANCH  34  37
ENDBRANCH  22  31
ENDBRANCH   1  21
TORSDOF 7
