REMARK  Name = ZINC45405572
REMARK  6 active torsions:
REMARK  status: ('A' for Active; 'I' for Inactive)
REMARK    1  A    between atoms: C_1  and  C_2
REMARK    2  A    between atoms: C_2  and  C_3
REMARK    3  A    between atoms: C_3  and  C_5
REMARK    4  A    between atoms: C_3  and  N_12
REMARK    5  A    between atoms: N_18  and  C_21
REMARK    6  A    between atoms: C_26  and  O_27
REMARK                            x       y       z     vdW  Elec       q    Type
REMARK                         _______ _______ _______ _____ _____    ______ ____
ROOT
ATOM      1  N   UNL     1      -0.011  -0.139   2.441  0.00  0.00    -0.292 N 
ATOM      2  C   UNL     1       0.164   1.077   2.997  0.00  0.00    +0.303 C 
ATOM      3  O   UNL     1       1.010   1.831   2.556  0.00  0.00    -0.253 OA
ATOM      4  N   UNL     1      -0.598   1.456   4.042  0.00  0.00    -0.283 N 
ATOM      5  C   UNL     1      -1.540   0.513   4.662  0.00  0.00    +0.128 C 
ATOM      6  C   UNL     1      -1.230   0.425   6.162  0.00  0.00    +0.124 C 
ATOM      7  N   UNL     1      -1.134   1.789   6.702  0.00  0.00    -0.324 N 
ATOM      8  C   UNL     1      -0.192   2.732   6.082  0.00  0.00    +0.124 C 
ATOM      9  C   UNL     1      -0.498   2.817   4.586  0.00  0.00    +0.128 C 
ATOM     10  H   UNL     1      -0.631  -0.769   2.839  0.00  0.00    +0.151 HD
ENDROOT
BRANCH   7  11
ATOM     11  C   UNL     1      -1.925   2.183   7.787  0.00  0.00    +0.072 A 
ATOM     12  C   UNL     1      -1.458   2.023   9.083  0.00  0.00    +0.027 A 
ATOM     13  C   UNL     1      -2.241   2.413  10.153  0.00  0.00    +0.002 A 
ATOM     14  C   UNL     1      -3.491   2.962   9.935  0.00  0.00    +0.004 A 
ATOM     15  C   UNL     1      -3.963   3.125   8.646  0.00  0.00    +0.047 A 
ATOM     16  C   UNL     1      -3.183   2.741   7.568  0.00  0.00    +0.138 A 
BRANCH  16  17
ATOM     17  O   UNL     1      -3.644   2.905   6.299  0.00  0.00    -0.505 OA
ATOM     18  H   UNL     1      -4.140   2.147   5.960  0.00  0.00    +0.292 HD
ENDBRANCH  16  17
ENDBRANCH   7  11
BRANCH   1  19
ATOM     19  C   UNL     1       0.735  -0.507   1.236  0.00  0.00    +0.104 C 
BRANCH  19  20
ATOM     20  C   UNL     1       0.861  -2.007   1.161  0.00  0.00    -0.027 A 
ATOM     21  C   UNL     1      -0.209  -2.808   1.510  0.00  0.00    +0.007 A 
ATOM     22  C   UNL     1      -0.094  -4.184   1.443  0.00  0.00    +0.020 A 
ATOM     23  C   UNL     1       1.093  -4.759   1.026  0.00  0.00    +0.041 A 
ATOM     24  C   UNL     1       2.165  -3.956   0.676  0.00  0.00    +0.020 A 
ATOM     25  C   UNL     1       2.046  -2.580   0.739  0.00  0.00    +0.007 A 
ATOM     26 CL   UNL     1       1.239  -6.486   0.941  0.00  0.00    -0.084 Cl
ENDBRANCH  19  20
BRANCH  19  28
ATOM     27  C   UNL     1      -0.028   1.534   0.012  0.00  0.00    +0.006 C 
ATOM     28  C   UNL     1      -0.009   0.004  -0.000  0.00  0.00    +0.024 C 
ENDBRANCH  19  28
ENDBRANCH   1  19
TORSDOF 5
