REMARK  Name = ZINC08855709
REMARK  6 active torsions:
REMARK  status: ('A' for Active; 'I' for Inactive)
REMARK    1  A    between atoms: C_1  and  C_2
REMARK    2  A    between atoms: C_2  and  C_4
REMARK    3  A    between atoms: C_2  and  N_19
REMARK    4  A    between atoms: C_11  and  N_61
REMARK    5  A    between atoms: N_19  and  S_20
REMARK    6  A    between atoms: S_20  and  C_23
REMARK                            x       y       z     vdW  Elec       q    Type
REMARK                         _______ _______ _______ _____ _____    ______ ____
ROOT
ATOM      1  C   UNL     1       6.135   0.570  -2.501  0.00  0.00    +0.035 C 
ATOM      2  C   UNL     1       4.617   0.381  -2.477  0.00  0.00    +0.159 C 
ENDROOT
BRANCH   2   3
ATOM      3  C   UNL     1       4.141  -0.032  -3.846  0.00  0.00    +0.234 C 
ATOM      4  O   UNL     1       3.958  -1.205  -4.096  0.00  0.00    -0.274 OA
ATOM      5  N   UNL     1       3.918   0.901  -4.792  0.00  0.00    -0.304 N 
ATOM      6  C   UNL     1       4.239   2.316  -4.548  0.00  0.00    +0.089 C 
ATOM      7  C   UNL     1       5.096   2.824  -5.717  0.00  0.00    -0.059 C 
ATOM      8  C   UNL     1       4.229   1.113  -7.201  0.00  0.00    -0.059 C 
ATOM      9  C   UNL     1       3.341   0.534  -6.094  0.00  0.00    +0.089 C 
ATOM     10  N   UNL     1       4.372   2.569  -6.981  0.00  0.00    +0.385 N 
ATOM     11  H   UNL     1       3.437   2.990  -6.919  0.00  0.00    -0.081 HD
BRANCH  10  12
ATOM     12  C   UNL     1       5.099   3.181  -8.112  0.00  0.00    -0.046 C 
ATOM     13  C   UNL     1       4.286   2.981  -9.402  0.00  0.00    +0.009 C 
ATOM     14  C   UNL     1       4.839   3.895 -10.521  0.00  0.00    +0.164 C 
ATOM     15  S   UNL     1       5.549   5.305  -9.578  0.00  0.00    -0.033 S 
ATOM     16  O   UNL     1       6.951   5.355  -9.806  0.00  0.00    -0.174 OA
ATOM     17  O   UNL     1       4.761   6.463  -9.814  0.00  0.00    -0.174 OA
ATOM     18  C   UNL     1       5.242   4.709  -7.862  0.00  0.00    +0.151 C 
ENDBRANCH  10  12
ENDBRANCH   2   3
BRANCH   2  19
ATOM     19  N   UNL     1       4.270  -0.659  -1.505  0.00  0.00    -0.178 NA
ATOM     20  H   UNL     1       4.289  -1.593  -1.766  0.00  0.00    +0.149 HD
BRANCH  19  21
ATOM     21  S   UNL     1       3.845  -0.239   0.039  0.00  0.00    +0.059 S 
ATOM     22  O   UNL     1       4.836   0.668   0.501  0.00  0.00    -0.153 OA
ATOM     23  O   UNL     1       3.544  -1.450   0.721  0.00  0.00    -0.153 OA
BRANCH  21  24
ATOM     24  C   UNL     1       2.338   0.669  -0.063  0.00  0.00    +0.109 A 
ATOM     25  C   UNL     1       1.128   0.005   0.003  0.00  0.00    +0.032 A 
ATOM     26  C   UNL     1      -0.059   0.711  -0.077  0.00  0.00    +0.051 A 
ATOM     27  C   UNL     1      -0.030   2.088  -0.224  0.00  0.00    +0.162 A 
ATOM     28  C   UNL     1       1.185   2.754  -0.291  0.00  0.00    +0.164 A 
ATOM     29  C   UNL     1       2.371   2.044  -0.210  0.00  0.00    +0.078 A 
ATOM     30  O   UNL     1       1.203   4.111  -0.437  0.00  0.00    -0.488 OA
ATOM     31  C   UNL     1       0.731   4.866   0.680  0.00  0.00    +0.232 C 
ATOM     32  C   UNL     1      -0.783   4.994   0.644  0.00  0.00    +0.082 C 
ATOM     33  C   UNL     1      -1.482   3.652   0.802  0.00  0.00    +0.232 C 
ATOM     34  O   UNL     1      -1.193   2.796  -0.310  0.00  0.00    -0.488 OA
ENDBRANCH  21  24
ENDBRANCH  19  21
ENDBRANCH   2  19
TORSDOF 5
