REMARK  Name = ZINC35480636
REMARK  10 active torsions:
REMARK  status: ('A' for Active; 'I' for Inactive)
REMARK    1  A    between atoms: C_1  and  C_2
REMARK    2  A    between atoms: C_2  and  O_3
REMARK    3  A    between atoms: O_3  and  C_4
REMARK    4  A    between atoms: C_4  and  C_6
REMARK    5  A    between atoms: C_6  and  C_7
REMARK    6  A    between atoms: N_11  and  C_21
REMARK    7  A    between atoms: C_14  and  C_20
REMARK    8  A    between atoms: C_15  and  C_19
REMARK    9  A    between atoms: C_21  and  C_22
REMARK   10  A    between atoms: N_24  and  C_25
REMARK                            x       y       z     vdW  Elec       q    Type
REMARK                         _______ _______ _______ _____ _____    ______ ____
ROOT
ATOM      1  C   UNL     1      -2.979  -3.720   0.958  0.00  0.00    +0.024 C 
ATOM      2  C   UNL     1      -3.100  -4.518   2.036  0.00  0.00    +0.087 C 
ATOM      3  C   UNL     1      -2.977  -5.924   2.129  0.00  0.00    +0.246 C 
ATOM      4  O   UNL     1      -3.136  -6.394   3.241  0.00  0.00    -0.270 OA
ATOM      5  N   UNL     1      -2.707  -6.815   1.154  0.00  0.00    -0.257 N 
ATOM      6  C   UNL     1      -2.479  -6.565  -0.210  0.00  0.00    +0.058 A 
ATOM      7  C   UNL     1      -2.232  -7.732  -0.913  0.00  0.00    +0.029 A 
ATOM      8  C   UNL     1      -1.985  -7.678  -2.274  0.00  0.00    -0.046 A 
ATOM      9  C   UNL     1      -1.984  -6.463  -2.933  0.00  0.00    -0.046 A 
ATOM     10  C   UNL     1      -2.230  -5.292  -2.236  0.00  0.00    +0.028 A 
ATOM     11  C   UNL     1      -2.478  -5.339  -0.875  0.00  0.00    +0.053 A 
ATOM     12  N   UNL     1      -2.710  -4.061  -0.342  0.00  0.00    -0.316 N 
ATOM     13  C   UNL     1      -1.713  -6.412  -4.415  0.00  0.00    +0.044 C 
ATOM     14  C   UNL     1      -1.716  -8.947  -3.040  0.00  0.00    +0.044 C 
ATOM     15  H   UNL     1      -2.669  -3.325  -0.973  0.00  0.00    +0.152 HD
ENDROOT
BRANCH   1  16
ATOM     16  C   UNL     1      -3.174  -2.248   1.215  0.00  0.00    +0.171 C 
BRANCH  16  17
ATOM     17  C   UNL     1      -1.834  -1.594   1.432  0.00  0.00    +0.313 C 
ATOM     18  O   UNL     1      -0.824  -2.255   1.382  0.00  0.00    -0.250 OA
BRANCH  17  19
ATOM     19  O   UNL     1      -1.762  -0.277   1.679  0.00  0.00    -0.465 OA
BRANCH  19  21
ATOM     20  C   UNL     1      -0.577   1.778   2.143  0.00  0.00    +0.048 C 
ATOM     21  C   UNL     1      -0.459   0.277   1.875  0.00  0.00    +0.229 C 
ENDBRANCH  19  21
ENDBRANCH  17  19
ENDBRANCH  16  17
ENDBRANCH   1  16
BRANCH   5  22
ATOM     22  C   UNL     1      -2.643  -8.219   1.567  0.00  0.00    +0.210 C 
BRANCH  22  23
ATOM     23  C   UNL     1      -1.206  -8.611   1.795  0.00  0.00    +0.235 C 
ATOM     24  O   UNL     1      -0.322  -7.798   1.629  0.00  0.00    -0.274 OA
ATOM     25  N   UNL     1      -0.903  -9.865   2.184  0.00  0.00    -0.284 N 
ATOM     26  H   UNL     1      -1.603 -10.534   2.252  0.00  0.00    +0.155 HD
BRANCH  25  27
ATOM     27  C   UNL     1       0.421 -10.203   2.491  0.00  0.00    +0.037 A 
ATOM     28  C   UNL     1       0.689 -11.111   3.507  0.00  0.00    +0.027 A 
ATOM     29  C   UNL     1       1.995 -11.445   3.811  0.00  0.00    +0.051 A 
ATOM     30  C   UNL     1       3.041 -10.876   3.103  0.00  0.00    +0.166 A 
ATOM     31  C   UNL     1       2.775  -9.964   2.083  0.00  0.00    +0.168 A 
ATOM     32  C   UNL     1       1.466  -9.634   1.776  0.00  0.00    +0.072 A 
ATOM     33  O   UNL     1       3.961  -9.552   1.547  0.00  0.00    -0.453 OA
ATOM     34  C   UNL     1       4.965  -9.906   2.516  0.00  0.00    +0.466 C 
ATOM     35  O   UNL     1       4.394 -11.034   3.205  0.00  0.00    -0.453 OA
ENDBRANCH  25  27
ENDBRANCH  22  23
ENDBRANCH   5  22
TORSDOF 7
