REMARK  Name = ZINC36597668
REMARK  15 active torsions:
REMARK  status: ('A' for Active; 'I' for Inactive)
REMARK    1  A    between atoms: C_1  and  C_2
REMARK    2  A    between atoms: C_5  and  C_9
REMARK    3  A    between atoms: C_6  and  C_8
REMARK    4  A    between atoms: C_9  and  C_11
REMARK    5  A    between atoms: C_9  and  N_18
REMARK    6  A    between atoms: N_13  and  C_14
REMARK    7  A    between atoms: C_14  and  C_15
REMARK    8  A    between atoms: C_14  and  C_16
REMARK    9  A    between atoms: C_14  and  C_17
REMARK   10  A    between atoms: N_18  and  C_19
REMARK   11  A    between atoms: C_19  and  C_20
REMARK   12  A    between atoms: C_23  and  C_25
REMARK   13  A    between atoms: C_26  and  C_28
REMARK   14  A    between atoms: C_32  and  O_35
REMARK   15  A    between atoms: C_33  and  O_34
REMARK                            x       y       z     vdW  Elec       q    Type
REMARK                         _______ _______ _______ _____ _____    ______ ____
ROOT
ATOM      1  N   UNL     1       1.438  -5.147  -1.190  0.00  0.00    -0.275 N 
ATOM      2  C   UNL     1       1.110  -6.452  -1.276  0.00  0.00    +0.252 C 
ATOM      3  O   UNL     1       1.127  -7.014  -2.354  0.00  0.00    -0.270 OA
ENDROOT
BRANCH   2   4
ATOM      4  C   UNL     1       0.729  -7.197  -0.061  0.00  0.00    +0.082 A 
ATOM      5  C   UNL     1      -0.055  -6.586   0.922  0.00  0.00    +0.017 A 
ATOM      6  C   UNL     1      -0.409  -7.286   2.055  0.00  0.00    +0.005 A 
ATOM      7  C   UNL     1       0.009  -8.596   2.227  0.00  0.00    +0.049 A 
ATOM      8  C   UNL     1       0.786  -9.214   1.263  0.00  0.00    +0.159 A 
ATOM      9  C   UNL     1       1.147  -8.523   0.111  0.00  0.00    +0.171 A 
BRANCH   9  10
ATOM     10  O   UNL     1       1.904  -9.128  -0.839  0.00  0.00    -0.503 OA
ATOM     11  H   UNL     1       2.856  -9.020  -0.711  0.00  0.00    +0.292 HD
ENDBRANCH   9  10
BRANCH   8  12
ATOM     12  O   UNL     1       1.193 -10.500   1.440  0.00  0.00    -0.503 OA
ATOM     13  H   UNL     1       0.580 -11.159   1.086  0.00  0.00    +0.292 HD
ENDBRANCH   8  12
ENDBRANCH   2   4
BRANCH   1  14
ATOM     14  C   UNL     1       1.524  -4.498   0.120  0.00  0.00    +0.193 C 
BRANCH  14  19
ATOM     15  C   UNL     1       6.775  -2.180   0.786  0.00  0.00    +0.044 C 
ATOM     16  C   UNL     1       5.406  -2.784   0.612  0.00  0.00    -0.050 A 
ATOM     17  C   UNL     1       4.316  -1.969   0.372  0.00  0.00    +0.004 A 
ATOM     18  C   UNL     1       3.060  -2.523   0.212  0.00  0.00    +0.006 A 
ATOM     19  C   UNL     1       2.893  -3.893   0.293  0.00  0.00    -0.015 A 
ATOM     20  C   UNL     1       3.983  -4.709   0.532  0.00  0.00    -0.045 A 
ATOM     21  C   UNL     1       5.240  -4.155   0.687  0.00  0.00    +0.007 A 
ATOM     22  C   UNL     1       3.802  -6.202   0.620  0.00  0.00    +0.044 C 
ENDBRANCH  14  19
BRANCH  14  23
ATOM     23  C   UNL     1       0.481  -3.413   0.212  0.00  0.00    +0.239 C 
ATOM     24  O   UNL     1      -0.190  -3.134  -0.759  0.00  0.00    -0.273 OA
ATOM     25  N   UNL     1       0.294  -2.755   1.373  0.00  0.00    -0.309 N 
ATOM     26  H   UNL     1       0.879  -2.927   2.128  0.00  0.00    +0.149 HD
BRANCH  25  27
ATOM     27  C   UNL     1      -0.791  -1.779   1.495  0.00  0.00    +0.026 C 
ATOM     28  C   UNL     1      -2.132  -2.473   1.244  0.00  0.00    +0.031 C 
ATOM     29  C   UNL     1      -0.783  -1.180   2.903  0.00  0.00    +0.031 C 
ATOM     30  C   UNL     1      -0.593  -0.664   0.466  0.00  0.00    +0.031 C 
ENDBRANCH  25  27
ENDBRANCH  14  23
ENDBRANCH   1  14
BRANCH   1  31
ATOM     31  C   UNL     1       1.710  -4.379  -2.408  0.00  0.00    +0.183 C 
BRANCH  31  32
ATOM     32  C   UNL     1       3.144  -4.587  -2.823  0.00  0.00    +0.122 A 
ATOM     33  C   UNL     1       3.593  -5.548  -3.650  0.00  0.00    +0.046 A 
ATOM     34  C   UNL     1       4.991  -5.373  -3.761  0.00  0.00    +0.045 A 
ATOM     35  C   UNL     1       5.314  -4.316  -2.995  0.00  0.00    +0.102 A 
ATOM     36  O   UNL     1       4.190  -3.840  -2.433  0.00  0.00    -0.463 OA
ATOM     37  C   UNL     1       6.700  -3.756  -2.803  0.00  0.00    +0.086 C 
ENDBRANCH  31  32
ENDBRANCH   1  31
TORSDOF 9
