REMARK  Name = ZINC40926468
REMARK  9 active torsions:
REMARK  status: ('A' for Active; 'I' for Inactive)
REMARK    1  A    between atoms: C_1  and  C_2
REMARK    2  A    between atoms: C_2  and  C_3
REMARK    3  A    between atoms: C_2  and  C_4
REMARK    4  A    between atoms: C_2  and  C_5
REMARK    5  A    between atoms: C_7  and  C_10
REMARK    6  A    between atoms: C_10  and  N_11
REMARK    7  A    between atoms: C_14  and  C_17
REMARK    8  A    between atoms: C_22  and  C_25
REMARK    9  A    between atoms: C_22  and  N_28
REMARK                            x       y       z     vdW  Elec       q    Type
REMARK                         _______ _______ _______ _____ _____    ______ ____
ROOT
ATOM      1  C   UNL     1      -1.197  -5.286  -7.267  0.00  0.00    +0.219 C 
ATOM      2  O   UNL     1      -2.241  -4.702  -7.068  0.00  0.00    -0.275 OA
ATOM      3  N   UNL     1      -1.143  -6.275  -8.181  0.00  0.00    -0.301 N 
ATOM      4  C   UNL     1       0.083  -7.065  -8.357  0.00  0.00    +0.107 C 
ATOM      5  C   UNL     1       0.485  -7.029  -9.835  0.00  0.00    +0.016 C 
ATOM      6  C   UNL     1      -0.694  -7.498 -10.691  0.00  0.00    +0.015 C 
ATOM      7  C   UNL     1      -1.881  -6.554 -10.491  0.00  0.00    +0.016 C 
ATOM      8  C   UNL     1      -2.311  -6.588  -9.016  0.00  0.00    +0.107 C 
ENDROOT
BRANCH   1  12
ATOM      9  N   UNL     1       1.656  -2.821  -5.297  0.00  0.00    +0.386 N 
ATOM     10  C   UNL     1       2.108  -3.510  -6.512  0.00  0.00    -0.077 C 
ATOM     11  C   UNL     1       0.896  -3.954  -7.333  0.00  0.00    -0.006 C 
ATOM     12  C   UNL     1       0.039  -4.906  -6.494  0.00  0.00    +0.072 C 
ATOM     13  C   UNL     1      -0.366  -4.202  -5.195  0.00  0.00    -0.006 C 
ATOM     14  C   UNL     1       0.893  -3.749  -4.453  0.00  0.00    -0.077 C 
ATOM     15  H   UNL     1       1.069  -2.042  -5.554  0.00  0.00    -0.081 HD
BRANCH   9  16
ATOM     16  C   UNL     1       2.822  -2.329  -4.552  0.00  0.00    +0.022 C 
BRANCH  16  19
ATOM     17  C   UNL     1       4.118   0.630  -6.197  0.00  0.00    +0.177 A 
ATOM     18  N   UNL     1       3.301  -0.002  -5.347  0.00  0.00    -0.197 NA
ATOM     19  C   UNL     1       3.537  -1.285  -5.370  0.00  0.00    +0.211 A 
ATOM     20  O   UNL     1       4.523  -1.514  -6.246  0.00  0.00    -0.340 OA
ATOM     21  N   UNL     1       4.884  -0.248  -6.778  0.00  0.00    -0.061 NA
BRANCH  17  23
ATOM     22  C   UNL     1       5.213   2.440  -7.491  0.00  0.00    +0.019 C 
ATOM     23  C   UNL     1       4.144   2.116  -6.445  0.00  0.00    +0.025 C 
ATOM     24  C   UNL     1       4.469   2.846  -5.141  0.00  0.00    +0.019 C 
ATOM     25  C   UNL     1       2.776   2.572  -6.957  0.00  0.00    +0.019 C 
ENDBRANCH  17  23
ENDBRANCH  16  19
ENDBRANCH   9  16
ENDBRANCH   1  12
BRANCH   6  26
ATOM     26  N   UNL     1      -0.301  -7.497 -12.107  0.00  0.00    +0.389 N 
ATOM     27  C   UNL     1       0.848  -8.391 -12.296  0.00  0.00    -0.077 C 
ATOM     28  C   UNL     1       1.312  -8.331 -13.753  0.00  0.00    -0.019 C 
ATOM     29  C   UNL     1       0.165  -8.772 -14.666  0.00  0.00    -0.004 C 
ATOM     30  C   UNL     1      -1.053  -7.880 -14.408  0.00  0.00    -0.019 C 
ATOM     31  C   UNL     1      -1.429  -7.956 -12.926  0.00  0.00    -0.077 C 
ATOM     32  H   UNL     1      -0.045  -6.561 -12.383  0.00  0.00    -0.080 HD
ENDBRANCH   6  26
BRANCH   6  33
ATOM     33  C   UNL     1      -1.087  -8.894 -10.281  0.00  0.00    +0.200 C 
ATOM     34  O   UNL     1      -0.326  -9.570  -9.622  0.00  0.00    -0.278 OA
ATOM     35  N   UNL     1      -2.286  -9.391 -10.647  0.00  0.00    -0.330 N 
ATOM     36  H   UNL     1      -2.864  -8.879 -11.234  0.00  0.00    +0.145 HD
ATOM     37  H   UNL     1      -2.569 -10.261 -10.324  0.00  0.00    +0.145 HD
ENDBRANCH   6  33
TORSDOF 6
