REMARK  Name = ZINC08722570
REMARK  5 active torsions:
REMARK  status: ('A' for Active; 'I' for Inactive)
REMARK    1  A    between atoms: C_1  and  C_2
REMARK    2  A    between atoms: C_2  and  O_3
REMARK    3  A    between atoms: O_3  and  C_4
REMARK    4  A    between atoms: C_17  and  C_20
REMARK    5  A    between atoms: C_23  and  C_25
REMARK                            x       y       z     vdW  Elec       q    Type
REMARK                         _______ _______ _______ _____ _____    ______ ____
ROOT
ATOM      1  C   UNL     1      -0.140   2.430  -2.045  0.00  0.00    +0.403 C 
ATOM      2  O   UNL     1       0.995   2.815  -1.843  0.00  0.00    -0.226 OA
ATOM      3  N   UNL     1      -0.723   1.573  -1.184  0.00  0.00    -0.262 N 
ATOM      4  C   UNL     1      -0.013   1.086   0.008  0.00  0.00    +0.116 C 
ATOM      5  C   UNL     1      -0.728   1.579   1.267  0.00  0.00    +0.056 C 
ATOM      6  C   UNL     1      -2.221   1.308   1.136  0.00  0.00    -0.020 A 
ATOM      7  C   UNL     1      -2.791   1.100  -0.072  0.00  0.00    +0.013 A 
ATOM      8  S   UNL     1      -4.513   0.853   0.266  0.00  0.00    -0.076 S 
ATOM      9  C   UNL     1      -4.478   1.016   1.969  0.00  0.00    +0.080 A 
ATOM     10  C   UNL     1      -3.129   1.261   2.272  0.00  0.00    +0.068 A 
ATOM     11  C   UNL     1      -2.771   1.441   3.697  0.00  0.00    +0.248 C 
ATOM     12  O   UNL     1      -1.610   1.486   4.059  0.00  0.00    -0.270 OA
ATOM     13  N   UNL     1      -3.787   1.554   4.580  0.00  0.00    -0.287 N 
ATOM     14  C   UNL     1      -5.188   1.669   4.189  0.00  0.00    +0.227 C 
ATOM     15  N   UNL     1      -5.455   0.953   2.928  0.00  0.00    -0.314 N 
ATOM     16  C   UNL     1      -2.100   1.086  -1.402  0.00  0.00    +0.153 C 
ATOM     17  H   UNL     1      -3.573   1.559   5.526  0.00  0.00    +0.151 HD
ATOM     18  H   UNL     1      -6.279   0.463   2.785  0.00  0.00    +0.149 HD
ENDROOT
BRANCH  14  19
ATOM     19  C   UNL     1      -5.531   3.126   4.011  0.00  0.00    +0.144 A 
ATOM     20  C   UNL     1      -4.941   4.155   4.650  0.00  0.00    +0.049 A 
ATOM     21  C   UNL     1      -5.561   5.335   4.191  0.00  0.00    +0.050 A 
ATOM     22  C   UNL     1      -6.504   4.957   3.288  0.00  0.00    +0.135 A 
ATOM     23  O   UNL     1      -6.471   3.614   3.186  0.00  0.00    -0.456 OA
BRANCH  22  24
ATOM     24  C   UNL     1      -7.406   5.861   2.545  0.00  0.00    +0.017 A 
ATOM     25  C   UNL     1      -7.337   7.241   2.747  0.00  0.00    +0.012 A 
ATOM     26  C   UNL     1      -8.178   8.080   2.047  0.00  0.00    +0.016 A 
ATOM     27  C   UNL     1      -9.097   7.556   1.153  0.00  0.00    +0.018 A 
ATOM     28  C   UNL     1      -9.173   6.189   0.952  0.00  0.00    +0.016 A 
ATOM     29  C   UNL     1      -8.334   5.339   1.642  0.00  0.00    +0.012 A 
ATOM     30 BR   UNL     1     -10.251   8.714   0.203  0.00  0.00    -0.050 Br
ENDBRANCH  22  24
ENDBRANCH  14  19
BRANCH   1  31
ATOM     31  O   UNL     1      -0.814   2.859  -3.128  0.00  0.00    -0.451 OA
BRANCH  31  33
ATOM     32  C   UNL     1      -1.041   4.155  -5.178  0.00  0.00    +0.048 C 
ATOM     33  C   UNL     1      -0.123   3.781  -4.012  0.00  0.00    +0.230 C 
ENDBRANCH  31  33
ENDBRANCH   1  31
TORSDOF 4
