REMARK  Name = ZINC20719892
REMARK  8 active torsions:
REMARK  status: ('A' for Active; 'I' for Inactive)
REMARK    1  A    between atoms: C_1  and  C_2
REMARK    2  A    between atoms: C_2  and  C_3
REMARK    3  A    between atoms: C_2  and  C_4
REMARK    4  A    between atoms: C_4  and  C_6
REMARK    5  A    between atoms: C_4  and  N_10
REMARK    6  A    between atoms: C_6  and  O_8
REMARK    7  A    between atoms: O_8  and  C_9
REMARK    8  A    between atoms: C_22  and  C_24
REMARK                            x       y       z     vdW  Elec       q    Type
REMARK                         _______ _______ _______ _____ _____    ______ ____
ROOT
ATOM      1  N   UNL     1       1.353   2.093   2.341  0.00  0.00    -0.286 N 
ATOM      2  C   UNL     1       2.287   1.297   1.785  0.00  0.00    +0.304 C 
ATOM      3  O   UNL     1       1.990   0.176   1.419  0.00  0.00    -0.253 OA
ATOM      4  N   UNL     1       3.549   1.743   1.634  0.00  0.00    -0.273 N 
ATOM      5  C   UNL     1       4.556   0.932   0.932  0.00  0.00    +0.116 C 
ATOM      6  C   UNL     1       5.663   0.542   1.920  0.00  0.00    +0.074 C 
ATOM      7  C   UNL     1       6.045   1.756   2.725  0.00  0.00    +0.040 A 
ATOM      8  C   UNL     1       5.293   2.872   2.844  0.00  0.00    +0.062 A 
ATOM      9  N   UNL     1       5.943   3.729   3.633  0.00  0.00    -0.348 N 
ATOM     10  C   UNL     1       7.075   3.192   4.008  0.00  0.00    +0.171 A 
ATOM     11  N   UNL     1       7.174   1.959   3.460  0.00  0.00    -0.349 N 
ATOM     12  H   UNL     1       7.910   1.337   3.569  0.00  0.00    +0.166 HD
ATOM     13  C   UNL     1       3.954   3.058   2.163  0.00  0.00    +0.159 C 
ATOM     14  H   UNL     1       1.602   2.963   2.690  0.00  0.00    +0.151 HD
ATOM     15  H   UNL     1       5.627   4.611   3.887  0.00  0.00    +0.167 HD
ENDROOT
BRANCH  13  16
ATOM     16  C   UNL     1       4.082   4.048   1.033  0.00  0.00    +0.014 A 
ATOM     17  C   UNL     1       5.333   4.409   0.570  0.00  0.00    +0.011 A 
ATOM     18  C   UNL     1       5.452   5.316  -0.467  0.00  0.00    +0.039 A 
ATOM     19  C   UNL     1       4.317   5.864  -1.042  0.00  0.00    +0.126 A 
ATOM     20  C   UNL     1       3.064   5.503  -0.578  0.00  0.00    +0.077 A 
ATOM     21  C   UNL     1       2.946   4.590   0.456  0.00  0.00    +0.131 A 
ATOM     22  F   UNL     1       1.723   4.232   0.905  0.00  0.00    -0.205 F 
ATOM     23  F   UNL     1       4.434   6.751  -2.054  0.00  0.00    -0.205 F 
ENDBRANCH  13  16
BRANCH   1  24
ATOM     24  C   UNL     1      -0.040   1.645   2.420  0.00  0.00    +0.186 C 
BRANCH  24  26
ATOM     25  C   UNL     1       0.695  -0.426   3.611  0.00  0.00    +0.009 C 
ATOM     26  C   UNL     1      -0.230   0.791   3.676  0.00  0.00    +0.014 C 
ATOM     27  C   UNL     1       0.108   1.623   4.914  0.00  0.00    +0.009 C 
ENDBRANCH  24  26
BRANCH  24  28
ATOM     28  C   UNL     1      -0.951   2.843   2.485  0.00  0.00    +0.328 C 
ATOM     29  O   UNL     1      -0.485   3.958   2.467  0.00  0.00    -0.249 OA
BRANCH  28  30
ATOM     30  O   UNL     1      -2.280   2.672   2.562  0.00  0.00    -0.467 OA
ATOM     31  C   UNL     1      -3.083   3.853   2.620  0.00  0.00    +0.280 C 
ENDBRANCH  28  30
ENDBRANCH  24  28
ENDBRANCH   1  24
TORSDOF 5
