REMARK  Name = ZINC01142114
REMARK  8 active torsions:
REMARK  status: ('A' for Active; 'I' for Inactive)
REMARK    1  A    between atoms: C_1  and  C_2
REMARK    2  A    between atoms: C_3  and  C_24
REMARK    3  A    between atoms: C_4  and  C_10
REMARK    4  A    between atoms: C_15  and  O_16
REMARK    5  A    between atoms: O_16  and  C_17
REMARK    6  A    between atoms: C_17  and  C_18
REMARK    7  A    between atoms: N_26  and  C_27
REMARK    8  A    between atoms: C_27  and  C_28
REMARK                            x       y       z     vdW  Elec       q    Type
REMARK                         _______ _______ _______ _____ _____    ______ ____
ROOT
ATOM      1  C   UNL     1      -1.663   1.403  -0.475  0.00  0.00    +0.061 C 
ATOM      2  C   UNL     1      -0.224   1.017  -0.245  0.00  0.00    +0.017 C 
ATOM      3  C   UNL     1       0.087  -0.277  -0.019  0.00  0.00    +0.056 C 
ATOM      4  C   UNL     1       1.546  -0.623   0.201  0.00  0.00    +0.143 C 
ATOM      5  N   UNL     1       2.511   0.489   0.149  0.00  0.00    -0.315 N 
ATOM      6  C   UNL     1       2.045   1.731  -0.087  0.00  0.00    +0.135 C 
ATOM      7  S   UNL     1       3.155   3.033  -0.150  0.00  0.00    -0.019 S 
ATOM      8  N   UNL     1       0.743   1.980  -0.275  0.00  0.00    -0.300 N 
ATOM      9  H   UNL     1       3.458   0.330   0.283  0.00  0.00    +0.149 HD
ATOM     10  H   UNL     1       0.472   2.897  -0.441  0.00  0.00    +0.154 HD
ENDROOT
BRANCH   4  11
ATOM     11  C   UNL     1       1.669  -1.281   1.551  0.00  0.00    +0.019 A 
ATOM     12  C   UNL     1       0.654  -1.149   2.480  0.00  0.00    +0.009 A 
ATOM     13  C   UNL     1       0.765  -1.756   3.717  0.00  0.00    +0.001 A 
ATOM     14  C   UNL     1       1.894  -2.489   4.032  0.00  0.00    +0.004 A 
ATOM     15  C   UNL     1       2.914  -2.619   3.109  0.00  0.00    +0.046 A 
ATOM     16  C   UNL     1       2.803  -2.015   1.865  0.00  0.00    +0.126 A 
BRANCH  16  17
ATOM     17  O   UNL     1       3.805  -2.143   0.955  0.00  0.00    -0.487 OA
BRANCH  17  18
ATOM     18  C   UNL     1       4.892  -3.002   1.303  0.00  0.00    +0.264 C 
BRANCH  18  19
ATOM     19  C   UNL     1       5.946  -2.939   0.228  0.00  0.00    -0.010 A 
ATOM     20  C   UNL     1       5.845  -3.749  -0.887  0.00  0.00    +0.007 A 
ATOM     21  C   UNL     1       6.810  -3.688  -1.876  0.00  0.00    +0.000 A 
ATOM     22  C   UNL     1       7.881  -2.823  -1.744  0.00  0.00    +0.000 A 
ATOM     23  C   UNL     1       7.985  -2.017  -0.625  0.00  0.00    +0.000 A 
ATOM     24  C   UNL     1       7.017  -2.075   0.360  0.00  0.00    +0.007 A 
ENDBRANCH  18  19
ENDBRANCH  17  18
ENDBRANCH  16  17
ENDBRANCH   4  11
BRANCH   3  25
ATOM     25  C   UNL     1      -0.915  -1.277   0.012  0.00  0.00    +0.244 C 
ATOM     26  O   UNL     1      -2.090  -0.963  -0.040  0.00  0.00    -0.270 OA
ATOM     27  N   UNL     1      -0.568  -2.576   0.098  0.00  0.00    -0.307 N 
ATOM     28  H   UNL     1       0.361  -2.823   0.225  0.00  0.00    +0.149 HD
BRANCH  27  29
ATOM     29  C   UNL     1      -1.595  -3.617   0.001  0.00  0.00    +0.139 C 
BRANCH  29  30
ATOM     30  C   UNL     1      -0.938  -4.973   0.004  0.00  0.00    -0.030 A 
ATOM     31  C   UNL     1      -0.471  -5.518  -1.178  0.00  0.00    +0.005 A 
ATOM     32  C   UNL     1       0.136  -6.760  -1.174  0.00  0.00    +0.000 A 
ATOM     33  C   UNL     1       0.267  -7.462   0.010  0.00  0.00    +0.000 A 
ATOM     34  C   UNL     1      -0.205  -6.919   1.191  0.00  0.00    +0.000 A 
ATOM     35  C   UNL     1      -0.807  -5.675   1.188  0.00  0.00    +0.005 A 
ENDBRANCH  29  30
ENDBRANCH  27  29
ENDBRANCH   3  25
TORSDOF 7
