REMARK  Name = ZINC61719927
REMARK  4 active torsions:
REMARK  status: ('A' for Active; 'I' for Inactive)
REMARK    1  A    between atoms: C_1  and  N_2
REMARK    2  A    between atoms: C_8  and  C_14
REMARK    3  A    between atoms: C_17  and  O_20
REMARK    4  A    between atoms: O_20  and  C_21
REMARK                            x       y       z     vdW  Elec       q    Type
REMARK                         _______ _______ _______ _____ _____    ______ ____
ROOT
ATOM      1  C   UNL     1       0.567   2.119   0.856  0.00  0.00    +0.127 C 
ATOM      2  N   UNL     1       0.397   0.678   0.653  0.00  0.00    -0.326 N 
ATOM      3  C   UNL     1       0.956  -0.219   1.549  0.00  0.00    +0.160 A 
ATOM      4  N   UNL     1       1.660   0.040   2.633  0.00  0.00    -0.210 NA
ATOM      5  C   UNL     1       2.138  -0.931   3.402  0.00  0.00    +0.138 A 
ATOM      6  C   UNL     1       1.835  -2.196   2.986  0.00  0.00    +0.041 A 
ATOM      7  S   UNL     1       0.893  -1.904   1.520  0.00  0.00    -0.055 S 
ATOM      8  C   UNL     1       2.231  -3.461   3.666  0.00  0.00    +0.068 C 
ATOM      9  C   UNL     1       3.527  -3.198   4.445  0.00  0.00    +0.109 C 
ATOM     10  C   UNL     1       3.470  -1.865   5.136  0.00  0.00    +0.219 C 
ATOM     11  O   UNL     1       3.963  -1.766   6.240  0.00  0.00    -0.275 OA
ATOM     12  N   UNL     1       2.899  -0.777   4.589  0.00  0.00    -0.270 N 
ATOM     13  H   UNL     1      -0.107   0.352  -0.109  0.00  0.00    +0.148 HD
ATOM     14  H   UNL     1       3.007   0.096   4.998  0.00  0.00    +0.156 HD
ENDROOT
BRANCH   8  15
ATOM     15  C   UNL     1       1.142  -3.889   4.616  0.00  0.00    -0.039 A 
ATOM     16  C   UNL     1       0.763  -3.055   5.652  0.00  0.00    +0.008 A 
ATOM     17  C   UNL     1      -0.234  -3.446   6.525  0.00  0.00    +0.046 A 
ATOM     18  C   UNL     1      -0.855  -4.676   6.362  0.00  0.00    +0.121 A 
ATOM     19  C   UNL     1      -0.473  -5.510   5.321  0.00  0.00    +0.046 A 
ATOM     20  C   UNL     1       0.521  -5.113   4.448  0.00  0.00    +0.008 A 
BRANCH  18  21
ATOM     21  O   UNL     1      -1.835  -5.063   7.219  0.00  0.00    -0.489 OA
BRANCH  21  22
ATOM     22  C   UNL     1      -2.261  -4.106   8.192  0.00  0.00    +0.173 C 
ATOM     23  C   UNL     1      -1.367  -4.194   9.446  0.00  0.00    +0.044 C 
ATOM     24  C   UNL     1      -2.342  -3.951  10.625  0.00  0.00    +0.004 C 
ATOM     25  C   UNL     1      -3.622  -4.693  10.168  0.00  0.00    +0.004 C 
ATOM     26  C   UNL     1      -3.695  -4.424   8.651  0.00  0.00    +0.044 C 
ENDBRANCH  21  22
ENDBRANCH  18  21
ENDBRANCH   8  15
TORSDOF 3
