REMARK  Name = ZINC10435218
REMARK  11 active torsions:
REMARK  status: ('A' for Active; 'I' for Inactive)
REMARK    1  A    between atoms: C_1  and  C_2
REMARK    2  A    between atoms: C_2  and  O_3
REMARK    3  A    between atoms: O_3  and  C_4
REMARK    4  A    between atoms: C_6  and  C_20
REMARK    5  A    between atoms: C_9  and  O_10
REMARK    6  A    between atoms: O_10  and  C_11
REMARK    7  A    between atoms: C_11  and  C_12
REMARK    8  A    between atoms: C_20  and  N_64
REMARK    9  A    between atoms: C_21  and  N_64
REMARK   10  A    between atoms: C_26  and  C_27
REMARK   11  A    between atoms: C_26  and  N_67
REMARK                            x       y       z     vdW  Elec       q    Type
REMARK                         _______ _______ _______ _____ _____    ______ ____
ROOT
ATOM      1  C   UNL     1      -3.100  -2.643  -0.005  0.00  0.00    +0.162 A 
ATOM      2  C   UNL     1      -4.191  -3.498   0.001  0.00  0.00    +0.051 A 
ATOM      3  C   UNL     1      -5.473  -2.982   0.009  0.00  0.00    -0.061 A 
ATOM      4  C   UNL     1      -5.672  -1.614   0.018  0.00  0.00    +0.005 A 
ATOM      5  C   UNL     1      -4.588  -0.756   0.018  0.00  0.00    +0.049 A 
ATOM      6  C   UNL     1      -3.300  -1.266   0.009  0.00  0.00    +0.162 A 
ENDROOT
BRANCH   1   7
ATOM      7  O   UNL     1      -1.838  -3.148  -0.019  0.00  0.00    -0.489 OA
BRANCH   7   9
ATOM      8  C   UNL     1      -0.226  -4.949  -0.049  0.00  0.00    +0.048 C 
ATOM      9  C   UNL     1      -1.709  -4.571  -0.034  0.00  0.00    +0.226 C 
ENDBRANCH   7   9
ENDBRANCH   1   7
BRANCH   6  10
ATOM     10  O   UNL     1      -2.233  -0.422   0.009  0.00  0.00    -0.484 OA
BRANCH  10  11
ATOM     11  C   UNL     1      -2.514   0.979   0.019  0.00  0.00    +0.266 C 
BRANCH  11  12
ATOM     12  C   UNL     1      -1.219   1.750   0.017  0.00  0.00    +0.008 A 
ATOM     13  C   UNL     1      -0.013   1.076   0.008  0.00  0.00    +0.010 A 
ATOM     14  C   UNL     1       1.175   1.783   0.000  0.00  0.00    +0.020 A 
ATOM     15  C   UNL     1       1.157   3.166   0.008  0.00  0.00    +0.042 A 
ATOM     16  C   UNL     1      -0.050   3.842   0.023  0.00  0.00    +0.040 A 
ATOM     17  C   UNL     1      -1.238   3.134   0.031  0.00  0.00    +0.049 A 
ATOM     18 CL   UNL     1      -2.754   3.981   0.049  0.00  0.00    -0.083 Cl
ATOM     19 CL   UNL     1       2.648   4.054  -0.001  0.00  0.00    -0.083 Cl
ENDBRANCH  11  12
ENDBRANCH  10  11
ENDBRANCH   6  10
BRANCH   3  20
ATOM     20  C   UNL     1      -6.658  -3.914   0.009  0.00  0.00    -0.046 C 
BRANCH  20  21
ATOM     21  N   UNL     1      -7.044  -4.205  -1.385  0.00  0.00    +0.383 N 
ATOM     22  H   UNL     1      -6.253  -4.645  -1.870  0.00  0.00    -0.085 HD
ATOM     23  H   UNL     1      -7.290  -3.328  -1.858  0.00  0.00    -0.085 HD
BRANCH  21  24
ATOM     24  C   UNL     1      -8.203  -5.116  -1.416  0.00  0.00    -0.075 C 
ATOM     25  C   UNL     1      -7.718  -6.566  -1.322  0.00  0.00    -0.034 C 
ATOM     26  C   UNL     1      -8.919  -7.508  -1.425  0.00  0.00    -0.080 C 
ATOM     27  C   UNL     1     -10.126  -5.914  -2.795  0.00  0.00    -0.080 C 
ATOM     28  C   UNL     1      -8.960  -4.924  -2.732  0.00  0.00    -0.034 C 
ATOM     29  N   UNL     1      -9.590  -7.290  -2.724  0.00  0.00    +0.382 N 
ATOM     30  H   UNL     1      -8.905  -7.420  -3.478  0.00  0.00    -0.081 HD
BRANCH  29  31
ATOM     31  C   UNL     1     -10.685  -8.267  -2.897  0.00  0.00    -0.043 C 
BRANCH  31  32
ATOM     32  C   UNL     1     -10.089  -9.643  -3.040  0.00  0.00    -0.064 A 
ATOM     33  C   UNL     1      -9.748 -10.122  -4.292  0.00  0.00    +0.002 A 
ATOM     34  C   UNL     1      -9.196 -11.383  -4.423  0.00  0.00    +0.000 A 
ATOM     35  C   UNL     1      -8.996 -12.169  -3.304  0.00  0.00    +0.000 A 
ATOM     36  C   UNL     1      -9.343 -11.693  -2.053  0.00  0.00    +0.000 A 
ATOM     37  C   UNL     1      -9.889 -10.430  -1.921  0.00  0.00    +0.002 A 
ENDBRANCH  31  32
ENDBRANCH  29  31
ENDBRANCH  21  24
ENDBRANCH  20  21
ENDBRANCH   3  20
TORSDOF 10
