REMARK  Name = ZINC21755121
REMARK  11 active torsions:
REMARK  status: ('A' for Active; 'I' for Inactive)
REMARK    1  A    between atoms: C_1  and  N_2
REMARK    2  A    between atoms: N_2  and  C_3
REMARK    3  A    between atoms: N_2  and  C_4
REMARK    4  A    between atoms: C_7  and  C_10
REMARK    5  A    between atoms: C_10  and  C_12
REMARK    6  A    between atoms: C_10  and  N_26
REMARK    7  A    between atoms: C_12  and  N_13
REMARK    8  A    between atoms: N_13  and  S_14
REMARK    9  A    between atoms: S_14  and  C_17
REMARK   10  A    between atoms: C_21  and  N_23
REMARK   11  A    between atoms: N_29  and  C_32
REMARK                            x       y       z     vdW  Elec       q    Type
REMARK                         _______ _______ _______ _____ _____    ______ ____
ROOT
ATOM      1  C   UNL     1      -0.918   1.480  -1.242  0.00  0.00    +0.102 C 
ENDROOT
BRANCH   1   5
ATOM      2  C   UNL     1       1.430   0.213  -4.581  0.00  0.00    +0.029 A 
ATOM      3  C   UNL     1       1.304   1.566  -4.291  0.00  0.00    +0.023 A 
ATOM      4  C   UNL     1       0.545   1.972  -3.211  0.00  0.00    +0.007 A 
ATOM      5  C   UNL     1      -0.090   1.033  -2.419  0.00  0.00    -0.029 A 
ATOM      6  C   UNL     1       0.037  -0.315  -2.701  0.00  0.00    +0.007 A 
ATOM      7  C   UNL     1       0.790  -0.727  -3.783  0.00  0.00    +0.023 A 
BRANCH   2   9
ATOM      8  C   UNL     1       2.974   0.779  -6.435  0.00  0.00    +0.129 C 
ATOM      9  N   UNL     1       2.197  -0.201  -5.672  0.00  0.00    -0.336 N 
ATOM     10  C   UNL     1       2.226  -1.615  -6.053  0.00  0.00    +0.129 C 
ENDBRANCH   2   9
ENDBRANCH   1   5
BRANCH   1  11
ATOM     11  N   UNL     1      -2.181   0.729  -1.218  0.00  0.00    -0.291 NA
ATOM     12  C   UNL     1      -3.286   1.572  -0.740  0.00  0.00    +0.104 C 
ATOM     13  C   UNL     1      -4.594   0.780  -0.805  0.00  0.00    +0.120 C 
ATOM     14  N   UNL     1      -4.469  -0.435   0.013  0.00  0.00    -0.327 N 
ATOM     15  C   UNL     1      -3.364  -1.278  -0.466  0.00  0.00    +0.120 C 
ATOM     16  C   UNL     1      -2.057  -0.485  -0.401  0.00  0.00    +0.104 C 
BRANCH  14  17
ATOM     17  C   UNL     1      -5.671  -1.149   0.035  0.00  0.00    +0.030 A 
ATOM     18  C   UNL     1      -5.698  -2.477  -0.371  0.00  0.00    +0.026 A 
ATOM     19  C   UNL     1      -6.886  -3.182  -0.344  0.00  0.00    +0.040 A 
ATOM     20  C   UNL     1      -8.050  -2.563   0.078  0.00  0.00    +0.124 A 
ATOM     21  C   UNL     1      -8.026  -1.238   0.479  0.00  0.00    +0.040 A 
ATOM     22  C   UNL     1      -6.840  -0.530   0.458  0.00  0.00    +0.026 A 
ATOM     23  F   UNL     1      -9.211  -3.253   0.100  0.00  0.00    -0.205 F 
ENDBRANCH  14  17
ENDBRANCH   1  11
BRANCH   1  24
ATOM     24  C   UNL     1      -0.146   1.219   0.053  0.00  0.00    +0.129 C 
BRANCH  24  25
ATOM     25  N   UNL     1      -0.942   1.673   1.196  0.00  0.00    -0.188 NA
ATOM     26  H   UNL     1      -1.668   2.490   1.071  0.00  0.00    +0.148 HD
BRANCH  25  27
ATOM     27  S   UNL     1      -0.580   1.139   2.721  0.00  0.00    +0.059 S 
ATOM     28  O   UNL     1      -1.500   1.770   3.601  0.00  0.00    -0.153 OA
ATOM     29  O   UNL     1      -0.454  -0.274   2.637  0.00  0.00    -0.153 OA
BRANCH  27  30
ATOM     30  C   UNL     1       1.016   1.764   3.128  0.00  0.00    +0.107 A 
ATOM     31  C   UNL     1       2.145   1.024   2.829  0.00  0.00    +0.028 A 
ATOM     32  C   UNL     1       3.397   1.517   3.145  0.00  0.00    +0.004 A 
ATOM     33  C   UNL     1       3.521   2.745   3.767  0.00  0.00    +0.033 A 
ATOM     34  C   UNL     1       2.392   3.483   4.070  0.00  0.00    +0.128 A 
ATOM     35  C   UNL     1       1.139   2.992   3.751  0.00  0.00    +0.061 A 
BRANCH  34  36
ATOM     36  N   UNL     1       2.524   4.798   4.737  0.00  0.00    +0.056 N 
ATOM     37  O   UNL     1       1.529   5.447   5.004  0.00  0.00    -0.126 OA
ATOM     38  O   UNL     1       3.627   5.230   5.018  0.00  0.00    -0.126 OA
ENDBRANCH  34  36
ENDBRANCH  27  30
ENDBRANCH  25  27
ENDBRANCH  24  25
ENDBRANCH   1  24
TORSDOF 9
