REMARK  Name = ZINC08820458
REMARK  8 active torsions:
REMARK  status: ('A' for Active; 'I' for Inactive)
REMARK    1  A    between atoms: C_4  and  C_7
REMARK    2  A    between atoms: C_8  and  C_9
REMARK    3  A    between atoms: N_13  and  C_17
REMARK    4  A    between atoms: C_17  and  C_18
REMARK    5  A    between atoms: C_18  and  C_19
REMARK    6  A    between atoms: N_21  and  N_22
REMARK    7  A    between atoms: C_23  and  C_25
REMARK    8  A    between atoms: C_30  and  O_31
REMARK                            x       y       z     vdW  Elec       q    Type
REMARK                         _______ _______ _______ _____ _____    ______ ____
ROOT
ATOM      1  C   UNL     1       2.457   1.002  -0.016  0.00  0.00    +0.124 C 
ENDROOT
BRANCH   1   6
ATOM      2  C   UNL     1       6.343   3.294   2.057  0.00  0.00    +0.020 C 
ATOM      3  C   UNL     1       5.547   2.830   1.051  0.00  0.00    +0.077 C 
ATOM      4  C   UNL     1       4.282   2.076   1.126  0.00  0.00    +0.258 C 
ATOM      5  O   UNL     1       3.784   1.767   2.193  0.00  0.00    -0.269 OA
ATOM      6  N   UNL     1       3.715   1.751  -0.024  0.00  0.00    -0.255 N 
ATOM      7  C   UNL     1       4.273   2.090  -1.204  0.00  0.00    +0.121 C 
ATOM      8  S   UNL     1       3.703   1.759  -2.784  0.00  0.00    -0.027 S 
ATOM      9  S   UNL     1       5.749   2.970  -0.719  0.00  0.00    -0.061 S 
BRANCH   2  11
ATOM     10  C   UNL     1       8.314   4.460   2.751  0.00  0.00    +0.008 C 
ATOM     11  C   UNL     1       7.524   4.000   1.752  0.00  0.00    +0.002 C 
BRANCH  10  15
ATOM     12  C   UNL     1      11.867   6.585   1.833  0.00  0.00    +0.000 A 
ATOM     13  C   UNL     1      11.519   6.364   3.154  0.00  0.00    +0.001 A 
ATOM     14  C   UNL     1      10.366   5.675   3.461  0.00  0.00    +0.008 A 
ATOM     15  C   UNL     1       9.546   5.197   2.432  0.00  0.00    -0.025 A 
ATOM     16  C   UNL     1       9.908   5.420   1.099  0.00  0.00    +0.008 A 
ATOM     17  C   UNL     1      11.062   6.117   0.809  0.00  0.00    +0.001 A 
ENDBRANCH  10  15
ENDBRANCH   2  11
ENDBRANCH   1   6
BRANCH   1  18
ATOM     18  C   UNL     1       1.280   1.980   0.001  0.00  0.00    +0.116 C 
BRANCH  18  19
ATOM     19  C   UNL     1      -0.014   1.209   0.009  0.00  0.00    +0.231 C 
ATOM     20  O   UNL     1       0.002  -0.004   0.002  0.00  0.00    -0.274 OA
ATOM     21  N   UNL     1      -1.191   1.867   0.018  0.00  0.00    -0.234 N 
ATOM     22  H   UNL     1      -1.204   2.837   0.023  0.00  0.00    +0.173 HD
BRANCH  21  23
ATOM     23  N   UNL     1      -2.394   1.150   0.020  0.00  0.00    -0.230 N 
ATOM     24  C   UNL     1      -3.571   1.808   0.029  0.00  0.00    +0.264 C 
ATOM     25  O   UNL     1      -3.587   3.023   0.035  0.00  0.00    -0.269 OA
ATOM     26  H   UNL     1      -2.381   0.180   0.014  0.00  0.00    +0.173 HD
BRANCH  24  27
ATOM     27  C   UNL     1      -4.838   1.053   0.031  0.00  0.00    +0.079 A 
ATOM     28  C   UNL     1      -4.824  -0.344   0.017  0.00  0.00    +0.017 A 
ATOM     29  C   UNL     1      -6.011  -1.044   0.024  0.00  0.00    +0.001 A 
ATOM     30  C   UNL     1      -7.220  -0.368   0.033  0.00  0.00    +0.004 A 
ATOM     31  C   UNL     1      -7.249   1.013   0.041  0.00  0.00    +0.046 A 
ATOM     32  C   UNL     1      -6.063   1.733   0.040  0.00  0.00    +0.129 A 
BRANCH  32  33
ATOM     33  O   UNL     1      -6.090   3.089   0.048  0.00  0.00    -0.506 OA
ATOM     34  H   UNL     1      -6.102   3.487  -0.834  0.00  0.00    +0.292 HD
ENDBRANCH  32  33
ENDBRANCH  24  27
ENDBRANCH  21  23
ENDBRANCH  18  19
ENDBRANCH   1  18
TORSDOF 8
