REMARK  Name = ZINC01422402
REMARK  10 active torsions:
REMARK  status: ('A' for Active; 'I' for Inactive)
REMARK    1  A    between atoms: C_1  and  O_2
REMARK    2  A    between atoms: O_2  and  C_3
REMARK    3  A    between atoms: C_3  and  C_5
REMARK    4  A    between atoms: C_7  and  C_37
REMARK    5  A    between atoms: C_14  and  C_30
REMARK    6  A    between atoms: C_16  and  C_26
REMARK    7  A    between atoms: C_17  and  N_25
REMARK    8  A    between atoms: N_18  and  C_19
REMARK    9  A    between atoms: C_26  and  O_28
REMARK   10  A    between atoms: O_28  and  C_29
REMARK                            x       y       z     vdW  Elec       q    Type
REMARK                         _______ _______ _______ _____ _____    ______ ____
ROOT
ATOM      1  C   UNL     1      -0.112  -2.855   0.545  0.00  0.00    +0.176 C 
ATOM      2  C   UNL     1      -1.322  -1.942   0.768  0.00  0.00    +0.046 C 
ATOM      3  C   UNL     1      -0.832  -0.628   1.381  0.00  0.00    +0.061 C 
ATOM      4  C   UNL     1       0.178   0.014   0.461  0.00  0.00    +0.025 C 
ATOM      5  C   UNL     1       0.974  -0.736  -0.329  0.00  0.00    +0.025 C 
ATOM      6  C   UNL     1       0.887  -2.140  -0.323  0.00  0.00    +0.176 C 
ATOM      7  O   UNL     1       1.631  -2.787  -1.033  0.00  0.00    -0.291 OA
ATOM      8  C   UNL     1       1.982  -0.093  -1.249  0.00  0.00    +0.094 C 
ATOM      9  C   UNL     1       2.255   1.326  -0.846  0.00  0.00    +0.084 C 
ATOM     10  C   UNL     1       1.400   2.001  -0.028  0.00  0.00    +0.103 C 
ATOM     11  N   UNL     1       0.270   1.382   0.450  0.00  0.00    -0.261 N 
ENDROOT
BRANCH   8  12
ATOM     12  C   UNL     1       1.447  -0.112  -2.658  0.00  0.00    -0.035 A 
ATOM     13  C   UNL     1       0.256   0.524  -2.953  0.00  0.00    +0.007 A 
ATOM     14  C   UNL     1      -0.232   0.511  -4.246  0.00  0.00    +0.038 A 
ATOM     15  C   UNL     1       0.466  -0.149  -5.243  0.00  0.00    +0.123 A 
ATOM     16  C   UNL     1       1.657  -0.790  -4.945  0.00  0.00    +0.038 A 
ATOM     17  C   UNL     1       2.146  -0.771  -3.652  0.00  0.00    +0.007 A 
ATOM     18  F   UNL     1      -0.013  -0.166  -6.506  0.00  0.00    -0.205 F 
ENDBRANCH   8  12
BRANCH  11  19
ATOM     19  C   UNL     1      -0.797   2.154   0.923  0.00  0.00    +0.040 A 
ATOM     20  C   UNL     1      -0.709   2.781   2.159  0.00  0.00    +0.024 A 
ATOM     21  C   UNL     1      -1.761   3.547   2.620  0.00  0.00    +0.002 A 
ATOM     22  C   UNL     1      -2.907   3.680   1.858  0.00  0.00    +0.000 A 
ATOM     23  C   UNL     1      -3.001   3.052   0.629  0.00  0.00    +0.002 A 
ATOM     24  C   UNL     1      -1.950   2.289   0.160  0.00  0.00    +0.024 A 
ENDBRANCH  11  19
BRANCH   2  25
ATOM     25  C   UNL     1      -2.296  -2.606   1.707  0.00  0.00    -0.043 A 
ATOM     26  C   UNL     1      -1.893  -2.969   2.979  0.00  0.00    +0.004 A 
ATOM     27  C   UNL     1      -2.788  -3.573   3.841  0.00  0.00    +0.000 A 
ATOM     28  C   UNL     1      -4.084  -3.824   3.429  0.00  0.00    +0.000 A 
ATOM     29  C   UNL     1      -4.485  -3.467   2.155  0.00  0.00    +0.000 A 
ATOM     30  C   UNL     1      -3.591  -2.857   1.294  0.00  0.00    +0.004 A 
ENDBRANCH   2  25
BRANCH  10  31
ATOM     31  N   UNL     1       1.668   3.300   0.319  0.00  0.00    -0.346 N 
ATOM     32  H   UNL     1       2.582   3.580   0.483  0.00  0.00    +0.143 HD
ATOM     33  H   UNL     1       0.943   3.939   0.401  0.00  0.00    +0.143 HD
ENDBRANCH  10  31
BRANCH   1  34
ATOM     34  C   UNL     1      -0.555  -4.124  -0.136  0.00  0.00    +0.318 C 
ATOM     35  O   UNL     1      -1.720  -4.284  -0.415  0.00  0.00    -0.250 OA
BRANCH  34  37
ATOM     36  C   UNL     1      -0.155  -6.272  -1.088  0.00  0.00    +0.280 C 
ATOM     37  O   UNL     1       0.343  -5.076  -0.432  0.00  0.00    -0.467 OA
ENDBRANCH  34  37
ENDBRANCH   1  34
BRANCH   9  38
ATOM     38  C   UNL     1       3.408   1.968  -1.319  0.00  0.00    +0.339 C 
ATOM     39  O   UNL     1       3.580   3.153  -1.096  0.00  0.00    -0.245 OA
BRANCH  38  40
ATOM     40  O   UNL     1       4.328   1.272  -2.021  0.00  0.00    -0.465 OA
ATOM     41  C   UNL     1       5.479   1.989  -2.472  0.00  0.00    +0.280 C 
ENDBRANCH  38  40
ENDBRANCH   9  38
TORSDOF 8
