REMARK  Name = ZINC10066104
REMARK  8 active torsions:
REMARK  status: ('A' for Active; 'I' for Inactive)
REMARK    1  A    between atoms: C_1  and  N_57
REMARK    2  A    between atoms: C_2  and  N_57
REMARK    3  A    between atoms: C_3  and  C_4
REMARK    4  A    between atoms: C_3  and  N_57
REMARK    5  A    between atoms: C_4  and  N_5
REMARK    6  A    between atoms: C_10  and  O_15
REMARK    7  A    between atoms: O_15  and  C_16
REMARK    8  A    between atoms: C_17  and  C_19
REMARK                            x       y       z     vdW  Elec       q    Type
REMARK                         _______ _______ _______ _____ _____    ______ ____
ROOT
ATOM      1  N   UNL     1      -0.362  -4.074   0.435  0.00  0.00    -0.248 N 
ATOM      2  C   UNL     1      -0.298  -2.714   0.187  0.00  0.00    +0.168 A 
ATOM      3  N   UNL     1       0.729  -1.995  -0.203  0.00  0.00    -0.224 NA
ATOM      4  C   UNL     1       0.647  -0.663  -0.408  0.00  0.00    +0.084 A 
ATOM      5  C   UNL     1       1.670   0.220  -0.825  0.00  0.00    +0.074 A 
ATOM      6  C   UNL     1       1.415   1.561  -0.987  0.00  0.00    +0.122 A 
ATOM      7  C   UNL     1       0.152   2.094  -0.748  0.00  0.00    +0.047 A 
ATOM      8  C   UNL     1      -0.869   1.255  -0.340  0.00  0.00    +0.021 A 
ATOM      9  C   UNL     1      -0.622  -0.085  -0.176  0.00  0.00    +0.041 A 
ATOM     10  S   UNL     1      -1.593  -1.489   0.316  0.00  0.00    -0.052 S 
ATOM     11  C   UNL     1       0.736  -4.840   0.280  0.00  0.00    +0.259 C 
ATOM     12  O   UNL     1       1.791  -4.331  -0.048  0.00  0.00    -0.269 OA
ENDROOT
BRANCH  11  13
ATOM     13  C   UNL     1       0.659  -6.291   0.506  0.00  0.00    +0.122 A 
ATOM     14  C   UNL     1      -0.537  -6.975   0.326  0.00  0.00    +0.032 A 
ATOM     15  C   UNL     1      -0.562  -8.365   0.549  0.00  0.00    +0.026 A 
ATOM     16  C   UNL     1      -1.799  -9.127   0.365  0.00  0.00    -0.007 A 
ATOM     17  C   UNL     1      -2.985  -8.510  -0.039  0.00  0.00    +0.009 A 
ATOM     18  C   UNL     1      -4.116  -9.258  -0.198  0.00  0.00    +0.001 A 
ATOM     19  C   UNL     1      -4.103 -10.629   0.037  0.00  0.00    +0.001 A 
ATOM     20  C   UNL     1      -2.962 -11.261   0.433  0.00  0.00    +0.008 A 
ATOM     21  C   UNL     1      -1.782 -10.521   0.606  0.00  0.00    -0.017 A 
ATOM     22  C   UNL     1      -0.584 -11.140   1.014  0.00  0.00    +0.012 A 
ATOM     23  C   UNL     1       0.555 -10.422   1.180  0.00  0.00    +0.047 A 
ATOM     24  C   UNL     1       0.597  -9.040   0.957  0.00  0.00    +0.140 A 
ATOM     25  O   UNL     1       1.756  -8.371   1.136  0.00  0.00    -0.422 OA
ATOM     26  C   UNL     1       1.841  -7.046   0.933  0.00  0.00    +0.350 A 
ATOM     27  O   UNL     1       2.900  -6.472   1.103  0.00  0.00    -0.244 OA
ENDBRANCH  11  13
BRANCH   6  28
ATOM     28  O   UNL     1       2.420   2.385  -1.390  0.00  0.00    -0.495 OA
ATOM     29  C   UNL     1       2.101   3.770  -1.543  0.00  0.00    +0.277 C 
ENDBRANCH   6  28
BRANCH   1  30
ATOM     30  C   UNL     1      -1.623  -4.682   0.867  0.00  0.00    +0.097 C 
BRANCH  30  31
ATOM     31  C   UNL     1      -2.616  -4.679  -0.298  0.00  0.00    -0.060 C 
BRANCH  31  34
ATOM     32  C   UNL     1      -4.539  -4.464   1.157  0.00  0.00    -0.097 C 
ATOM     33  C   UNL     1      -4.772  -5.520  -1.009  0.00  0.00    -0.097 C 
ATOM     34  N   UNL     1      -3.874  -5.314   0.147  0.00  0.00    +0.377 N 
ATOM     35  H   UNL     1      -3.658  -6.225   0.568  0.00  0.00    -0.083 HD
ENDBRANCH  31  34
ENDBRANCH  30  31
ENDBRANCH   1  30
TORSDOF 5
