REMARK  Name = ZINC06824577
REMARK  9 active torsions:
REMARK  status: ('A' for Active; 'I' for Inactive)
REMARK    1  A    between atoms: C_1  and  C_2
REMARK    2  A    between atoms: C_9  and  N_14
REMARK    3  A    between atoms: C_10  and  C_11
REMARK    4  A    between atoms: N_14  and  C_15
REMARK    5  A    between atoms: C_15  and  N_17
REMARK    6  A    between atoms: C_18  and  C_20
REMARK    7  A    between atoms: C_20  and  C_21
REMARK    8  A    between atoms: C_20  and  C_22
REMARK    9  A    between atoms: C_20  and  C_23
REMARK                            x       y       z     vdW  Elec       q    Type
REMARK                         _______ _______ _______ _____ _____    ______ ____
ROOT
ATOM      1  C   UNL     1      -0.019   1.526   0.010  0.00  0.00    +0.008 C 
ATOM      2  C   UNL     1       0.002  -0.004   0.002  0.00  0.00    -0.009 C 
ATOM      3  C   UNL     1       0.742  -0.514   1.242  0.00  0.00    +0.008 C 
ATOM      4  C   UNL     1       0.984  -2.020   1.121  0.00  0.00    +0.037 C 
ATOM      5  C   UNL     1      -0.340  -2.706   0.809  0.00  0.00    -0.023 A 
ATOM      6  C   UNL     1      -1.390  -2.006   0.327  0.00  0.00    -0.004 A 
ATOM      7  S   UNL     1      -2.678  -3.203   0.125  0.00  0.00    -0.077 S 
ATOM      8  C   UNL     1      -1.837  -4.615   0.673  0.00  0.00    +0.084 A 
ATOM      9  C   UNL     1      -0.579  -4.127   0.999  0.00  0.00    +0.068 A 
ATOM     10  C   UNL     1      -1.437  -0.538   0.030  0.00  0.00    +0.046 C 
ENDROOT
BRANCH   9  11
ATOM     11  C   UNL     1       0.469  -5.011   1.516  0.00  0.00    +0.244 C 
ATOM     12  O   UNL     1       0.577  -5.192   2.715  0.00  0.00    -0.270 OA
ATOM     13  N   UNL     1       1.314  -5.625   0.663  0.00  0.00    -0.325 N 
ATOM     14  H   UNL     1       1.228  -5.480  -0.292  0.00  0.00    +0.145 HD
ATOM     15  H   UNL     1       2.008  -6.210   1.005  0.00  0.00    +0.145 HD
ENDBRANCH   9  11
BRANCH   8  16
ATOM     16  N   UNL     1      -2.305  -5.916   0.763  0.00  0.00    -0.291 N 
ATOM     17  H   UNL     1      -1.723  -6.620   1.090  0.00  0.00    +0.154 HD
BRANCH  16  18
ATOM     18  C   UNL     1      -3.570  -6.204   0.396  0.00  0.00    +0.141 C 
ATOM     19  S   UNL     1      -4.597  -4.962  -0.181  0.00  0.00    -0.018 S 
BRANCH  18  20
ATOM     20  N   UNL     1      -4.026  -7.469   0.484  0.00  0.00    -0.267 N 
ATOM     21  C   UNL     1      -5.290  -7.757   0.117  0.00  0.00    +0.224 C 
ATOM     22  O   UNL     1      -6.018  -6.877  -0.292  0.00  0.00    -0.275 OA
ATOM     23  H   UNL     1      -3.443  -8.172   0.811  0.00  0.00    +0.157 HD
BRANCH  21  24
ATOM     24  C   UNL     1      -5.800  -9.171   0.215  0.00  0.00    +0.039 C 
ATOM     25  C   UNL     1      -7.253  -9.224  -0.259  0.00  0.00    +0.020 C 
ATOM     26  C   UNL     1      -4.943 -10.084  -0.665  0.00  0.00    +0.020 C 
ATOM     27  C   UNL     1      -5.720  -9.643   1.668  0.00  0.00    +0.020 C 
ENDBRANCH  21  24
ENDBRANCH  18  20
ENDBRANCH  16  18
ENDBRANCH   8  16
TORSDOF 5
