REMARK  Name = ZINC00648012
REMARK  15 active torsions:
REMARK  status: ('A' for Active; 'I' for Inactive)
REMARK    1  A    between atoms: C_1  and  C_2
REMARK    2  A    between atoms: C_2  and  O_3
REMARK    3  A    between atoms: O_3  and  C_4
REMARK    4  A    between atoms: C_4  and  C_6
REMARK    5  A    between atoms: C_7  and  C_39
REMARK    6  A    between atoms: C_11  and  C_13
REMARK    7  A    between atoms: C_17  and  O_21
REMARK    8  A    between atoms: C_18  and  O_19
REMARK    9  A    between atoms: O_19  and  C_20
REMARK   10  A    between atoms: O_21  and  C_22
REMARK   11  A    between atoms: C_26  and  C_29
REMARK   12  A    between atoms: C_32  and  O_37
REMARK   13  A    between atoms: C_33  and  O_35
REMARK   14  A    between atoms: O_35  and  C_36
REMARK   15  A    between atoms: O_37  and  C_38
REMARK                            x       y       z     vdW  Elec       q    Type
REMARK                         _______ _______ _______ _____ _____    ______ ____
ROOT
ATOM      1  C   UNL     1       4.455   0.083  -1.149  0.00  0.00    +0.065 C 
ATOM      2  C   UNL     1       5.397   1.033  -1.016  0.00  0.00    +0.016 C 
ATOM      3  N   UNL     1       5.735   1.504   0.222  0.00  0.00    -0.321 N 
ATOM      4  C   UNL     1       5.444   0.780   1.347  0.00  0.00    +0.016 C 
ATOM      5  C   UNL     1       4.498  -0.182   1.316  0.00  0.00    +0.024 C 
ATOM      6  C   UNL     1       3.743  -0.480   0.045  0.00  0.00    +0.096 C 
ATOM      7  C   UNL     1       4.188  -0.931   2.465  0.00  0.00    +0.162 C 
ATOM      8  O   UNL     1       3.341  -1.800   2.401  0.00  0.00    -0.292 OA
ATOM      9  C   UNL     1       4.886  -0.676   3.773  0.00  0.00    +0.088 C 
ATOM     10  C   UNL     1       5.323   0.791   3.828  0.00  0.00    +0.032 C 
ATOM     11  C   UNL     1       6.208   1.080   2.613  0.00  0.00    +0.059 C 
ATOM     12  C   UNL     1       6.084   1.583  -2.240  0.00  0.00    +0.061 C 
ATOM     13  H   UNL     1       6.246   2.473   0.321  0.00  0.00    +0.152 HD
ENDROOT
BRANCH   6  14
ATOM     14  C   UNL     1       2.367   0.127   0.134  0.00  0.00    +0.010 A 
ATOM     15  C   UNL     1       2.221   1.500   0.214  0.00  0.00    +0.008 A 
ATOM     16  C   UNL     1       0.960   2.060   0.296  0.00  0.00    +0.004 A 
ATOM     17  C   UNL     1      -0.161   1.250   0.297  0.00  0.00    +0.049 A 
ATOM     18  C   UNL     1      -0.022  -0.126   0.216  0.00  0.00    +0.162 A 
ATOM     19  C   UNL     1       1.248  -0.690   0.134  0.00  0.00    +0.166 A 
BRANCH  19  20
ATOM     20  O   UNL     1       1.390  -2.040   0.054  0.00  0.00    -0.491 OA
ATOM     21  C   UNL     1       1.276  -2.629  -1.243  0.00  0.00    +0.277 C 
ENDBRANCH  19  20
BRANCH  18  22
ATOM     22  O   UNL     1      -1.123  -0.923   0.216  0.00  0.00    -0.491 OA
ATOM     23  C   UNL     1      -2.394  -0.275   0.302  0.00  0.00    +0.277 C 
ENDBRANCH  18  22
ENDBRANCH   6  14
BRANCH  10  24
ATOM     24  C   UNL     1       6.098   1.043   5.095  0.00  0.00    -0.040 A 
ATOM     25  C   UNL     1       7.263   0.340   5.342  0.00  0.00    +0.008 A 
ATOM     26  C   UNL     1       7.977   0.567   6.504  0.00  0.00    +0.049 A 
ATOM     27  C   UNL     1       7.526   1.501   7.423  0.00  0.00    +0.161 A 
ATOM     28  C   UNL     1       6.354   2.208   7.175  0.00  0.00    +0.162 A 
ATOM     29  C   UNL     1       5.645   1.979   6.006  0.00  0.00    +0.053 A 
BRANCH  28  30
ATOM     30  O   UNL     1       5.908   3.125   8.074  0.00  0.00    -0.491 OA
ATOM     31  C   UNL     1       4.697   3.813   7.752  0.00  0.00    +0.277 C 
ENDBRANCH  28  30
BRANCH  27  32
ATOM     32  O   UNL     1       8.228   1.726   8.566  0.00  0.00    -0.491 OA
ATOM     33  C   UNL     1       9.422   0.964   8.755  0.00  0.00    +0.277 C 
ENDBRANCH  27  32
ENDBRANCH  10  24
BRANCH   1  34
ATOM     34  C   UNL     1       4.128  -0.394  -2.440  0.00  0.00    +0.338 C 
ATOM     35  O   UNL     1       4.571  -1.459  -2.825  0.00  0.00    -0.245 OA
BRANCH  34  36
ATOM     36  O   UNL     1       3.325   0.334  -3.245  0.00  0.00    -0.462 OA
BRANCH  36  38
ATOM     37  C   UNL     1       2.132   0.748  -5.305  0.00  0.00    +0.048 C 
ATOM     38  C   UNL     1       2.941  -0.260  -4.486  0.00  0.00    +0.229 C 
ENDBRANCH  36  38
ENDBRANCH  34  36
ENDBRANCH   1  34
TORSDOF 9
