REMARK  Name = ZINC40144302
REMARK  6 active torsions:
REMARK  status: ('A' for Active; 'I' for Inactive)
REMARK    1  A    between atoms: C_1  and  C_2
REMARK    2  A    between atoms: C_2  and  C_4
REMARK    3  A    between atoms: C_2  and  N_20
REMARK    4  A    between atoms: N_6  and  C_7
REMARK    5  A    between atoms: C_7  and  C_8
REMARK    6  A    between atoms: C_21  and  C_23
REMARK                            x       y       z     vdW  Elec       q    Type
REMARK                         _______ _______ _______ _____ _____    ______ ____
ROOT
ATOM      1  C   UNL     1      -1.412  -0.526   0.013  0.00  0.00    +0.233 C 
ATOM      2  O   UNL     1      -1.790  -1.233   0.922  0.00  0.00    -0.274 OA
ATOM      3  N   UNL     1      -2.256  -0.206  -0.988  0.00  0.00    -0.310 N 
ATOM      4  H   UNL     1      -1.953   0.360  -1.716  0.00  0.00    +0.149 HD
ENDROOT
BRANCH   1   6
ATOM      5  C   UNL     1      -0.019   1.526   0.010  0.00  0.00    +0.038 C 
ATOM      6  C   UNL     1       0.002  -0.004   0.002  0.00  0.00    +0.156 C 
BRANCH   6   7
ATOM      7  N   UNL     1       0.711  -0.489   1.189  0.00  0.00    -0.304 N 
ATOM      8  C   UNL     1       2.054  -0.600   1.174  0.00  0.00    +0.217 C 
ATOM      9  O   UNL     1       2.676  -0.297   0.177  0.00  0.00    -0.275 OA
ATOM     10  H   UNL     1       0.213  -0.731   1.986  0.00  0.00    +0.149 HD
BRANCH   8  11
ATOM     11  C   UNL     1       2.783  -1.099   2.395  0.00  0.00    +0.075 C 
ATOM     12  C   UNL     1       2.566  -0.128   3.573  0.00  0.00    +0.013 C 
ATOM     13  C   UNL     1       3.926  -0.120   4.314  0.00  0.00    +0.001 C 
ATOM     14  C   UNL     1       4.948  -0.183   3.152  0.00  0.00    +0.001 C 
ATOM     15  C   UNL     1       4.298  -1.134   2.127  0.00  0.00    +0.013 C 
ENDBRANCH   8  11
ENDBRANCH   6   7
ENDBRANCH   1   6
BRANCH   3  16
ATOM     16  C   UNL     1      -3.630  -0.713  -0.978  0.00  0.00    +0.139 C 
BRANCH  16  17
ATOM     17  C   UNL     1      -4.359  -0.214  -2.199  0.00  0.00    -0.025 A 
ATOM     18  C   UNL     1      -5.041   0.989  -2.151  0.00  0.00    +0.054 A 
ATOM     19  C   UNL     1      -5.709   1.445  -3.275  0.00  0.00    +0.164 A 
ATOM     20  C   UNL     1      -5.694   0.698  -4.444  0.00  0.00    +0.180 A 
ATOM     21  C   UNL     1      -5.010  -0.506  -4.489  0.00  0.00    +0.086 A 
ATOM     22  C   UNL     1      -4.338  -0.956  -3.365  0.00  0.00    +0.029 A 
ATOM     23 CL   UNL     1      -4.989  -1.442  -5.951  0.00  0.00    -0.080 Cl
ATOM     24  O   UNL     1      -6.355   1.157  -5.546  0.00  0.00    -0.487 OA
ATOM     25  C   UNL     1      -7.781   1.179  -5.455  0.00  0.00    +0.232 C 
ATOM     26  C   UNL     1      -8.258   2.453  -4.776  0.00  0.00    +0.082 C 
ATOM     27  C   UNL     1      -7.809   2.539  -3.325  0.00  0.00    +0.232 C 
ATOM     28  O   UNL     1      -6.386   2.630  -3.240  0.00  0.00    -0.488 OA
ENDBRANCH  16  17
ENDBRANCH   3  16
TORSDOF 5
