REMARK  Name = ZINC40316726
REMARK  13 active torsions:
REMARK  status: ('A' for Active; 'I' for Inactive)
REMARK    1  A    between atoms: C_1  and  C_2
REMARK    2  A    between atoms: C_2  and  C_3
REMARK    3  A    between atoms: C_2  and  C_4
REMARK    4  A    between atoms: C_2  and  C_5
REMARK    5  A    between atoms: C_8  and  C_11
REMARK    6  A    between atoms: C_11  and  N_12
REMARK    7  A    between atoms: N_12  and  C_13
REMARK    8  A    between atoms: N_12  and  C_26
REMARK    9  A    between atoms: C_13  and  C_14
REMARK   10  A    between atoms: C_14  and  C_16
REMARK   11  A    between atoms: C_14  and  O_25
REMARK   12  A    between atoms: C_16  and  O_17
REMARK   13  A    between atoms: O_17  and  C_18
REMARK                            x       y       z     vdW  Elec       q    Type
REMARK                         _______ _______ _______ _____ _____    ______ ____
ROOT
ATOM      1  N   UNL     1       2.568  -0.948  -5.710  0.00  0.00    +0.387 N 
ATOM      2  H   UNL     1       2.875  -0.125  -5.213  0.00  0.00    -0.081 HD
ENDROOT
BRANCH   1   3
ATOM      3  C   UNL     1       1.100  -0.965  -5.767  0.00  0.00    -0.045 C 
ATOM      4  C   UNL     1       0.522  -0.501  -4.420  0.00  0.00    +0.009 C 
ATOM      5  C   UNL     1      -0.992  -0.818  -4.358  0.00  0.00    +0.164 C 
ATOM      6  S   UNL     1      -1.143  -2.282  -5.460  0.00  0.00    -0.033 S 
ATOM      7  O   UNL     1      -1.970  -1.945  -6.565  0.00  0.00    -0.174 OA
ATOM      8  O   UNL     1      -1.459  -3.422  -4.672  0.00  0.00    -0.174 OA
ATOM      9  C   UNL     1       0.602  -2.414  -6.034  0.00  0.00    +0.151 C 
ENDBRANCH   1   3
BRANCH   1  10
ATOM     10  C   UNL     1       3.045  -2.148  -5.010  0.00  0.00    -0.042 C 
BRANCH  10  14
ATOM     11  C   UNL     1       2.001  -1.900  -0.876  0.00  0.00    -0.042 A 
ATOM     12  C   UNL     1       1.230  -2.655  -1.739  0.00  0.00    +0.004 A 
ATOM     13  C   UNL     1       1.567  -2.736  -3.077  0.00  0.00    +0.002 A 
ATOM     14  C   UNL     1       2.676  -2.060  -3.552  0.00  0.00    -0.064 A 
ATOM     15  C   UNL     1       3.447  -1.304  -2.688  0.00  0.00    +0.002 A 
ATOM     16  C   UNL     1       3.107  -1.221  -1.351  0.00  0.00    +0.004 A 
BRANCH  11  18
ATOM     17  C   UNL     1       1.357  -0.354   0.953  0.00  0.00    +0.015 C 
ATOM     18  C   UNL     1       1.633  -1.813   0.583  0.00  0.00    -0.013 C 
ATOM     19  C   UNL     1       2.787  -2.346   1.433  0.00  0.00    +0.015 C 
ATOM     20  C   UNL     1       0.379  -2.651   0.843  0.00  0.00    +0.015 C 
ENDBRANCH  11  18
ENDBRANCH  10  14
ENDBRANCH   1  10
BRANCH   1  21
ATOM     21  C   UNL     1       3.111  -0.927  -7.074  0.00  0.00    -0.043 C 
BRANCH  21  22
ATOM     22  C   UNL     1       2.752   0.399  -7.747  0.00  0.00    +0.135 C 
BRANCH  22  23
ATOM     23  O   UNL     1       3.348   1.477  -7.023  0.00  0.00    -0.390 OA
ATOM     24  H   UNL     1       4.313   1.433  -6.976  0.00  0.00    +0.210 HD
ENDBRANCH  22  23
BRANCH  22  25
ATOM     25  C   UNL     1       3.274   0.400  -9.185  0.00  0.00    +0.258 C 
BRANCH  25  26
ATOM     26  O   UNL     1       2.839   1.588  -9.849  0.00  0.00    -0.489 OA
BRANCH  26  27
ATOM     27  C   UNL     1       3.220   1.746 -11.144  0.00  0.00    +0.121 A 
ATOM     28  C   UNL     1       3.991   0.774 -11.764  0.00  0.00    +0.047 A 
ATOM     29  C   UNL     1       4.378   0.937 -13.081  0.00  0.00    +0.019 A 
ATOM     30  C   UNL     1       3.995   2.067 -13.780  0.00  0.00    +0.018 A 
ATOM     31  C   UNL     1       3.226   3.038 -13.163  0.00  0.00    +0.019 A 
ATOM     32  C   UNL     1       2.833   2.876 -11.849  0.00  0.00    +0.047 A 
ATOM     33 BR   UNL     1       4.525   2.287 -15.582  0.00  0.00    -0.050 Br
ENDBRANCH  26  27
ENDBRANCH  25  26
ENDBRANCH  22  25
ENDBRANCH  21  22
ENDBRANCH   1  21
TORSDOF 10
