REMARK  Name = ZINC36725890
REMARK  9 active torsions:
REMARK  status: ('A' for Active; 'I' for Inactive)
REMARK    1  A    between atoms: C_1  and  N_2
REMARK    2  A    between atoms: N_2  and  C_3
REMARK    3  A    between atoms: N_2  and  C_4
REMARK    4  A    between atoms: C_7  and  C_13
REMARK    5  A    between atoms: C_9  and  N_10
REMARK    6  A    between atoms: N_15  and  C_16
REMARK    7  A    between atoms: C_16  and  C_18
REMARK    8  A    between atoms: C_16  and  C_25
REMARK    9  A    between atoms: C_18  and  C_19
REMARK                            x       y       z     vdW  Elec       q    Type
REMARK                         _______ _______ _______ _____ _____    ______ ____
ROOT
ATOM      1  C   UNL     1       1.158  -3.845  -6.761  0.00  0.00    +0.143 C 
ENDROOT
BRANCH   1   2
ATOM      2  C   UNL     1       1.016  -2.865  -7.897  0.00  0.00    +0.129 A 
ATOM      3  N   UNL     1      -0.050  -2.797  -8.739  0.00  0.00    -0.340 N 
ATOM      4  H   UNL     1      -0.840  -3.361  -8.714  0.00  0.00    +0.167 HD
ATOM      5  C   UNL     1       0.199  -1.778  -9.636  0.00  0.00    +0.066 A 
ATOM      6  C   UNL     1      -0.501  -1.241 -10.708  0.00  0.00    +0.028 A 
ATOM      7  C   UNL     1       0.042  -0.194 -11.422  0.00  0.00    +0.002 A 
ATOM      8  C   UNL     1       1.281   0.326 -11.076  0.00  0.00    +0.002 A 
ATOM      9  C   UNL     1       1.984  -0.190 -10.024  0.00  0.00    +0.030 A 
ATOM     10  C   UNL     1       1.453  -1.251  -9.286  0.00  0.00    +0.089 A 
ATOM     11  N   UNL     1       1.893  -1.958  -8.213  0.00  0.00    -0.231 NA
ENDBRANCH   1   2
BRANCH   1  14
ATOM     12  C   UNL     1      -0.006  -2.797  -4.894  0.00  0.00    +0.245 C 
ATOM     13  O   UNL     1      -1.060  -3.108  -5.415  0.00  0.00    -0.270 OA
ATOM     14  N   UNL     1       1.160  -3.119  -5.488  0.00  0.00    -0.301 N 
ATOM     15  H   UNL     1       2.001  -2.871  -5.073  0.00  0.00    +0.150 HD
BRANCH  12  19
ATOM     16  C   UNL     1       0.000  -0.693  -1.206  0.00  0.00    +0.060 A 
ATOM     17  C   UNL     1       1.206  -1.026  -1.818  0.00  0.00    +0.026 A 
ATOM     18  C   UNL     1       1.207  -1.707  -3.013  0.00  0.00    +0.015 A 
ATOM     19  C   UNL     1      -0.004  -2.066  -3.613  0.00  0.00    +0.039 A 
ATOM     20  C   UNL     1      -1.213  -1.731  -2.996  0.00  0.00    +0.047 A 
ATOM     21  C   UNL     1      -1.207  -1.053  -1.798  0.00  0.00    +0.148 A 
BRANCH  16  23
ATOM     22  C   UNL     1      -0.018   1.461   0.010  0.00  0.00    +0.129 C 
ATOM     23  N   UNL     1       0.002  -0.004   0.002  0.00  0.00    -0.334 N 
ATOM     24  C   UNL     1       0.024  -0.743   1.267  0.00  0.00    +0.129 C 
ENDBRANCH  16  23
BRANCH  21  25
ATOM     25  N   UNL     1      -2.486  -0.703  -1.141  0.00  0.00    +0.058 N 
ATOM     26  O   UNL     1      -3.535  -1.015  -1.655  0.00  0.00    -0.126 OA
ATOM     27  O   UNL     1      -2.482  -0.103  -0.091  0.00  0.00    -0.126 OA
ENDBRANCH  21  25
ENDBRANCH  12  19
ENDBRANCH   1  14
BRANCH   1  28
ATOM     28  C   UNL     1       2.471  -4.614  -6.912  0.00  0.00    +0.065 C 
BRANCH  28  29
ATOM     29  C   UNL     1       2.556  -5.677  -5.847  0.00  0.00    -0.045 A 
ATOM     30  C   UNL     1       3.129  -5.386  -4.623  0.00  0.00    +0.004 A 
ATOM     31  C   UNL     1       3.207  -6.361  -3.646  0.00  0.00    +0.000 A 
ATOM     32  C   UNL     1       2.711  -7.627  -3.893  0.00  0.00    +0.000 A 
ATOM     33  C   UNL     1       2.137  -7.918  -5.116  0.00  0.00    +0.000 A 
ATOM     34  C   UNL     1       2.055  -6.942  -6.092  0.00  0.00    +0.004 A 
ENDBRANCH  28  29
ENDBRANCH   1  28
TORSDOF 7
