REMARK  Name = ZINC39237524
REMARK  8 active torsions:
REMARK  status: ('A' for Active; 'I' for Inactive)
REMARK    1  A    between atoms: C_1  and  C_2
REMARK    2  A    between atoms: C_3  and  C_23
REMARK    3  A    between atoms: C_5  and  C_7
REMARK    4  A    between atoms: C_15  and  C_16
REMARK    5  A    between atoms: C_18  and  N_22
REMARK    6  A    between atoms: C_19  and  C_20
REMARK    7  A    between atoms: C_23  and  S_24
REMARK    8  A    between atoms: S_24  and  C_25
REMARK                            x       y       z     vdW  Elec       q    Type
REMARK                         _______ _______ _______ _____ _____    ______ ____
ROOT
ATOM      1  C   UNL     1       0.690  -4.246  -0.066  0.00  0.00    +0.085 C 
ATOM      2  C   UNL     1       1.247  -4.536   1.297  0.00  0.00    +0.108 C 
ATOM      3  C   UNL     1       1.313  -6.030   1.653  0.00  0.00    +0.286 C 
ATOM      4  N   UNL     1       1.268  -5.917   3.144  0.00  0.00    -0.230 N 
ATOM      5  N   UNL     1       0.534  -4.756   3.425  0.00  0.00    -0.193 NA
ATOM      6  C   UNL     1       0.484  -3.950   2.449  0.00  0.00    +0.043 C 
ATOM      7  C   UNL     1      -0.215  -2.614   2.459  0.00  0.00    +0.063 C 
ATOM      8  O   UNL     1       0.106  -6.697   1.282  0.00  0.00    -0.455 OA
ATOM      9  C   UNL     1      -0.582  -6.352   0.193  0.00  0.00    +0.194 C 
ATOM     10  C   UNL     1      -0.412  -5.192  -0.447  0.00  0.00    +0.094 C 
ATOM     11  H   UNL     1       1.667  -6.524   3.787  0.00  0.00    +0.172 HD
ENDROOT
BRANCH   1  16
ATOM     12  C   UNL     1      -0.382   1.315  -0.206  0.00  0.00    +0.052 C 
ATOM     13  C   UNL     1      -0.358  -0.191  -0.150  0.00  0.00    -0.009 A 
ATOM     14  C   UNL     1      -1.395  -1.058  -0.048  0.00  0.00    -0.027 A 
ATOM     15  C   UNL     1      -1.134  -2.415  -0.014  0.00  0.00    +0.016 A 
ATOM     16  C   UNL     1       0.152  -2.839  -0.083  0.00  0.00    -0.001 A 
ATOM     17  S   UNL     1       1.042  -1.296  -0.208  0.00  0.00    -0.097 S 
BRANCH  14  18
ATOM     18  C   UNL     1      -2.812  -0.550   0.027  0.00  0.00    +0.110 C 
BRANCH  18  19
ATOM     19  S   UNL     1      -3.494  -0.410  -1.648  0.00  0.00    -0.120 S 
BRANCH  19  20
ATOM     20  C   UNL     1      -5.132   0.187  -1.393  0.00  0.00    +0.008 A 
ATOM     21  C   UNL     1      -5.590   0.434  -0.104  0.00  0.00    +0.016 A 
ATOM     22  C   UNL     1      -6.874   0.902   0.093  0.00  0.00    +0.021 A 
ATOM     23  C   UNL     1      -7.705   1.125  -0.992  0.00  0.00    +0.041 A 
ATOM     24  C   UNL     1      -7.252   0.879  -2.276  0.00  0.00    +0.021 A 
ATOM     25  C   UNL     1      -5.967   0.417  -2.480  0.00  0.00    +0.016 A 
ATOM     26 CL   UNL     1      -9.319   1.713  -0.740  0.00  0.00    -0.084 Cl
ENDBRANCH  19  20
ENDBRANCH  18  19
ENDBRANCH  14  18
ENDBRANCH   1  16
BRANCH   9  27
ATOM     27  N   UNL     1      -1.544  -7.214  -0.271  0.00  0.00    -0.329 N 
ATOM     28  H   UNL     1      -1.709  -8.050   0.191  0.00  0.00    +0.145 HD
ATOM     29  H   UNL     1      -2.059  -6.987  -1.061  0.00  0.00    +0.145 HD
ENDBRANCH   9  27
BRANCH  10  30
ATOM     30  C   UNL     1      -1.272  -4.865  -1.544  0.00  0.00    +0.100 C 
ATOM     31  N   UNL     1      -1.954  -4.606  -2.415  0.00  0.00    -0.191 NA
ENDBRANCH  10  30
TORSDOF 6
