REMARK  Name = ZINC38558100
REMARK  3 active torsions:
REMARK  status: ('A' for Active; 'I' for Inactive)
REMARK    1  A    between atoms: C_8  and  C_16
REMARK    2  A    between atoms: C_18  and  O_33
REMARK    3  A    between atoms: N_20  and  C_26
REMARK                            x       y       z     vdW  Elec       q    Type
REMARK                         _______ _______ _______ _____ _____    ______ ____
ROOT
ATOM      1  C   UNL     1      -6.661  -0.472   0.971  0.00  0.00    +0.145 C 
ATOM      2  C   UNL     1      -8.189  -0.487   1.045  0.00  0.00    +0.225 C 
ATOM      3  N   UNL     1      -8.658   0.720   1.727  0.00  0.00    -0.228 N 
ATOM      4  C   UNL     1      -7.964   1.251   2.747  0.00  0.00    +0.315 C 
ATOM      5  O   UNL     1      -8.432   2.191   3.358  0.00  0.00    -0.252 OA
ATOM      6  N   UNL     1      -6.764   0.766   3.108  0.00  0.00    -0.239 N 
ATOM      7  C   UNL     1      -6.102  -0.104   2.322  0.00  0.00    +0.229 C 
ATOM      8  O   UNL     1      -5.058  -0.593   2.700  0.00  0.00    -0.275 OA
ATOM      9  H   UNL     1      -6.368   1.048   3.947  0.00  0.00    +0.159 HD
ENDROOT
BRANCH   1  17
ATOM     10  C   UNL     1      -0.176   1.050  -0.709  0.00  0.00    +0.001 A 
ATOM     11  C   UNL     1      -0.227  -0.337  -0.714  0.00  0.00    +0.002 A 
ATOM     12  C   UNL     1      -1.430  -0.996  -0.590  0.00  0.00    +0.026 A 
ATOM     13  C   UNL     1      -2.607  -0.268  -0.460  0.00  0.00    +0.047 A 
ATOM     14  N   UNL     1      -3.932  -0.626  -0.322  0.00  0.00    -0.356 N 
ATOM     15  C   UNL     1      -4.708   0.491  -0.230  0.00  0.00    +0.038 A 
ATOM     16  H   UNL     1      -4.262  -1.538  -0.294  0.00  0.00    +0.166 HD
ATOM     17  C   UNL     1      -6.210   0.557  -0.067  0.00  0.00    +0.117 C 
ATOM     18  N   UNL     1      -6.568   1.911   0.388  0.00  0.00    -0.307 NA
ATOM     19  C   UNL     1      -5.977   2.943  -0.475  0.00  0.00    +0.086 C 
ATOM     20  C   UNL     1      -4.461   2.999  -0.239  0.00  0.00    +0.052 C 
ATOM     21  C   UNL     1      -3.930   1.590  -0.305  0.00  0.00    -0.016 A 
ATOM     22  C   UNL     1      -2.552   1.140  -0.455  0.00  0.00    +0.003 A 
ATOM     23  C   UNL     1      -1.320   1.786  -0.576  0.00  0.00    +0.010 A 
ATOM     24  H   UNL     1      -7.570   2.019   0.447  0.00  0.00    +0.123 HD
ENDBRANCH   1  17
BRANCH   3  25
ATOM     25  C   UNL     1      -9.847   1.331   1.310  0.00  0.00    +0.040 A 
ATOM     26  C   UNL     1     -11.052   0.649   1.409  0.00  0.00    +0.025 A 
ATOM     27  C   UNL     1     -12.223   1.254   0.997  0.00  0.00    +0.022 A 
ATOM     28  C   UNL     1     -12.196   2.539   0.485  0.00  0.00    +0.041 A 
ATOM     29  C   UNL     1     -10.996   3.221   0.384  0.00  0.00    +0.022 A 
ATOM     30  C   UNL     1      -9.823   2.623   0.801  0.00  0.00    +0.025 A 
ATOM     31 CL   UNL     1     -13.670   3.297  -0.032  0.00  0.00    -0.084 Cl
ENDBRANCH   3  25
BRANCH   2  32
ATOM     32  O   UNL     1      -8.730  -0.527  -0.278  0.00  0.00    -0.373 OA
ATOM     33  H   UNL     1      -9.690  -0.637  -0.307  0.00  0.00    +0.212 HD
ENDBRANCH   2  32
TORSDOF 3
