REMARK  Name = ZINC35688791
REMARK  11 active torsions:
REMARK  status: ('A' for Active; 'I' for Inactive)
REMARK    1  A    between atoms: C_1  and  C_2
REMARK    2  A    between atoms: C_2  and  C_3
REMARK    3  A    between atoms: C_3  and  C_5
REMARK    4  A    between atoms: C_3  and  N_22
REMARK    5  A    between atoms: N_15  and  C_16
REMARK    6  A    between atoms: N_22  and  C_23
REMARK    7  A    between atoms: C_23  and  C_24
REMARK    8  A    between atoms: C_24  and  N_25
REMARK    9  A    between atoms: N_25  and  C_26
REMARK   10  A    between atoms: N_25  and  C_27
REMARK   11  A    between atoms: C_28  and  C_30
REMARK                            x       y       z     vdW  Elec       q    Type
REMARK                         _______ _______ _______ _____ _____    ______ ____
ROOT
ATOM      1  C   UNL     1       1.544   0.728  -1.019  0.00  0.00    +0.143 C 
ENDROOT
BRANCH   1   2
ATOM      2  C   UNL     1       2.269   0.126  -2.195  0.00  0.00    +0.138 A 
ATOM      3  N   UNL     1       3.241  -0.702  -1.962  0.00  0.00    -0.231 NA
ATOM      4  C   UNL     1       3.938  -1.283  -2.971  0.00  0.00    +0.078 A 
ATOM      5  C   UNL     1       4.984  -2.174  -2.721  0.00  0.00    +0.028 A 
ATOM      6  C   UNL     1       5.664  -2.740  -3.775  0.00  0.00    +0.002 A 
ATOM      7  C   UNL     1       5.324  -2.436  -5.087  0.00  0.00    +0.001 A 
ATOM      8  C   UNL     1       4.297  -1.560  -5.359  0.00  0.00    +0.015 A 
ATOM      9  C   UNL     1       3.595  -0.976  -4.306  0.00  0.00    +0.065 A 
ATOM     10  C   UNL     1       2.489  -0.035  -4.537  0.00  0.00    +0.266 A 
ATOM     11  O   UNL     1       2.144   0.271  -5.663  0.00  0.00    -0.267 OA
ATOM     12  N   UNL     1       1.867   0.474  -3.448  0.00  0.00    -0.263 N 
BRANCH  12  13
ATOM     13  C   UNL     1       0.804   1.371  -3.611  0.00  0.00    +0.051 A 
ATOM     14  C   UNL     1       0.926   2.682  -3.171  0.00  0.00    +0.026 A 
ATOM     15  C   UNL     1      -0.124   3.564  -3.334  0.00  0.00    +0.002 A 
ATOM     16  C   UNL     1      -1.296   3.143  -3.936  0.00  0.00    +0.000 A 
ATOM     17  C   UNL     1      -1.420   1.838  -4.376  0.00  0.00    +0.002 A 
ATOM     18  C   UNL     1      -0.372   0.953  -4.220  0.00  0.00    +0.026 A 
ENDBRANCH  12  13
ENDBRANCH   1   2
BRANCH   1  19
ATOM     19  N   UNL     1       1.829  -0.059   0.184  0.00  0.00    -0.289 N 
ATOM     20  C   UNL     1       2.748   0.373   1.070  0.00  0.00    +0.247 C 
ATOM     21  O   UNL     1       3.245   1.475   0.942  0.00  0.00    -0.270 OA
BRANCH  20  22
ATOM     22  C   UNL     1       3.152  -0.493   2.196  0.00  0.00    +0.041 A 
ATOM     23  C   UNL     1       3.294  -1.869   2.005  0.00  0.00    +0.017 A 
ATOM     24  C   UNL     1       3.672  -2.675   3.056  0.00  0.00    +0.050 A 
ATOM     25  C   UNL     1       3.912  -2.124   4.308  0.00  0.00    +0.166 A 
ATOM     26  C   UNL     1       3.771  -0.750   4.505  0.00  0.00    +0.167 A 
ATOM     27  C   UNL     1       3.398   0.064   3.454  0.00  0.00    +0.062 A 
ATOM     28  O   UNL     1       4.061  -0.466   5.809  0.00  0.00    -0.453 OA
ATOM     29  C   UNL     1       3.982  -1.725   6.503  0.00  0.00    +0.466 C 
ATOM     30  O   UNL     1       4.290  -2.697   5.486  0.00  0.00    -0.453 OA
ENDBRANCH  20  22
BRANCH  19  31
ATOM     31  C   UNL     1       1.113  -1.315   0.424  0.00  0.00    +0.090 C 
BRANCH  31  32
ATOM     32  C   UNL     1       1.792  -2.445  -0.354  0.00  0.00    -0.060 C 
BRANCH  32  33
ATOM     33  N   UNL     1       1.739  -3.683   0.435  0.00  0.00    +0.377 N 
ATOM     34  C   UNL     1       0.340  -4.104   0.592  0.00  0.00    -0.097 C 
ATOM     35  C   UNL     1       2.493  -4.737  -0.257  0.00  0.00    -0.097 C 
ATOM     36  H   UNL     1       2.145  -3.520   1.344  0.00  0.00    -0.083 HD
ENDBRANCH  32  33
ENDBRANCH  31  32
ENDBRANCH  19  31
ENDBRANCH   1  19
BRANCH   1  38
ATOM     37  C   UNL     1      -0.701   1.280  -0.072  0.00  0.00    +0.006 C 
ATOM     38  C   UNL     1       0.038   0.720  -1.289  0.00  0.00    +0.027 C 
ENDBRANCH   1  38
TORSDOF 8
