REMARK  Name = ZINC16024751
REMARK  9 active torsions:
REMARK  status: ('A' for Active; 'I' for Inactive)
REMARK    1  A    between atoms: C_1  and  C_2
REMARK    2  A    between atoms: C_2  and  C_3
REMARK    3  A    between atoms: C_3  and  C_4
REMARK    4  A    between atoms: C_4  and  N_5
REMARK    5  A    between atoms: C_10  and  C_29
REMARK    6  A    between atoms: C_20  and  C_28
REMARK    7  A    between atoms: C_22  and  C_27
REMARK    8  A    between atoms: C_29  and  C_30
REMARK    9  A    between atoms: C_33  and  O_36
REMARK                            x       y       z     vdW  Elec       q    Type
REMARK                         _______ _______ _______ _____ _____    ______ ____
ROOT
ATOM      1  N   UNL     1       1.425  -2.500  -2.470  0.00  0.00    -0.242 N 
ATOM      2  C   UNL     1       0.784  -2.738  -3.621  0.00  0.00    +0.227 C 
ATOM      3  O   UNL     1      -0.407  -2.601  -3.801  0.00  0.00    -0.275 OA
ATOM      4  C   UNL     1       1.777  -3.205  -4.661  0.00  0.00    +0.107 C 
ATOM      5  C   UNL     1       1.495  -4.681  -5.010  0.00  0.00    +0.072 C 
ATOM      6  N   UNL     1       2.257  -5.464  -4.001  0.00  0.00    -0.295 NA
ATOM      7  C   UNL     1       3.513  -4.710  -3.832  0.00  0.00    +0.136 C 
ATOM      8  C   UNL     1       3.127  -3.210  -3.892  0.00  0.00    +0.122 C 
ATOM      9  C   UNL     1       2.743  -2.723  -2.512  0.00  0.00    +0.228 C 
ATOM     10  O   UNL     1       3.510  -2.562  -1.587  0.00  0.00    -0.275 OA
ATOM     11  C   UNL     1       4.514  -5.058  -4.896  0.00  0.00    +0.004 A 
ATOM     12  C   UNL     1       4.502  -4.982  -6.271  0.00  0.00    +0.011 A 
ATOM     13  C   UNL     1       5.607  -5.390  -6.997  0.00  0.00    -0.050 A 
ATOM     14  C   UNL     1       6.722  -5.875  -6.338  0.00  0.00    +0.008 A 
ATOM     15  C   UNL     1       6.739  -5.954  -4.961  0.00  0.00    -0.029 A 
ATOM     16  C   UNL     1       5.631  -5.545  -4.223  0.00  0.00    +0.042 A 
ATOM     17  N   UNL     1       5.409  -5.527  -2.844  0.00  0.00    -0.283 N 
ATOM     18  C   UNL     1       4.188  -5.052  -2.531  0.00  0.00    +0.243 C 
ATOM     19  O   UNL     1       3.724  -4.923  -1.418  0.00  0.00    -0.273 OA
ATOM     20  C   UNL     1       7.960  -6.483  -4.254  0.00  0.00    +0.045 C 
ATOM     21  C   UNL     1       5.595  -5.308  -8.501  0.00  0.00    +0.044 C 
ATOM     22  H   UNL     1       1.751  -5.523  -3.130  0.00  0.00    +0.124 HD
ATOM     23  H   UNL     1       6.059  -5.824  -2.187  0.00  0.00    +0.155 HD
ENDROOT
BRANCH   1  24
ATOM     24  C   UNL     1       0.739  -2.027  -1.265  0.00  0.00    +0.116 C 
BRANCH  24  25
ATOM     25  C   UNL     1       0.718  -0.497  -1.257  0.00  0.00    +0.019 C 
BRANCH  25  27
ATOM     26  C   UNL     1      -0.019   1.526   0.010  0.00  0.00    +0.004 C 
ATOM     27  C   UNL     1       0.002  -0.004   0.002  0.00  0.00    -0.002 C 
ENDBRANCH  25  27
ENDBRANCH  24  25
ENDBRANCH   1  24
BRANCH   5  28
ATOM     28  C   UNL     1      -0.002  -4.979  -4.897  0.00  0.00    +0.054 C 
BRANCH  28  29
ATOM     29  C   UNL     1      -0.270  -6.388  -5.359  0.00  0.00    -0.046 A 
ATOM     30  C   UNL     1      -0.550  -6.637  -6.690  0.00  0.00    +0.007 A 
ATOM     31  C   UNL     1      -0.797  -7.928  -7.115  0.00  0.00    +0.045 A 
ATOM     32  C   UNL     1      -0.763  -8.975  -6.206  0.00  0.00    +0.117 A 
ATOM     33  C   UNL     1      -0.481  -8.723  -4.871  0.00  0.00    +0.045 A 
ATOM     34  C   UNL     1      -0.230  -7.431  -4.452  0.00  0.00    +0.007 A 
BRANCH  32  35
ATOM     35  O   UNL     1      -1.005 -10.246  -6.622  0.00  0.00    -0.507 OA
ATOM     36  H   UNL     1      -0.214 -10.725  -6.904  0.00  0.00    +0.292 HD
ENDBRANCH  32  35
ENDBRANCH  28  29
ENDBRANCH   5  28
TORSDOF 6
