REMARK  Name = ZINC62995787
REMARK  9 active torsions:
REMARK  status: ('A' for Active; 'I' for Inactive)
REMARK    1  A    between atoms: C_1  and  C_2
REMARK    2  A    between atoms: C_2  and  N_3
REMARK    3  A    between atoms: N_3  and  C_4
REMARK    4  A    between atoms: N_3  and  C_6
REMARK    5  A    between atoms: C_4  and  C_5
REMARK    6  A    between atoms: C_9  and  N_12
REMARK    7  A    between atoms: N_12  and  C_13
REMARK    8  A    between atoms: C_16  and  N_21
REMARK    9  A    between atoms: C_18  and  C_19
REMARK                            x       y       z     vdW  Elec       q    Type
REMARK                         _______ _______ _______ _____ _____    ______ ____
ROOT
ATOM      1  N   UNL     1       0.091  -6.048  -1.752  0.00  0.00    -0.313 N 
ATOM      2  H   UNL     1      -0.747  -6.394  -2.096  0.00  0.00    +0.152 HD
ENDROOT
BRANCH   1   6
ATOM      3  C   UNL     1       0.369  -2.063  -0.574  0.00  0.00    +0.014 A 
ATOM      4  C   UNL     1       0.976  -3.050   0.182  0.00  0.00    +0.023 A 
ATOM      5  C   UNL     1       0.886  -4.373  -0.206  0.00  0.00    +0.025 A 
ATOM      6  C   UNL     1       0.184  -4.711  -1.356  0.00  0.00    +0.031 A 
ATOM      7  C   UNL     1      -0.425  -3.717  -2.112  0.00  0.00    +0.025 A 
ATOM      8  C   UNL     1      -0.335  -2.397  -1.716  0.00  0.00    +0.023 A 
BRANCH   3   9
ATOM      9  N   UNL     1       0.464  -0.726  -0.178  0.00  0.00    -0.394 NA
ATOM     10  H   UNL     1      -0.036  -0.145  -0.835  0.00  0.00    +0.126 HD
BRANCH   9  12
ATOM     11  C   UNL     1      -1.633  -0.798   1.085  0.00  0.00    +0.022 C 
ATOM     12  C   UNL     1      -0.123  -0.568   1.160  0.00  0.00    +0.081 C 
ENDBRANCH   9  12
BRANCH   9  13
ATOM     13  C   UNL     1       1.876  -0.323  -0.145  0.00  0.00    +0.081 C 
ATOM     14  C   UNL     1       2.453  -0.368  -1.561  0.00  0.00    +0.022 C 
ENDBRANCH   9  13
ENDBRANCH   3   9
ENDBRANCH   1   6
BRANCH   1  15
ATOM     15  C   UNL     1       1.201  -6.883  -1.651  0.00  0.00    +0.049 A 
ATOM     16  C   UNL     1       2.439  -6.357  -1.305  0.00  0.00    +0.026 A 
ATOM     17  C   UNL     1       3.540  -7.183  -1.206  0.00  0.00    +0.024 A 
ATOM     18  C   UNL     1       3.419  -8.547  -1.451  0.00  0.00    +0.026 A 
ATOM     19  C   UNL     1       2.192  -9.087  -1.797  0.00  0.00    +0.043 A 
ATOM     20  C   UNL     1       1.071  -8.259  -1.894  0.00  0.00    +0.075 A 
BRANCH  18  21
ATOM     21  N   UNL     1       4.542  -9.377  -1.347  0.00  0.00    -0.358 N 
ATOM     22  H   UNL     1       5.402  -9.000  -1.105  0.00  0.00    +0.142 HD
ATOM     23  H   UNL     1       4.460 -10.328  -1.518  0.00  0.00    +0.142 HD
ENDBRANCH  18  21
BRANCH  20  24
ATOM     24  C   UNL     1      -0.203  -8.810  -2.245  0.00  0.00    +0.101 C 
ATOM     25  N   UNL     1      -1.213  -9.248  -2.524  0.00  0.00    -0.191 NA
ENDBRANCH  20  24
ENDBRANCH   1  15
TORSDOF 7
