REMARK  Name = ZINC17665810
REMARK  8 active torsions:
REMARK  status: ('A' for Active; 'I' for Inactive)
REMARK    1  A    between atoms: C_1  and  C_2
REMARK    2  A    between atoms: C_2  and  C_3
REMARK    3  A    between atoms: C_3  and  C_4
REMARK    4  A    between atoms: C_4  and  C_5
REMARK    5  A    between atoms: C_5  and  N_6
REMARK    6  A    between atoms: C_15  and  S_16
REMARK    7  A    between atoms: S_16  and  C_17
REMARK    8  A    between atoms: C_17  and  C_18
REMARK                            x       y       z     vdW  Elec       q    Type
REMARK                         _______ _______ _______ _____ _____    ______ ____
ROOT
ATOM      1  N   UNL     1       4.402   0.073  -0.040  0.00  0.00    -0.287 N 
ATOM      2  C   UNL     1       3.688   1.223  -0.026  0.00  0.00    +0.263 A 
ATOM      3  O   UNL     1       4.224   2.318  -0.025  0.00  0.00    -0.267 OA
ATOM      4  C   UNL     1       2.263   1.074  -0.013  0.00  0.00    +0.076 A 
ATOM      5  C   UNL     1       1.278   2.143   0.001  0.00  0.00    -0.023 A 
ATOM      6  C   UNL     1      -0.022   1.771   0.012  0.00  0.00    -0.004 A 
ATOM      7  S   UNL     1       0.002  -0.004   0.002  0.00  0.00    -0.073 S 
ATOM      8  C   UNL     1       1.751  -0.243  -0.016  0.00  0.00    +0.117 A 
ATOM      9  N   UNL     1       2.508  -1.333  -0.029  0.00  0.00    -0.216 NA
ATOM     10  C   UNL     1       3.823  -1.159  -0.041  0.00  0.00    +0.173 A 
ATOM     11  C   UNL     1      -1.222   2.667   0.034  0.00  0.00    +0.043 C 
ATOM     12  C   UNL     1      -0.767   4.084   0.403  0.00  0.00    +0.005 C 
ATOM     13  C   UNL     1       0.456   4.447  -0.445  0.00  0.00    +0.005 C 
ATOM     14  C   UNL     1       1.662   3.621   0.004  0.00  0.00    +0.037 C 
ENDROOT
BRANCH   1  15
ATOM     15  C   UNL     1       5.865   0.158  -0.054  0.00  0.00    +0.127 C 
BRANCH  15  16
ATOM     16  C   UNL     1       6.388   0.180   1.383  0.00  0.00    +0.022 C 
BRANCH  16  17
ATOM     17  C   UNL     1       7.916   0.269   1.368  0.00  0.00    +0.001 C 
BRANCH  17  19
ATOM     18  C   UNL     1       9.967   0.379   2.791  0.00  0.00    +0.004 C 
ATOM     19  C   UNL     1       8.439   0.290   2.806  0.00  0.00    -0.003 C 
ENDBRANCH  17  19
ENDBRANCH  16  17
ENDBRANCH  15  16
ENDBRANCH   1  15
BRANCH  10  20
ATOM     20  S   UNL     1       4.863  -2.582  -0.059  0.00  0.00    -0.080 S 
BRANCH  20  21
ATOM     21  C   UNL     1       3.609  -3.888  -0.054  0.00  0.00    +0.153 C 
BRANCH  21  22
ATOM     22  C   UNL     1       4.286  -5.234  -0.069  0.00  0.00    +0.146 A 
ATOM     23  N   UNL     1       4.566  -5.819  -1.220  0.00  0.00    -0.199 NA
ATOM     24  C   UNL     1       5.168  -7.006  -1.237  0.00  0.00    +0.217 A 
ATOM     25  N   UNL     1       5.479  -7.607  -0.094  0.00  0.00    -0.181 NA
ATOM     26  C   UNL     1       5.191  -7.019   1.062  0.00  0.00    +0.217 A 
ATOM     27  N   UNL     1       4.593  -5.829   1.071  0.00  0.00    -0.199 NA
ATOM     28  N   UNL     1       5.511  -7.639   2.252  0.00  0.00    -0.327 N 
ATOM     29  N   UNL     1       5.465  -7.613  -2.440  0.00  0.00    -0.327 N 
ATOM     30  H   UNL     1       5.301  -7.209   3.096  0.00  0.00    +0.145 HD
ATOM     31  H   UNL     1       5.947  -8.506   2.245  0.00  0.00    +0.145 HD
ATOM     32  H   UNL     1       5.900  -8.480  -2.451  0.00  0.00    +0.145 HD
ATOM     33  H   UNL     1       5.238  -7.173  -3.274  0.00  0.00    +0.145 HD
ENDBRANCH  21  22
ENDBRANCH  20  21
ENDBRANCH  10  20
TORSDOF 7
