REMARK  Name = ZINC13031698
REMARK  13 active torsions:
REMARK  status: ('A' for Active; 'I' for Inactive)
REMARK    1  A    between atoms: C_1  and  C_2
REMARK    2  A    between atoms: C_2  and  C_3
REMARK    3  A    between atoms: C_2  and  C_4
REMARK    4  A    between atoms: C_4  and  C_5
REMARK    5  A    between atoms: C_5  and  N_6
REMARK    6  A    between atoms: C_7  and  C_9
REMARK    7  A    between atoms: C_9  and  C_11
REMARK    8  A    between atoms: C_9  and  N_16
REMARK    9  A    between atoms: N_16  and  C_17
REMARK   10  A    between atoms: C_20  and  N_23
REMARK   11  A    between atoms: C_24  and  C_26
REMARK   12  A    between atoms: C_27  and  C_29
REMARK   13  A    between atoms: C_29  and  N_30
REMARK                            x       y       z     vdW  Elec       q    Type
REMARK                         _______ _______ _______ _____ _____    ______ ____
ROOT
ATOM      1  N   UNL     1      -5.427   3.286  -1.728  0.00  0.00    -0.253 N 
ATOM      2  C   UNL     1      -4.158   3.700  -1.544  0.00  0.00    +0.242 C 
ATOM      3  O   UNL     1      -3.444   3.911  -2.502  0.00  0.00    -0.273 OA
ENDROOT
BRANCH   1   4
ATOM      4  C   UNL     1      -5.881   2.966  -3.014  0.00  0.00    +0.038 A 
ATOM      5  C   UNL     1      -7.212   2.627  -3.216  0.00  0.00    +0.025 A 
ATOM      6  C   UNL     1      -7.660   2.315  -4.484  0.00  0.00    +0.025 A 
ATOM      7  C   UNL     1      -6.777   2.333  -5.556  0.00  0.00    +0.033 A 
ATOM      8  C   UNL     1      -5.444   2.668  -5.353  0.00  0.00    +0.025 A 
ATOM      9  C   UNL     1      -4.998   2.984  -4.086  0.00  0.00    +0.025 A 
BRANCH   7  10
ATOM     10  N   UNL     1      -7.230   2.014  -6.843  0.00  0.00    -0.286 N 
ATOM     11  C   UNL     1      -8.476   2.359  -7.223  0.00  0.00    +0.214 C 
ATOM     12  O   UNL     1      -9.170   3.030  -6.489  0.00  0.00    -0.276 OA
ATOM     13  C   UNL     1      -9.007   1.912  -8.561  0.00  0.00    +0.109 C 
ATOM     14  H   UNL     1      -6.648   1.544  -7.459  0.00  0.00    +0.155 HD
ENDBRANCH   7  10
ENDBRANCH   1   4
BRANCH   1  15
ATOM     15  C   UNL     1      -6.333   3.171  -0.582  0.00  0.00    +0.204 C 
BRANCH  15  16
ATOM     16  C   UNL     1      -7.413   4.216  -0.688  0.00  0.00    +0.019 A 
ATOM     17  C   UNL     1      -7.917   5.025   0.276  0.00  0.00    +0.013 A 
ATOM     18  C   UNL     1      -8.916   5.920  -0.054  0.00  0.00    +0.008 A 
ATOM     19  C   UNL     1      -9.363   5.964  -1.333  0.00  0.00    +0.045 A 
ATOM     20  S   UNL     1      -8.355   4.718  -2.119  0.00  0.00    -0.099 S 
ENDBRANCH  15  16
BRANCH  15  22
ATOM     21  N   UNL     1      -7.905   1.498   0.339  0.00  0.00    -0.313 N 
ATOM     22  C   UNL     1      -6.960   1.800  -0.573  0.00  0.00    +0.239 C 
ATOM     23  O   UNL     1      -6.614   0.970  -1.386  0.00  0.00    -0.273 OA
ATOM     24  H   UNL     1      -8.182   2.162   0.989  0.00  0.00    +0.149 HD
BRANCH  21  25
ATOM     25  C   UNL     1      -8.514   0.166   0.348  0.00  0.00    +0.104 C 
BRANCH  25  26
ATOM     26  C   UNL     1      -9.548   0.085   1.473  0.00  0.00    +0.022 C 
BRANCH  26  28
ATOM     27  C   UNL     1     -11.126  -1.429   2.682  0.00  0.00    +0.007 C 
ATOM     28  C   UNL     1     -10.184  -1.306   1.482  0.00  0.00    -0.016 C 
ATOM     29  C   UNL     1     -10.976  -1.514   0.189  0.00  0.00    +0.007 C 
ENDBRANCH  26  28
ENDBRANCH  25  26
ENDBRANCH  21  25
ENDBRANCH  15  22
ENDBRANCH   1  15
BRANCH   2  30
ATOM     30  C   UNL     1      -3.625   3.899  -0.149  0.00  0.00    +0.242 C 
BRANCH  30  31
ATOM     31  N   UNL     1      -2.199   4.232  -0.213  0.00  0.00    -0.235 N 
ATOM     32  C   UNL     1      -1.147   3.348  -0.193  0.00  0.00    +0.090 A 
ATOM     33  C   UNL     1      -1.050   1.962  -0.118  0.00  0.00    +0.029 A 
ATOM     34  C   UNL     1       0.180   1.367  -0.116  0.00  0.00    +0.002 A 
ATOM     35  C   UNL     1       1.337   2.132  -0.198  0.00  0.00    +0.002 A 
ATOM     36  C   UNL     1       1.268   3.493  -0.278  0.00  0.00    +0.032 A 
ATOM     37  C   UNL     1       0.019   4.128  -0.277  0.00  0.00    +0.113 A 
ATOM     38  N   UNL     1      -0.357   5.421  -0.343  0.00  0.00    -0.129 NA
ATOM     39  N   UNL     1      -1.640   5.515  -0.308  0.00  0.00    -0.064 NA
ENDBRANCH  30  31
ENDBRANCH   2  30
TORSDOF 10
