REMARK  Name = ZINC53619595
REMARK  7 active torsions:
REMARK  status: ('A' for Active; 'I' for Inactive)
REMARK    1  A    between atoms: C_1  and  C_2
REMARK    2  A    between atoms: C_13  and  C_15
REMARK    3  A    between atoms: C_15  and  C_16
REMARK    4  A    between atoms: N_18  and  C_19
REMARK    5  A    between atoms: C_19  and  C_20
REMARK    6  A    between atoms: C_20  and  C_21
REMARK    7  A    between atoms: C_28  and  C_29
REMARK                            x       y       z     vdW  Elec       q    Type
REMARK                         _______ _______ _______ _____ _____    ______ ____
ROOT
ATOM      1  C   UNL     1      -0.019   1.526   0.010  0.00  0.00    +0.013 C 
ATOM      2  C   UNL     1       0.002  -0.004   0.002  0.00  0.00    +0.034 C 
ATOM      3  C   UNL     1       0.705  -0.489  -1.241  0.00  0.00    -0.001 A 
ATOM      4  C   UNL     1      -0.001  -0.509  -2.418  0.00  0.00    +0.019 A 
ATOM      5  C   UNL     1       0.607  -0.941  -3.591  0.00  0.00    +0.028 A 
ATOM      6  C   UNL     1       1.947  -1.359  -3.579  0.00  0.00    +0.139 A 
ATOM      7  C   UNL     1       2.649  -1.337  -2.383  0.00  0.00    +0.093 A 
ATOM      8  C   UNL     1       2.029  -0.906  -1.218  0.00  0.00    +0.139 A 
ATOM      9  O   UNL     1       2.755  -0.919  -0.066  0.00  0.00    -0.425 OA
ATOM     10  C   UNL     1       2.222  -0.312   1.013  0.00  0.00    +0.316 C 
ATOM     11  O   UNL     1       2.896   0.358   1.759  0.00  0.00    -0.250 OA
ATOM     12  C   UNL     1       0.740  -0.510   1.245  0.00  0.00    +0.114 C 
ATOM     13  O   UNL     1       2.272  -1.717  -4.838  0.00  0.00    -0.462 OA
ATOM     14  C   UNL     1       1.230  -1.562  -5.671  0.00  0.00    +0.204 A 
ATOM     15  C   UNL     1       0.162  -1.088  -4.990  0.00  0.00    +0.028 A 
ENDROOT
BRANCH  15  16
ATOM     16  C   UNL     1      -1.181  -0.780  -5.537  0.00  0.00    -0.014 A 
ATOM     17  C   UNL     1      -2.323  -1.276  -4.909  0.00  0.00    +0.008 A 
ATOM     18  C   UNL     1      -3.571  -0.985  -5.423  0.00  0.00    +0.001 A 
ATOM     19  C   UNL     1      -3.690  -0.203  -6.558  0.00  0.00    +0.000 A 
ATOM     20  C   UNL     1      -2.560   0.291  -7.185  0.00  0.00    +0.001 A 
ATOM     21  C   UNL     1      -1.308   0.012  -6.677  0.00  0.00    +0.008 A 
ENDBRANCH  15  16
BRANCH  12  22
ATOM     22  C   UNL     1       0.441  -1.995   1.458  0.00  0.00    +0.111 C 
BRANCH  22  23
ATOM     23  C   UNL     1       1.069  -2.455   2.748  0.00  0.00    +0.214 C 
ATOM     24  O   UNL     1       1.694  -1.671   3.431  0.00  0.00    -0.276 OA
ATOM     25  N   UNL     1       0.937  -3.736   3.144  0.00  0.00    -0.315 N 
ATOM     26  H   UNL     1       0.437  -4.363   2.598  0.00  0.00    +0.149 HD
BRANCH  25  27
ATOM     27  C   UNL     1       1.548  -4.183   4.398  0.00  0.00    +0.110 C 
BRANCH  27  28
ATOM     28  C   UNL     1       1.249  -5.668   4.610  0.00  0.00    +0.073 C 
BRANCH  28  29
ATOM     29  C   UNL     1       1.878  -6.127   5.901  0.00  0.00    +0.035 A 
ATOM     30  N   UNL     1       1.268  -6.203   7.124  0.00  0.00    -0.350 N 
ATOM     31  C   UNL     1       2.186  -6.662   8.001  0.00  0.00    +0.171 A 
ATOM     32  N   UNL     1       3.308  -6.863   7.365  0.00  0.00    -0.352 N 
ATOM     33  C   UNL     1       3.146  -6.548   6.071  0.00  0.00    +0.105 A 
ATOM     34  H   UNL     1       0.347  -5.971   7.323  0.00  0.00    +0.166 HD
ATOM     35  H   UNL     1       4.129  -7.192   7.764  0.00  0.00    +0.166 HD
ENDBRANCH  28  29
ENDBRANCH  27  28
ENDBRANCH  25  27
ENDBRANCH  22  23
ENDBRANCH  12  22
TORSDOF 6
