REMARK  Name = ZINC20098185
REMARK  9 active torsions:
REMARK  status: ('A' for Active; 'I' for Inactive)
REMARK    1  A    between atoms: C_1  and  C_2
REMARK    2  A    between atoms: C_7  and  C_15
REMARK    3  A    between atoms: C_13  and  C_14
REMARK    4  A    between atoms: C_15  and  C_17
REMARK    5  A    between atoms: C_15  and  N_30
REMARK    6  A    between atoms: N_21  and  C_22
REMARK    7  A    between atoms: C_22  and  C_23
REMARK    8  A    between atoms: C_23  and  C_24
REMARK    9  A    between atoms: N_33  and  C_36
REMARK                            x       y       z     vdW  Elec       q    Type
REMARK                         _______ _______ _______ _____ _____    ______ ____
ROOT
ATOM      1  C   UNL     1       4.959   1.184  -0.038  0.00  0.00    +0.162 C 
ENDROOT
BRANCH   1   8
ATOM      2  C   UNL     1      -2.720   3.255   0.563  0.00  0.00    +0.044 C 
ATOM      3  C   UNL     1      -1.347   2.644   0.455  0.00  0.00    -0.046 A 
ATOM      4  C   UNL     1      -1.210   1.262   0.435  0.00  0.00    +0.004 A 
ATOM      5  C   UNL     1       0.025   0.688   0.343  0.00  0.00    +0.010 A 
ATOM      6  C   UNL     1       1.163   1.498   0.257  0.00  0.00    -0.001 A 
ATOM      7  C   UNL     1       2.502   0.916   0.151  0.00  0.00    +0.021 A 
ATOM      8  C   UNL     1       3.567   1.751   0.072  0.00  0.00    +0.042 A 
ATOM      9  C   UNL     1       3.377   3.149   0.091  0.00  0.00    +0.254 A 
ATOM     10  O   UNL     1       4.348   3.882   0.019  0.00  0.00    -0.268 OA
ATOM     11  N   UNL     1       2.151   3.693   0.188  0.00  0.00    -0.322 N 
ATOM     12  H   UNL     1       2.034   4.787   0.200  0.00  0.00    +0.169 HD
ATOM     13  C   UNL     1       1.027   2.899   0.272  0.00  0.00    +0.052 A 
ATOM     14  C   UNL     1      -0.241   3.462   0.372  0.00  0.00    -0.024 A 
ATOM     15  C   UNL     1      -0.405   4.960   0.391  0.00  0.00    +0.046 C 
ENDBRANCH   1   8
BRANCH   1  16
ATOM     16  N   UNL     1       5.805   1.755   1.018  0.00  0.00    -0.292 NA
ATOM     17  C   UNL     1       7.189   1.274   0.902  0.00  0.00    +0.067 C 
ATOM     18  C   UNL     1       8.053   1.952   1.968  0.00  0.00    -0.063 C 
ATOM     19  N   UNL     1       7.506   1.655   3.299  0.00  0.00    +0.383 N 
ATOM     20  C   UNL     1       6.122   2.135   3.416  0.00  0.00    -0.063 C 
ATOM     21  C   UNL     1       5.258   1.458   2.349  0.00  0.00    +0.067 C 
ATOM     22  H   UNL     1       7.498   0.562   3.428  0.00  0.00    -0.081 HD
BRANCH  19  23
ATOM     23  C   UNL     1       8.352   2.226   4.356  0.00  0.00    -0.068 C 
ATOM     24  C   UNL     1       8.451   3.741   4.166  0.00  0.00    -0.015 C 
ATOM     25  C   UNL     1       9.333   4.335   5.266  0.00  0.00    -0.002 C 
ATOM     26  C   UNL     1      10.731   3.719   5.189  0.00  0.00    -0.000 C 
ATOM     27  C   UNL     1      10.631   2.204   5.379  0.00  0.00    -0.002 C 
ATOM     28  C   UNL     1       9.750   1.609   4.278  0.00  0.00    -0.015 C 
ENDBRANCH  19  23
ENDBRANCH   1  16
BRANCH   1  29
ATOM     29  C   UNL     1       5.537   1.529  -1.386  0.00  0.00    +0.173 A 
ATOM     30  N   UNL     1       5.988   2.699  -1.768  0.00  0.00    -0.111 NA
ATOM     31  N   UNL     1       6.397   2.590  -2.985  0.00  0.00    -0.023 NA
ATOM     32  N   UNL     1       6.219   1.381  -3.389  0.00  0.00    -0.044 NA
ATOM     33  N   UNL     1       5.695   0.695  -2.431  0.00  0.00    -0.227 N 
BRANCH  33  34
ATOM     34  C   UNL     1       5.337  -0.725  -2.472  0.00  0.00    +0.152 C 
BRANCH  34  35
ATOM     35  C   UNL     1       3.895  -0.873  -2.963  0.00  0.00    +0.058 C 
BRANCH  35  36
ATOM     36  C   UNL     1       3.526  -2.333  -3.005  0.00  0.00    -0.046 A 
ATOM     37  C   UNL     1       3.743  -3.068  -4.156  0.00  0.00    +0.004 A 
ATOM     38  C   UNL     1       3.410  -4.409  -4.193  0.00  0.00    +0.000 A 
ATOM     39  C   UNL     1       2.850  -5.013  -3.083  0.00  0.00    +0.000 A 
ATOM     40  C   UNL     1       2.627  -4.277  -1.934  0.00  0.00    +0.000 A 
ATOM     41  C   UNL     1       2.966  -2.938  -1.895  0.00  0.00    +0.004 A 
ENDBRANCH  35  36
ENDBRANCH  34  35
ENDBRANCH  33  34
ENDBRANCH   1  29
TORSDOF 7
