REMARK  Name = ZINC34749405
REMARK  9 active torsions:
REMARK  status: ('A' for Active; 'I' for Inactive)
REMARK    1  A    between atoms: C_1  and  C_2
REMARK    2  A    between atoms: C_2  and  C_3
REMARK    3  A    between atoms: C_4  and  C_36
REMARK    4  A    between atoms: N_10  and  C_27
REMARK    5  A    between atoms: N_16  and  C_19
REMARK    6  A    between atoms: C_19  and  C_20
REMARK    7  A    between atoms: C_27  and  C_28
REMARK    8  A    between atoms: C_28  and  C_29
REMARK    9  A    between atoms: C_29  and  C_30
REMARK                            x       y       z     vdW  Elec       q    Type
REMARK                         _______ _______ _______ _____ _____    ______ ____
ROOT
ATOM      1  C   UNL     1       0.712  -0.487  -1.178  0.00  0.00    -0.023 A 
ATOM      2  C   UNL     1       0.005  -0.673  -2.302  0.00  0.00    -0.007 A 
ATOM      3  S   UNL     1       1.235  -1.188  -3.486  0.00  0.00    -0.073 S 
ATOM      4  C   UNL     1       2.664  -1.139  -2.436  0.00  0.00    +0.117 A 
ATOM      5  C   UNL     1       2.147  -0.717  -1.197  0.00  0.00    +0.076 A 
ATOM      6  C   UNL     1       3.099  -0.582  -0.138  0.00  0.00    +0.264 A 
ATOM      7  O   UNL     1       2.742  -0.227   0.972  0.00  0.00    -0.267 OA
ATOM      8  N   UNL     1       4.394  -0.852  -0.384  0.00  0.00    -0.280 N 
ATOM      9  C   UNL     1       4.812  -1.250  -1.619  0.00  0.00    +0.202 A 
ATOM     10  N   UNL     1       3.956  -1.394  -2.609  0.00  0.00    -0.208 NA
ATOM     11  N   UNL     1       6.142  -1.516  -1.831  0.00  0.00    -0.304 N 
ATOM     12  C   UNL     1       7.079  -0.444  -2.199  0.00  0.00    +0.089 C 
ATOM     13  C   UNL     1       7.871  -0.892  -3.432  0.00  0.00    -0.059 C 
ATOM     14  N   UNL     1       8.509  -2.186  -3.158  0.00  0.00    +0.387 N 
ATOM     15  C   UNL     1       7.483  -3.216  -2.951  0.00  0.00    -0.059 C 
ATOM     16  C   UNL     1       6.672  -2.881  -1.689  0.00  0.00    +0.089 C 
ATOM     17  C   UNL     1      -1.476  -0.491  -2.514  0.00  0.00    +0.052 C 
ATOM     18  H   UNL     1       9.079  -2.110  -2.329  0.00  0.00    -0.081 HD
ENDROOT
BRANCH   1  20
ATOM     19  C   UNL     1       0.013   1.491   0.144  0.00  0.00    +0.009 C 
ATOM     20  C   UNL     1       0.028  -0.038   0.087  0.00  0.00    +0.033 C 
ENDBRANCH   1  20
BRANCH  14  21
ATOM     21  C   UNL     1       9.356  -2.563  -4.297  0.00  0.00    +0.019 C 
BRANCH  21  22
ATOM     22  C   UNL     1      10.106  -3.828  -3.968  0.00  0.00    +0.199 C 
ATOM     23  O   UNL     1       9.951  -4.363  -2.891  0.00  0.00    -0.278 OA
ATOM     24  N   UNL     1      10.950  -4.365  -4.871  0.00  0.00    -0.303 N 
ATOM     25  C   UNL     1      11.237  -3.820  -6.206  0.00  0.00    +0.108 C 
ATOM     26  C   UNL     1      12.236  -4.779  -6.888  0.00  0.00    +0.020 C 
ATOM     27  C   UNL     1      12.022  -6.109  -6.118  0.00  0.00    +0.020 C 
ATOM     28  C   UNL     1      11.744  -5.593  -4.682  0.00  0.00    +0.108 C 
ENDBRANCH  21  22
ENDBRANCH  14  21
BRANCH   8  29
ATOM     29  C   UNL     1       5.374  -0.715   0.697  0.00  0.00    +0.128 C 
BRANCH  29  30
ATOM     30  C   UNL     1       5.399  -1.999   1.528  0.00  0.00    +0.026 C 
BRANCH  30  31
ATOM     31  C   UNL     1       6.423  -1.856   2.657  0.00  0.00    +0.037 C 
BRANCH  31  32
ATOM     32  C   UNL     1       6.447  -3.120   3.476  0.00  0.00    -0.047 A 
ATOM     33  C   UNL     1       5.604  -3.256   4.563  0.00  0.00    +0.003 A 
ATOM     34  C   UNL     1       5.626  -4.416   5.315  0.00  0.00    +0.000 A 
ATOM     35  C   UNL     1       6.491  -5.440   4.979  0.00  0.00    +0.000 A 
ATOM     36  C   UNL     1       7.334  -5.305   3.892  0.00  0.00    +0.000 A 
ATOM     37  C   UNL     1       7.308  -4.147   3.137  0.00  0.00    +0.003 A 
ENDBRANCH  31  32
ENDBRANCH  30  31
ENDBRANCH  29  30
ENDBRANCH   8  29
TORSDOF 7
