REMARK  Name = ZINC06133747
REMARK  14 active torsions:
REMARK  status: ('A' for Active; 'I' for Inactive)
REMARK    1  A    between atoms: C_1  and  C_2
REMARK    2  A    between atoms: C_2  and  C_3
REMARK    3  A    between atoms: C_2  and  S_4
REMARK    4  A    between atoms: S_4  and  C_7
REMARK    5  A    between atoms: C_8  and  N_18
REMARK    6  A    between atoms: C_9  and  C_14
REMARK    7  A    between atoms: C_11  and  S_12
REMARK    8  A    between atoms: S_12  and  C_13
REMARK    9  A    between atoms: C_14  and  O_16
REMARK   10  A    between atoms: O_16  and  C_17
REMARK   11  A    between atoms: N_18  and  N_19
REMARK   12  A    between atoms: C_20  and  C_21
REMARK   13  A    between atoms: C_20  and  S_23
REMARK   14  A    between atoms: S_23  and  C_26
REMARK                            x       y       z     vdW  Elec       q    Type
REMARK                         _______ _______ _______ _____ _____    ______ ____
ROOT
ATOM      1  C   UNL     1      -0.080   0.054   2.799  0.00  0.00    +0.132 A 
ATOM      2  C   UNL     1       0.346   1.185   3.451  0.00  0.00    +0.095 A 
ATOM      3  C   UNL     1      -0.378   1.619   4.566  0.00  0.00    +0.122 A 
ATOM      4  S   UNL     1      -1.672   0.394   4.671  0.00  0.00    -0.072 S 
ATOM      5  C   UNL     1      -1.203  -0.601   3.265  0.00  0.00    +0.072 A 
ENDROOT
BRANCH   1   6
ATOM      6  S   UNL     1       0.785  -0.547   1.387  0.00  0.00    +0.003 S 
ATOM      7  O   UNL     1       0.555  -1.949   1.389  0.00  0.00    -0.169 OA
ATOM      8  O   UNL     1       2.102  -0.029   1.522  0.00  0.00    -0.169 OA
BRANCH   6  10
ATOM      9  C   UNL     1       0.049   1.744   0.085  0.00  0.00    +0.032 C 
ATOM     10  C   UNL     1      -0.046   0.221  -0.031  0.00  0.00    +0.130 C 
ATOM     11  C   UNL     1       0.630  -0.234  -1.326  0.00  0.00    +0.032 C 
ENDBRANCH   6  10
ENDBRANCH   1   6
BRANCH   5  12
ATOM     12  S   UNL     1      -1.975  -2.054   2.634  0.00  0.00    -0.120 S 
ATOM     13  C   UNL     1      -3.383  -2.321   3.747  0.00  0.00    +0.090 C 
ENDBRANCH   5  12
BRANCH   3  14
ATOM     14  C   UNL     1      -0.146   2.734   5.393  0.00  0.00    +0.348 C 
ATOM     15  O   UNL     1       0.721   3.538   5.101  0.00  0.00    -0.244 OA
BRANCH  14  16
ATOM     16  O   UNL     1      -0.886   2.912   6.509  0.00  0.00    -0.464 OA
ATOM     17  C   UNL     1      -0.596   4.066   7.301  0.00  0.00    +0.280 C 
ENDBRANCH  14  16
ENDBRANCH   3  14
BRANCH   2  18
ATOM     18  N   UNL     1       1.469   1.881   3.014  0.00  0.00    -0.232 N 
ATOM     19  H   UNL     1       1.658   1.949   2.065  0.00  0.00    +0.175 HD
BRANCH  18  20
ATOM     20  N   UNL     1       2.326   2.482   3.945  0.00  0.00    -0.152 NA
ATOM     21  C   UNL     1       3.377   3.134   3.535  0.00  0.00    +0.276 C 
BRANCH  21  22
ATOM     22  S   UNL     1       4.456   3.891   4.706  0.00  0.00    +0.070 S 
ATOM     23  O   UNL     1       5.040   5.011   4.055  0.00  0.00    -0.161 OA
ATOM     24  O   UNL     1       3.721   4.011   5.916  0.00  0.00    -0.161 OA
BRANCH  22  25
ATOM     25  C   UNL     1       5.763   2.753   5.021  0.00  0.00    +0.184 A 
ATOM     26  C   UNL     1       5.632   1.826   6.038  0.00  0.00    +0.048 A 
ATOM     27  C   UNL     1       6.667   0.935   6.277  0.00  0.00    +0.005 A 
ATOM     28  C   UNL     1       7.801   1.011   5.482  0.00  0.00    +0.020 A 
ATOM     29  C   UNL     1       7.860   1.965   4.484  0.00  0.00    +0.113 A 
ATOM     30  N   UNL     1       6.854   2.793   4.281  0.00  0.00    -0.236 NA
ENDBRANCH  22  25
ENDBRANCH  21  22
BRANCH  21  31
ATOM     31  C   UNL     1       3.657   3.235   2.135  0.00  0.00    +0.141 C 
ATOM     32  N   UNL     1       3.879   3.315   1.023  0.00  0.00    -0.188 NA
ENDBRANCH  21  31
ENDBRANCH  18  20
ENDBRANCH   2  18
TORSDOF 10
