REMARK  Name = ZINC05197602
REMARK  7 active torsions:
REMARK  status: ('A' for Active; 'I' for Inactive)
REMARK    1  A    between atoms: C_1  and  O_2
REMARK    2  A    between atoms: O_2  and  C_3
REMARK    3  A    between atoms: C_7  and  C_9
REMARK    4  A    between atoms: C_16  and  N_30
REMARK    5  A    between atoms: C_17  and  C_28
REMARK    6  A    between atoms: C_18  and  C_20
REMARK    7  A    between atoms: C_25  and  O_26
REMARK                            x       y       z     vdW  Elec       q    Type
REMARK                         _______ _______ _______ _____ _____    ______ ____
ROOT
ATOM      1  C   UNL     1       1.544  -4.535  -2.367  0.00  0.00    +0.074 A 
ATOM      2  C   UNL     1       1.037  -5.085  -3.497  0.00  0.00    +0.054 A 
ATOM      3  C   UNL     1       1.114  -6.486  -3.374  0.00  0.00    +0.245 A 
ATOM      4  N   UNL     1       1.647  -6.768  -2.219  0.00  0.00    -0.135 NA
ATOM      5  N   UNL     1       1.935  -5.564  -1.557  0.00  0.00    -0.273 N 
ATOM      6  H   UNL     1       2.340  -5.478  -0.680  0.00  0.00    +0.189 HD
ATOM      7  O   UNL     1       0.676  -7.320  -4.356  0.00  0.00    -0.421 OA
ATOM      8  C   UNL     1      -0.082  -6.785  -5.333  0.00  0.00    +0.201 C 
ATOM      9  C   UNL     1      -0.222  -5.462  -5.554  0.00  0.00    +0.098 C 
ATOM     10  C   UNL     1       0.469  -4.413  -4.720  0.00  0.00    +0.105 C 
ENDROOT
BRANCH  10  11
ATOM     11  C   UNL     1       1.581  -3.781  -5.516  0.00  0.00    +0.008 A 
ATOM     12  C   UNL     1       2.669  -4.539  -5.906  0.00  0.00    +0.028 A 
ATOM     13  C   UNL     1       3.691  -3.960  -6.637  0.00  0.00    +0.041 A 
ATOM     14  C   UNL     1       3.626  -2.621  -6.979  0.00  0.00    +0.023 A 
ATOM     15  C   UNL     1       2.541  -1.859  -6.591  0.00  0.00    +0.047 A 
ATOM     16  C   UNL     1       1.512  -2.440  -5.863  0.00  0.00    +0.121 A 
ATOM     17 CL   UNL     1       5.056  -4.915  -7.126  0.00  0.00    -0.084 Cl
BRANCH  16  18
ATOM     18  O   UNL     1       0.441  -1.694  -5.485  0.00  0.00    -0.506 OA
ATOM     19  H   UNL     1       0.545  -1.263  -4.626  0.00  0.00    +0.292 HD
ENDBRANCH  16  18
ENDBRANCH  10  11
BRANCH   1  24
ATOM     20  C   UNL     1       0.683  -0.894  -1.995  0.00  0.00    +0.121 A 
ATOM     21  C   UNL     1       1.879  -0.385  -1.507  0.00  0.00    +0.045 A 
ATOM     22  C   UNL     1       2.959  -1.222  -1.300  0.00  0.00    +0.004 A 
ATOM     23  C   UNL     1       2.855  -2.570  -1.577  0.00  0.00    +0.010 A 
ATOM     24  C   UNL     1       1.658  -3.091  -2.068  0.00  0.00    +0.004 A 
ATOM     25  C   UNL     1       0.567  -2.246  -2.271  0.00  0.00    +0.055 A 
BRANCH  20  27
ATOM     26  C   UNL     1      -0.187   1.316  -1.890  0.00  0.00    +0.277 C 
ATOM     27  O   UNL     1      -0.377  -0.067  -2.196  0.00  0.00    -0.495 OA
ENDBRANCH  20  27
ENDBRANCH   1  24
BRANCH   8  28
ATOM     28  N   UNL     1      -0.757  -7.647  -6.162  0.00  0.00    -0.328 N 
ATOM     29  H   UNL     1      -0.680  -8.605  -6.032  0.00  0.00    +0.145 HD
ATOM     30  H   UNL     1      -1.312  -7.297  -6.876  0.00  0.00    +0.145 HD
ENDBRANCH   8  28
BRANCH   9  31
ATOM     31  C   UNL     1      -1.065  -5.034  -6.630  0.00  0.00    +0.101 C 
ATOM     32  N   UNL     1      -1.734  -4.694  -7.484  0.00  0.00    -0.191 NA
ENDBRANCH   9  31
TORSDOF 6
