REMARK  Name = ZINC39666276
REMARK  10 active torsions:
REMARK  status: ('A' for Active; 'I' for Inactive)
REMARK    1  A    between atoms: C_1  and  C_2
REMARK    2  A    between atoms: C_5  and  O_8
REMARK    3  A    between atoms: O_8  and  C_9
REMARK    4  A    between atoms: C_9  and  C_11
REMARK    5  A    between atoms: C_9  and  C_12
REMARK    6  A    between atoms: C_12  and  N_13
REMARK    7  A    between atoms: C_14  and  C_16
REMARK    8  A    between atoms: C_27  and  C_29
REMARK    9  A    between atoms: C_30  and  C_35
REMARK   10  A    between atoms: C_33  and  C_34
REMARK                            x       y       z     vdW  Elec       q    Type
REMARK                         _______ _______ _______ _____ _____    ______ ____
ROOT
ATOM      1  C   UNL     1      -3.890  -6.928  -0.092  0.00  0.00    +0.100 C 
ATOM      2  C   UNL     1      -3.846  -6.412  -1.548  0.00  0.00    +0.121 C 
ATOM      3  N   UNL     1      -3.910  -7.637  -2.380  0.00  0.00    -0.296 N 
ATOM      4  C   UNL     1      -4.879  -8.511  -1.676  0.00  0.00    +0.115 C 
ATOM      5  C   UNL     1      -4.571  -8.303  -0.180  0.00  0.00    -0.004 C 
ATOM      6  C   UNL     1      -5.864  -8.306   0.630  0.00  0.00    -0.010 C 
ATOM      7  C   UNL     1      -6.493  -9.700   0.576  0.00  0.00    -0.082 C 
ATOM      8  N   UNL     1      -5.550 -10.686   1.119  0.00  0.00    +0.379 N 
ATOM      9  C   UNL     1      -4.348 -10.744   0.279  0.00  0.00    -0.082 C 
ATOM     10  C   UNL     1      -3.628  -9.393   0.321  0.00  0.00    -0.010 C 
ATOM     11  C   UNL     1      -3.240  -7.897  -3.520  0.00  0.00    +0.252 C 
ATOM     12  O   UNL     1      -3.402  -8.958  -4.092  0.00  0.00    -0.270 OA
ATOM     13  H   UNL     1      -5.291 -10.421   2.057  0.00  0.00    -0.086 HD
ATOM     14  H   UNL     1      -5.989 -11.594   1.138  0.00  0.00    -0.086 HD
ENDROOT
BRANCH  11  15
ATOM     15  C   UNL     1      -2.311  -6.895  -4.074  0.00  0.00    +0.101 A 
ATOM     16  C   UNL     1      -0.881  -6.776  -3.783  0.00  0.00    +0.093 A 
ATOM     17  N   UNL     1      -0.433  -5.769  -4.471  0.00  0.00    -0.083 NA
ATOM     18  O   UNL     1      -1.502  -5.211  -5.208  0.00  0.00    -0.359 OA
ATOM     19  C   UNL     1      -2.617  -5.904  -4.961  0.00  0.00    +0.147 A 
ATOM     20  C   UNL     1      -3.976  -5.635  -5.554  0.00  0.00    +0.090 C 
ATOM     21  C   UNL     1      -0.080  -7.657  -2.858  0.00  0.00    +0.070 C 
ENDBRANCH  11  15
BRANCH   1  23
ATOM     22  N   UNL     1      -2.284  -7.018   1.787  0.00  0.00    -0.312 N 
ATOM     23  C   UNL     1      -2.493  -7.068   0.457  0.00  0.00    +0.218 C 
ATOM     24  O   UNL     1      -1.558  -7.226  -0.299  0.00  0.00    -0.275 OA
ATOM     25  H   UNL     1      -3.032  -6.892   2.392  0.00  0.00    +0.149 HD
BRANCH  22  26
ATOM     26  C   UNL     1      -0.926  -7.154   2.321  0.00  0.00    +0.148 C 
BRANCH  26  27
ATOM     27  C   UNL     1      -0.966  -7.062   3.847  0.00  0.00    +0.187 C 
ATOM     28  C   UNL     1       0.452  -7.205   4.404  0.00  0.00    +0.053 C 
BRANCH  27  29
ATOM     29  O   UNL     1      -1.505  -5.797   4.234  0.00  0.00    -0.488 OA
BRANCH  29  34
ATOM     30  C   UNL     1      -3.879  -5.480   9.332  0.00  0.00    +0.044 C 
ATOM     31  C   UNL     1      -3.244  -5.565   7.968  0.00  0.00    -0.050 A 
ATOM     32  C   UNL     1      -2.609  -6.728   7.574  0.00  0.00    +0.007 A 
ATOM     33  C   UNL     1      -2.026  -6.808   6.324  0.00  0.00    +0.046 A 
ATOM     34  C   UNL     1      -2.079  -5.721   5.464  0.00  0.00    +0.121 A 
ATOM     35  C   UNL     1      -2.717  -4.555   5.862  0.00  0.00    +0.046 A 
ATOM     36  C   UNL     1      -3.304  -4.482   7.111  0.00  0.00    +0.007 A 
ENDBRANCH  29  34
ENDBRANCH  27  29
ENDBRANCH  26  27
ENDBRANCH  22  26
ENDBRANCH   1  23
TORSDOF 6
