REMARK  Name = ZINC08620138
REMARK  8 active torsions:
REMARK  status: ('A' for Active; 'I' for Inactive)
REMARK    1  A    between atoms: C_1  and  C_2
REMARK    2  A    between atoms: C_2  and  N_3
REMARK    3  A    between atoms: C_4  and  C_25
REMARK    4  A    between atoms: C_7  and  S_8
REMARK    5  A    between atoms: S_8  and  C_9
REMARK    6  A    between atoms: C_9  and  C_10
REMARK    7  A    between atoms: N_12  and  C_13
REMARK    8  A    between atoms: C_14  and  C_22
REMARK                            x       y       z     vdW  Elec       q    Type
REMARK                         _______ _______ _______ _____ _____    ______ ____
ROOT
ATOM      1  C   UNL     1      -6.622  -3.938   0.261  0.00  0.00    +0.228 C 
ATOM      2  O   UNL     1      -7.429  -3.092   0.584  0.00  0.00    -0.275 OA
ATOM      3  N   UNL     1      -7.024  -5.207   0.050  0.00  0.00    -0.279 N 
ATOM      4  H   UNL     1      -6.379  -5.883  -0.209  0.00  0.00    +0.155 HD
ENDROOT
BRANCH   3   5
ATOM      5  C   UNL     1      -8.360  -5.545   0.202  0.00  0.00    +0.084 A 
ATOM      6  C   UNL     1      -8.962  -6.783   0.026  0.00  0.00    +0.068 A 
ATOM      7  C   UNL     1     -10.394  -6.872   0.254  0.00  0.00    -0.023 A 
ATOM      8  C   UNL     1     -10.993  -5.715   0.610  0.00  0.00    -0.004 A 
ATOM      9  S   UNL     1      -9.685  -4.523   0.651  0.00  0.00    -0.077 S 
ATOM     10  C   UNL     1     -12.447  -5.503   0.901  0.00  0.00    +0.043 C 
ATOM     11  C   UNL     1     -13.228  -6.715   0.374  0.00  0.00    +0.005 C 
ATOM     12  C   UNL     1     -12.529  -7.995   0.843  0.00  0.00    +0.005 C 
ATOM     13  C   UNL     1     -11.197  -8.159   0.107  0.00  0.00    +0.037 C 
BRANCH   6  14
ATOM     14  C   UNL     1      -8.181  -7.958  -0.372  0.00  0.00    +0.244 C 
ATOM     15  O   UNL     1      -7.684  -8.675   0.477  0.00  0.00    -0.270 OA
ATOM     16  N   UNL     1      -8.013  -8.245  -1.678  0.00  0.00    -0.325 N 
ATOM     17  H   UNL     1      -8.409  -7.674  -2.355  0.00  0.00    +0.145 HD
ATOM     18  H   UNL     1      -7.496  -9.023  -1.942  0.00  0.00    +0.145 HD
ENDBRANCH   6  14
ENDBRANCH   3   5
BRANCH   1  19
ATOM     19  C   UNL     1      -5.170  -3.570   0.095  0.00  0.00    +0.173 C 
BRANCH  19  20
ATOM     20  S   UNL     1      -4.950  -1.808   0.446  0.00  0.00    -0.077 S 
BRANCH  20  25
ATOM     21  N   UNL     1      -2.471  -0.518   0.309  0.00  0.00    -0.300 N 
ATOM     22  C   UNL     1      -1.177  -0.884   0.009  0.00  0.00    +0.200 A 
ATOM     23  N   UNL     1      -1.196  -2.168  -0.277  0.00  0.00    -0.125 NA
ATOM     24  N   UNL     1      -2.393  -2.623  -0.168  0.00  0.00    -0.122 NA
ATOM     25  C   UNL     1      -3.214  -1.659   0.184  0.00  0.00    +0.192 A 
BRANCH  22  26
ATOM     26  C   UNL     1       0.002  -0.004   0.002  0.00  0.00    +0.172 A 
ATOM     27  C   UNL     1       1.303  -0.409  -0.013  0.00  0.00    +0.053 A 
ATOM     28  C   UNL     1       2.091   0.758  -0.014  0.00  0.00    +0.042 A 
ATOM     29  C   UNL     1       1.245   1.807  -0.000  0.00  0.00    +0.196 A 
ATOM     30  O   UNL     1      -0.016   1.343   0.009  0.00  0.00    -0.460 OA
ENDBRANCH  22  26
BRANCH  21  32
ATOM     31  C   UNL     1      -3.353   1.584  -0.575  0.00  0.00    +0.027 C 
ATOM     32  C   UNL     1      -2.950   0.814   0.684  0.00  0.00    +0.122 C 
ENDBRANCH  21  32
ENDBRANCH  20  25
ENDBRANCH  19  20
ENDBRANCH   1  19
TORSDOF 7
