REMARK  Name = ZINC36690319
REMARK  11 active torsions:
REMARK  status: ('A' for Active; 'I' for Inactive)
REMARK    1  A    between atoms: C_1  and  C_2
REMARK    2  A    between atoms: C_5  and  C_37
REMARK    3  A    between atoms: N_8  and  S_10
REMARK    4  A    between atoms: S_10  and  C_13
REMARK    5  A    between atoms: C_16  and  C_19
REMARK    6  A    between atoms: N_21  and  C_22
REMARK    7  A    between atoms: C_22  and  C_23
REMARK    8  A    between atoms: C_23  and  C_24
REMARK    9  A    between atoms: C_24  and  N_25
REMARK   10  A    between atoms: N_25  and  C_26
REMARK   11  A    between atoms: N_25  and  C_27
REMARK                            x       y       z     vdW  Elec       q    Type
REMARK                         _______ _______ _______ _____ _____    ______ ____
ROOT
ATOM      1  C   UNL     1       3.690  -3.974  -3.807  0.00  0.00    +0.252 C 
ATOM      2  O   UNL     1       3.275  -5.064  -4.152  0.00  0.00    -0.270 OA
ATOM      3  N   UNL     1       4.562  -3.308  -4.590  0.00  0.00    -0.246 N 
ATOM      4  C   UNL     1       4.891  -3.804  -5.839  0.00  0.00    +0.168 A 
ATOM      5  N   UNL     1       5.715  -3.307  -6.732  0.00  0.00    -0.224 NA
ATOM      6  C   UNL     1       5.942  -3.905  -7.922  0.00  0.00    +0.080 A 
ATOM      7  C   UNL     1       6.798  -3.478  -8.964  0.00  0.00    +0.029 A 
ATOM      8  C   UNL     1       6.914  -4.208 -10.117  0.00  0.00    +0.002 A 
ATOM      9  C   UNL     1       6.204  -5.385 -10.306  0.00  0.00    +0.001 A 
ATOM     10  C   UNL     1       5.358  -5.833  -9.307  0.00  0.00    +0.017 A 
ATOM     11  C   UNL     1       5.235  -5.108  -8.148  0.00  0.00    +0.041 A 
ATOM     12  S   UNL     1       4.308  -5.290  -6.644  0.00  0.00    -0.052 S 
ENDROOT
BRANCH   1  16
ATOM     13  C   UNL     1       2.393  -2.269  -0.140  0.00  0.00    +0.106 A 
ATOM     14  C   UNL     1       1.470  -2.843  -0.997  0.00  0.00    +0.029 A 
ATOM     15  C   UNL     1       1.885  -3.398  -2.190  0.00  0.00    +0.015 A 
ATOM     16  C   UNL     1       3.238  -3.381  -2.531  0.00  0.00    +0.037 A 
ATOM     17  C   UNL     1       4.164  -2.800  -1.662  0.00  0.00    +0.015 A 
ATOM     18  C   UNL     1       3.735  -2.243  -0.475  0.00  0.00    +0.029 A 
BRANCH  13  19
ATOM     19  S   UNL     1       1.855  -1.562   1.381  0.00  0.00    +0.061 S 
ATOM     20  O   UNL     1       2.977  -1.570   2.253  0.00  0.00    -0.153 OA
ATOM     21  O   UNL     1       0.628  -2.198   1.713  0.00  0.00    -0.153 OA
BRANCH  19  27
ATOM     22  C   UNL     1       3.571   3.038   0.095  0.00  0.00    +0.009 C 
ATOM     23  C   UNL     1       2.599   1.870  -0.078  0.00  0.00    +0.002 C 
ATOM     24  C   UNL     1       1.206   2.409  -0.414  0.00  0.00    +0.009 C 
ATOM     25  C   UNL     1       0.240   1.240  -0.620  0.00  0.00    +0.002 C 
ATOM     26  C   UNL     1       0.145   0.428   0.675  0.00  0.00    +0.112 C 
ATOM     27  N   UNL     1       1.498   0.028   1.084  0.00  0.00    -0.176 NA
ATOM     28  C   UNL     1       2.530   1.064   1.223  0.00  0.00    +0.112 C 
ATOM     29  C   UNL     1       0.756   0.344  -1.748  0.00  0.00    +0.009 C 
ENDBRANCH  19  27
ENDBRANCH  13  19
ENDBRANCH   1  16
BRANCH   3  30
ATOM     30  C   UNL     1       5.162  -2.057  -4.117  0.00  0.00    +0.114 C 
BRANCH  30  31
ATOM     31  C   UNL     1       6.554  -2.342  -3.550  0.00  0.00    +0.001 C 
BRANCH  31  32
ATOM     32  C   UNL     1       7.125  -1.062  -2.935  0.00  0.00    -0.078 C 
BRANCH  32  33
ATOM     33  N   UNL     1       8.461  -1.335  -2.390  0.00  0.00    +0.376 N 
ATOM     34  C   UNL     1       9.059  -0.083  -1.908  0.00  0.00    -0.097 C 
ATOM     35  C   UNL     1       8.351  -2.286  -1.276  0.00  0.00    -0.097 C 
ATOM     36  H   UNL     1       9.045  -1.730  -3.112  0.00  0.00    -0.083 HD
ENDBRANCH  32  33
ENDBRANCH  31  32
ENDBRANCH  30  31
ENDBRANCH   3  30
TORSDOF 7
