REMARK  Name = ZINC40758734
REMARK  6 active torsions:
REMARK  status: ('A' for Active; 'I' for Inactive)
REMARK    1  A    between atoms: C_1  and  C_2
REMARK    2  A    between atoms: C_9  and  N_12
REMARK    3  A    between atoms: C_14  and  N_33
REMARK    4  A    between atoms: C_15  and  N_19
REMARK    5  A    between atoms: N_19  and  C_20
REMARK    6  A    between atoms: C_20  and  C_21
REMARK                            x       y       z     vdW  Elec       q    Type
REMARK                         _______ _______ _______ _____ _____    ______ ____
ROOT
ATOM      1  N   UNL     1       0.016  -1.862   3.614  0.00  0.00    -0.298 N 
ATOM      2  C   UNL     1      -0.048  -2.562   4.813  0.00  0.00    +0.126 A 
ATOM      3  C   UNL     1      -0.179  -1.882   6.025  0.00  0.00    +0.104 A 
ATOM      4  C   UNL     1      -0.239  -2.634   7.200  0.00  0.00    +0.153 A 
ATOM      5  N   UNL     1      -0.171  -3.961   7.120  0.00  0.00    -0.220 NA
ATOM      6  C   UNL     1      -0.048  -4.564   5.955  0.00  0.00    +0.200 A 
ATOM      7  N   UNL     1       0.008  -3.892   4.823  0.00  0.00    -0.333 N 
ATOM      8  H   UNL     1       0.062  -0.893   3.620  0.00  0.00    +0.154 HD
ATOM      9  H   UNL     1       0.095  -4.373   3.985  0.00  0.00    +0.168 HD
ENDROOT
BRANCH   1  18
ATOM     10  C   UNL     1      -4.507  -3.978   3.275  0.00  0.00    +0.065 C 
ATOM     11  C   UNL     1      -3.295  -3.973   2.380  0.00  0.00    +0.039 A 
ATOM     12  C   UNL     1      -3.336  -4.676   1.178  0.00  0.00    +0.023 A 
ATOM     13  C   UNL     1      -2.247  -4.681   0.355  0.00  0.00    +0.012 A 
ATOM     14  C   UNL     1      -1.104  -3.965   0.759  0.00  0.00    +0.002 A 
ATOM     15  C   UNL     1       0.052  -3.926  -0.037  0.00  0.00    +0.010 A 
ATOM     16  C   UNL     1       1.142  -3.224   0.382  0.00  0.00    +0.003 A 
ATOM     17  C   UNL     1       1.130  -2.539   1.593  0.00  0.00    +0.025 A 
ATOM     18  C   UNL     1       0.015  -2.553   2.402  0.00  0.00    +0.059 A 
ATOM     19  C   UNL     1      -1.131  -3.273   1.994  0.00  0.00    +0.092 A 
ATOM     20  N   UNL     1      -2.231  -3.303   2.751  0.00  0.00    -0.250 NA
ENDBRANCH   1  18
BRANCH   4  21
ATOM     21  N   UNL     1      -0.369  -2.006   8.435  0.00  0.00    -0.264 N 
ATOM     22  C   UNL     1       0.762  -1.733   9.198  0.00  0.00    +0.127 A 
ATOM     23  C   UNL     1       2.026  -1.923   8.650  0.00  0.00    +0.044 A 
ATOM     24  C   UNL     1       3.142  -1.648   9.420  0.00  0.00    +0.005 A 
ATOM     25  C   UNL     1       2.954  -1.189  10.717  0.00  0.00    +0.020 A 
ATOM     26  C   UNL     1       1.671  -1.023  11.197  0.00  0.00    +0.113 A 
ATOM     27  N   UNL     1       0.625  -1.290  10.438  0.00  0.00    -0.240 NA
BRANCH  21  28
ATOM     28  C   UNL     1      -1.696  -1.632   8.931  0.00  0.00    +0.149 C 
BRANCH  28  29
ATOM     29  C   UNL     1      -2.271  -2.771   9.733  0.00  0.00    -0.030 A 
ATOM     30  C   UNL     1      -3.028  -3.744   9.107  0.00  0.00    +0.005 A 
ATOM     31  C   UNL     1      -3.556  -4.789   9.842  0.00  0.00    +0.000 A 
ATOM     32  C   UNL     1      -3.326  -4.861  11.203  0.00  0.00    +0.000 A 
ATOM     33  C   UNL     1      -2.569  -3.889  11.829  0.00  0.00    +0.000 A 
ATOM     34  C   UNL     1      -2.038  -2.846  11.093  0.00  0.00    +0.005 A 
ENDBRANCH  28  29
ENDBRANCH  21  28
ENDBRANCH   4  21
BRANCH   3  35
ATOM     35  N   UNL     1      -0.247  -0.480   6.062  0.00  0.00    -0.353 N 
ATOM     36  H   UNL     1      -0.278   0.025   5.235  0.00  0.00    +0.143 HD
ATOM     37  H   UNL     1      -0.263  -0.018   6.914  0.00  0.00    +0.143 HD
ENDBRANCH   3  35
TORSDOF 5
