REMARK  Name = ZINC63351017
REMARK  9 active torsions:
REMARK  status: ('A' for Active; 'I' for Inactive)
REMARK    1  A    between atoms: C_1  and  S_2
REMARK    2  A    between atoms: S_2  and  C_3
REMARK    3  A    between atoms: C_3  and  C_4
REMARK    4  A    between atoms: C_4  and  C_5
REMARK    5  A    between atoms: C_5  and  C_7
REMARK    6  A    between atoms: C_5  and  N_21
REMARK    7  A    between atoms: N_9  and  C_10
REMARK    8  A    between atoms: C_10  and  C_11
REMARK    9  A    between atoms: C_11  and  C_12
REMARK                            x       y       z     vdW  Elec       q    Type
REMARK                         _______ _______ _______ _____ _____    ______ ____
ROOT
ATOM      1  C   UNL     1      -3.345  -2.378   0.026  0.00  0.00    +0.161 C 
ENDROOT
BRANCH   1   2
ATOM      2  N   UNL     1      -3.965  -1.949   1.281  0.00  0.00    -0.288 N 
ATOM      3  C   UNL     1      -4.430  -0.690   1.408  0.00  0.00    +0.303 C 
ATOM      4  O   UNL     1      -4.262   0.113   0.510  0.00  0.00    -0.253 OA
ATOM      5  N   UNL     1      -5.080  -0.321   2.529  0.00  0.00    -0.285 N 
ATOM      6  C   UNL     1      -5.191  -1.239   3.668  0.00  0.00    +0.114 C 
ATOM      7  C   UNL     1      -6.640  -1.337   4.127  0.00  0.00    +0.027 C 
ATOM      8  C   UNL     1      -7.247   0.052   4.327  0.00  0.00    +0.018 C 
ATOM      9  C   UNL     1      -7.175   0.807   2.998  0.00  0.00    +0.054 C 
ATOM     10  C   UNL     1      -5.689   1.014   2.640  0.00  0.00    +0.119 C 
ATOM     11  C   UNL     1      -7.821  -0.016   1.908  0.00  0.00    +0.027 A 
ATOM     12  C   UNL     1      -8.356   0.652   0.852  0.00  0.00    +0.022 A 
ATOM     13  C   UNL     1      -8.910  -0.048  -0.226  0.00  0.00    +0.007 A 
ATOM     14  C   UNL     1      -8.883  -1.411  -0.211  0.00  0.00    +0.070 A 
ATOM     15  C   UNL     1      -8.320  -2.070   0.892  0.00  0.00    +0.251 A 
ATOM     16  O   UNL     1      -8.231  -3.287   0.888  0.00  0.00    -0.268 OA
ATOM     17  N   UNL     1      -7.875  -1.367   1.963  0.00  0.00    -0.312 N 
ATOM     18  C   UNL     1      -7.495  -2.123   3.150  0.00  0.00    +0.130 C 
ATOM     19  H   UNL     1      -4.042  -2.571   2.022  0.00  0.00    +0.151 HD
ENDBRANCH   1   2
BRANCH   1  20
ATOM     20  C   UNL     1      -3.470  -3.873  -0.111  0.00  0.00    +0.233 C 
ATOM     21  O   UNL     1      -4.024  -4.517   0.754  0.00  0.00    -0.274 OA
ATOM     22  N   UNL     1      -2.968  -4.495  -1.196  0.00  0.00    -0.313 N 
ATOM     23  H   UNL     1      -2.525  -3.981  -1.889  0.00  0.00    +0.149 HD
BRANCH  22  24
ATOM     24  C   UNL     1      -3.090  -5.949  -1.329  0.00  0.00    +0.108 C 
BRANCH  24  25
ATOM     25  C   UNL     1      -2.442  -6.397  -2.641  0.00  0.00    +0.052 C 
BRANCH  25  26
ATOM     26  C   UNL     1      -2.568  -7.893  -2.778  0.00  0.00    -0.040 C 
ATOM     27  C   UNL     1      -3.528  -8.570  -3.447  0.00  0.00    -0.001 A 
ATOM     28  C   UNL     1      -4.699  -8.134  -4.218  0.00  0.00    +0.010 A 
ATOM     29  C   UNL     1      -5.496  -9.068  -4.785  0.00  0.00    +0.001 A 
ATOM     30  C   UNL     1      -5.232 -10.438  -4.656  0.00  0.00    +0.002 A 
ATOM     31  C   UNL     1      -4.176 -10.916  -3.965  0.00  0.00    +0.026 A 
ATOM     32  C   UNL     1      -3.272 -10.023  -3.327  0.00  0.00    +0.043 A 
ATOM     33  N   UNL     1      -2.195 -10.236  -2.611  0.00  0.00    -0.380 N 
ATOM     34  C   UNL     1      -1.642  -8.940  -2.201  0.00  0.00    +0.144 C 
ATOM     35  H   UNL     1      -1.823 -11.105  -2.392  0.00  0.00    +0.160 HD
ENDBRANCH  25  26
ENDBRANCH  24  25
ENDBRANCH  22  24
ENDBRANCH   1  20
BRANCH   1  36
ATOM     36  C   UNL     1      -1.865  -1.989   0.029  0.00  0.00    +0.042 C 
BRANCH  36  37
ATOM     37  C   UNL     1      -1.738  -0.464   0.043  0.00  0.00    +0.071 C 
BRANCH  37  39
ATOM     38  C   UNL     1      -0.007   1.811   0.063  0.00  0.00    +0.084 C 
ATOM     39  S   UNL     1       0.016  -0.003   0.047  0.00  0.00    -0.164 S 
ENDBRANCH  37  39
ENDBRANCH  36  37
ENDBRANCH   1  36
TORSDOF 8
