REMARK  Name = ZINC35893428
REMARK  10 active torsions:
REMARK  status: ('A' for Active; 'I' for Inactive)
REMARK    1  A    between atoms: C_1  and  C_2
REMARK    2  A    between atoms: C_2  and  C_3
REMARK    3  A    between atoms: C_2  and  N_4
REMARK    4  A    between atoms: C_9  and  C_23
REMARK    5  A    between atoms: C_12  and  C_15
REMARK    6  A    between atoms: N_17  and  C_18
REMARK    7  A    between atoms: C_18  and  C_19
REMARK    8  A    between atoms: C_19  and  N_20
REMARK    9  A    between atoms: N_20  and  C_21
REMARK   10  A    between atoms: N_20  and  C_22
REMARK                            x       y       z     vdW  Elec       q    Type
REMARK                         _______ _______ _______ _____ _____    ______ ____
ROOT
ATOM      1  N   UNL     1      -0.650  -2.489  -0.996  0.00  0.00    -0.297 N 
ATOM      2  C   UNL     1      -1.643  -1.734  -0.485  0.00  0.00    +0.302 C 
ATOM      3  O   UNL     1      -1.387  -0.673   0.050  0.00  0.00    -0.253 OA
ATOM      4  N   UNL     1      -2.920  -2.157  -0.566  0.00  0.00    -0.284 N 
ATOM      5  C   UNL     1      -3.236  -3.489  -1.099  0.00  0.00    +0.117 C 
ATOM      6  C   UNL     1      -4.100  -4.237  -0.079  0.00  0.00    +0.037 C 
ATOM      7  C   UNL     1      -5.328  -3.389   0.262  0.00  0.00    +0.024 C 
ATOM      8  C   UNL     1      -4.879  -2.066   0.886  0.00  0.00    +0.093 C 
ATOM      9  C   UNL     1      -4.024  -1.296  -0.118  0.00  0.00    +0.122 C 
ATOM     10  H   UNL     1      -0.845  -3.367  -1.357  0.00  0.00    +0.150 HD
ENDROOT
BRANCH   6  11
ATOM     11  C   UNL     1      -4.543  -5.553  -0.664  0.00  0.00    -0.043 A 
ATOM     12  C   UNL     1      -5.293  -5.576  -1.824  0.00  0.00    +0.004 A 
ATOM     13  C   UNL     1      -5.700  -6.784  -2.361  0.00  0.00    +0.000 A 
ATOM     14  C   UNL     1      -5.355  -7.968  -1.737  0.00  0.00    +0.000 A 
ATOM     15  C   UNL     1      -4.604  -7.945  -0.577  0.00  0.00    +0.000 A 
ATOM     16  C   UNL     1      -4.194  -6.738  -0.043  0.00  0.00    +0.004 A 
ENDBRANCH   6  11
BRANCH   8  17
ATOM     17  C   UNL     1      -6.090  -1.246   1.252  0.00  0.00    +0.218 C 
ATOM     18  O   UNL     1      -7.202  -1.678   1.034  0.00  0.00    -0.275 OA
ATOM     19  N   UNL     1      -5.936  -0.034   1.820  0.00  0.00    -0.317 N 
ATOM     20  H   UNL     1      -5.047   0.311   1.994  0.00  0.00    +0.149 HD
BRANCH  19  21
ATOM     21  C   UNL     1      -7.113   0.763   2.175  0.00  0.00    +0.085 C 
BRANCH  21  22
ATOM     22  C   UNL     1      -6.664   2.086   2.800  0.00  0.00    -0.061 C 
BRANCH  22  23
ATOM     23  N   UNL     1      -7.844   2.884   3.156  0.00  0.00    +0.377 N 
ATOM     24  C   UNL     1      -8.602   2.195   4.209  0.00  0.00    -0.097 C 
ATOM     25  C   UNL     1      -7.415   4.202   3.644  0.00  0.00    -0.097 C 
ATOM     26  H   UNL     1      -8.429   3.002   2.342  0.00  0.00    -0.083 HD
ENDBRANCH  22  23
ENDBRANCH  21  22
ENDBRANCH  19  21
ENDBRANCH   8  17
BRANCH   1  28
ATOM     27  C   UNL     1       1.702  -3.158  -1.027  0.00  0.00    +0.027 C 
ATOM     28  C   UNL     1       0.724  -1.981  -1.006  0.00  0.00    +0.068 C 
ATOM     29  C   UNL     1       0.940  -1.116  -2.249  0.00  0.00    +0.027 C 
ENDBRANCH   1  28
TORSDOF 6
