REMARK  Name = ZINC00958592
REMARK  7 active torsions:
REMARK  status: ('A' for Active; 'I' for Inactive)
REMARK    1  A    between atoms: C_1  and  C_2
REMARK    2  A    between atoms: C_3  and  C_28
REMARK    3  A    between atoms: C_4  and  C_21
REMARK    4  A    between atoms: C_10  and  S_12
REMARK    5  A    between atoms: S_12  and  C_13
REMARK    6  A    between atoms: C_13  and  C_14
REMARK    7  A    between atoms: C_25  and  O_27
REMARK                            x       y       z     vdW  Elec       q    Type
REMARK                         _______ _______ _______ _____ _____    ______ ____
ROOT
ATOM      1  C   UNL     1       0.639   1.236   0.151  0.00  0.00    +0.064 C 
ATOM      2  C   UNL     1       0.388  -0.247   0.058  0.00  0.00    +0.026 C 
ATOM      3  C   UNL     1      -0.884  -0.690  -0.181  0.00  0.00    +0.059 C 
ATOM      4  C   UNL     1      -1.090  -2.192  -0.268  0.00  0.00    +0.166 C 
ATOM      5  N   UNL     1       0.108  -3.020  -0.085  0.00  0.00    -0.187 N 
ATOM      6  C   UNL     1       1.314  -2.402   0.148  0.00  0.00    +0.217 C 
ATOM      7  N   UNL     1       1.405  -1.080   0.203  0.00  0.00    -0.330 N 
ATOM      8  N   UNL     1       2.239  -3.363   0.278  0.00  0.00    -0.190 NA
ATOM      9  C   UNL     1       1.685  -4.555   0.141  0.00  0.00    +0.197 C 
ATOM     10  N   UNL     1       0.346  -4.397  -0.089  0.00  0.00    -0.118 NA
ATOM     11  H   UNL     1       2.281  -0.696   0.366  0.00  0.00    +0.168 HD
ENDROOT
BRANCH   4  12
ATOM     12  C   UNL     1      -1.673  -2.509  -1.621  0.00  0.00    -0.017 A 
ATOM     13  C   UNL     1      -0.889  -2.396  -2.754  0.00  0.00    +0.006 A 
ATOM     14  C   UNL     1      -1.420  -2.686  -3.997  0.00  0.00    +0.004 A 
ATOM     15  C   UNL     1      -2.737  -3.089  -4.110  0.00  0.00    +0.045 A 
ATOM     16  C   UNL     1      -3.526  -3.203  -2.974  0.00  0.00    +0.117 A 
ATOM     17  C   UNL     1      -2.988  -2.917  -1.727  0.00  0.00    +0.051 A 
BRANCH  16  18
ATOM     18  O   UNL     1      -4.821  -3.599  -3.083  0.00  0.00    -0.507 OA
ATOM     19  H   UNL     1      -4.946  -4.556  -3.025  0.00  0.00    +0.292 HD
ENDBRANCH  16  18
ENDBRANCH   4  12
BRANCH   3  20
ATOM     20  C   UNL     1      -1.955   0.206  -0.338  0.00  0.00    +0.241 C 
ATOM     21  O   UNL     1      -1.744   1.406  -0.379  0.00  0.00    -0.271 OA
ATOM     22  N   UNL     1      -3.215  -0.261  -0.445  0.00  0.00    -0.325 N 
ATOM     23  H   UNL     1      -3.392  -1.208  -0.336  0.00  0.00    +0.145 HD
ATOM     24  H   UNL     1      -3.945   0.351  -0.630  0.00  0.00    +0.145 HD
ENDBRANCH   3  20
BRANCH   9  25
ATOM     25  S   UNL     1       2.534  -6.096   0.238  0.00  0.00    -0.082 S 
BRANCH  25  26
ATOM     26  C   UNL     1       4.257  -5.629   0.557  0.00  0.00    +0.115 C 
BRANCH  26  27
ATOM     27  C   UNL     1       5.103  -6.871   0.664  0.00  0.00    -0.002 A 
ATOM     28  C   UNL     1       5.279  -7.485   1.891  0.00  0.00    +0.007 A 
ATOM     29  C   UNL     1       6.054  -8.624   1.989  0.00  0.00    +0.000 A 
ATOM     30  C   UNL     1       6.655  -9.153   0.861  0.00  0.00    +0.003 A 
ATOM     31  C   UNL     1       6.481  -8.541  -0.366  0.00  0.00    +0.038 A 
ATOM     32  C   UNL     1       5.699  -7.402  -0.466  0.00  0.00    +0.127 A 
ATOM     33  F   UNL     1       5.524  -6.807  -1.666  0.00  0.00    -0.205 F 
ENDBRANCH  26  27
ENDBRANCH  25  26
ENDBRANCH   9  25
TORSDOF 6
