REMARK  Name = ZINC05810273
REMARK  7 active torsions:
REMARK  status: ('A' for Active; 'I' for Inactive)
REMARK    1  A    between atoms: C_1  and  S_2
REMARK    2  A    between atoms: S_2  and  C_3
REMARK    3  A    between atoms: C_11  and  N_24
REMARK    4  A    between atoms: C_17  and  O_23
REMARK    5  A    between atoms: C_18  and  O_22
REMARK    6  A    between atoms: C_19  and  O_21
REMARK    7  A    between atoms: C_26  and  C_28
REMARK                            x       y       z     vdW  Elec       q    Type
REMARK                         _______ _______ _______ _____ _____    ______ ____
ROOT
ATOM      1  C   UNL     1      -1.650   2.943  -0.044  0.00  0.00    +0.054 A 
ATOM      2  C   UNL     1      -0.796   4.006  -0.071  0.00  0.00    +0.019 A 
ATOM      3  C   UNL     1       0.548   4.006  -0.032  0.00  0.00    +0.010 A 
ATOM      4  C   UNL     1       1.479   2.998   0.021  0.00  0.00    -0.009 A 
ATOM      5  C   UNL     1       1.214   1.630  -0.001  0.00  0.00    -0.016 A 
ATOM      6  C   UNL     1      -0.013   1.076   0.008  0.00  0.00    +0.058 A 
ATOM      7  C   UNL     1      -1.270   1.604   0.018  0.00  0.00    +0.193 A 
ATOM      8  O   UNL     1      -2.186   0.795   0.096  0.00  0.00    -0.287 OA
ATOM      9  C   UNL     1       2.384   0.669  -0.047  0.00  0.00    +0.104 C 
ATOM     10  C   UNL     1       3.009   0.479   1.320  0.00  0.00    +0.032 C 
ATOM     11  C   UNL     1       3.184   1.817   2.034  0.00  0.00    +0.038 C 
ATOM     12  C   UNL     1       3.740   2.836   1.073  0.00  0.00    -0.032 A 
ATOM     13  C   UNL     1       2.911   3.412   0.116  0.00  0.00    +0.031 A 
ATOM     14  C   UNL     1       3.415   4.368  -0.770  0.00  0.00    +0.170 A 
ATOM     15  C   UNL     1       4.753   4.733  -0.693  0.00  0.00    +0.201 A 
ATOM     16  C   UNL     1       5.577   4.147   0.262  0.00  0.00    +0.162 A 
ATOM     17  C   UNL     1       5.069   3.200   1.142  0.00  0.00    +0.053 A 
ENDROOT
BRANCH   9  18
ATOM     18  N   UNL     1       1.917  -0.628  -0.542  0.00  0.00    -0.304 N 
ATOM     19  H   UNL     1       1.665  -1.324   0.085  0.00  0.00    +0.150 HD
ATOM     20  C   UNL     1       1.838  -0.855  -1.868  0.00  0.00    +0.245 C 
ATOM     21  O   UNL     1       2.154   0.017  -2.654  0.00  0.00    -0.270 OA
BRANCH  20  22
ATOM     22  C   UNL     1       1.367  -2.165  -2.368  0.00  0.00    +0.037 A 
ATOM     23  C   UNL     1       1.010  -3.170  -1.468  0.00  0.00    +0.013 A 
ATOM     24  C   UNL     1       0.567  -4.388  -1.940  0.00  0.00    +0.001 A 
ATOM     25  C   UNL     1       0.487  -4.618  -3.303  0.00  0.00    +0.000 A 
ATOM     26  C   UNL     1       0.845  -3.627  -4.199  0.00  0.00    +0.001 A 
ATOM     27  C   UNL     1       1.284  -2.403  -3.740  0.00  0.00    +0.013 A 
ENDBRANCH  20  22
ENDBRANCH   9  18
BRANCH   1  29
ATOM     28  C   UNL     1      -3.330   5.099  -0.176  0.00  0.00    +0.090 C 
ATOM     29  S   UNL     1      -3.377   3.292  -0.099  0.00  0.00    -0.125 S 
ENDBRANCH   1  29
BRANCH  16  30
ATOM     30  O   UNL     1       6.887   4.501   0.333  0.00  0.00    -0.503 OA
ATOM     31  H   UNL     1       7.471   3.962  -0.218  0.00  0.00    +0.292 HD
ENDBRANCH  16  30
BRANCH  15  32
ATOM     32  O   UNL     1       5.257   5.662  -1.550  0.00  0.00    -0.501 OA
ATOM     33  H   UNL     1       5.610   5.291  -2.370  0.00  0.00    +0.292 HD
ENDBRANCH  15  32
BRANCH  14  34
ATOM     34  O   UNL     1       2.603   4.936  -1.700  0.00  0.00    -0.503 OA
ATOM     35  H   UNL     1       2.575   4.460  -2.542  0.00  0.00    +0.292 HD
ENDBRANCH  14  34
TORSDOF 6
