REMARK  Name = ZINC44861269
REMARK  6 active torsions:
REMARK  status: ('A' for Active; 'I' for Inactive)
REMARK    1  A    between atoms: C_1  and  C_2
REMARK    2  A    between atoms: C_2  and  C_3
REMARK    3  A    between atoms: C_3  and  C_5
REMARK    4  A    between atoms: C_3  and  C_9
REMARK    5  A    between atoms: N_6  and  O_7
REMARK    6  A    between atoms: N_11  and  C_12
REMARK                            x       y       z     vdW  Elec       q    Type
REMARK                         _______ _______ _______ _____ _____    ______ ____
ROOT
ATOM      1  C   UNL     1      -1.429  -0.188  -1.570  0.00  0.00    +0.228 C 
ATOM      2  O   UNL     1      -1.291  -1.007  -2.454  0.00  0.00    -0.275 OA
ATOM      3  N   UNL     1      -2.166   0.920  -1.786  0.00  0.00    -0.283 N 
ATOM      4  H   UNL     1      -2.343   1.534  -1.057  0.00  0.00    +0.155 HD
ENDROOT
BRANCH   3   5
ATOM      5  C   UNL     1      -2.676   1.183  -3.064  0.00  0.00    +0.062 A 
ATOM      6  C   UNL     1      -3.431   0.222  -3.724  0.00  0.00    +0.041 A 
ATOM      7  C   UNL     1      -3.933   0.485  -4.984  0.00  0.00    +0.032 A 
ATOM      8  C   UNL     1      -3.684   1.704  -5.589  0.00  0.00    +0.020 A 
ATOM      9  C   UNL     1      -2.933   2.664  -4.934  0.00  0.00    +0.032 A 
ATOM     10  C   UNL     1      -2.433   2.409  -3.671  0.00  0.00    +0.041 A 
ATOM     11 BR   UNL     1      -1.413   3.724  -2.773  0.00  0.00    -0.048 Br
ATOM     12 BR   UNL     1      -4.373   2.060  -7.314  0.00  0.00    -0.050 Br
ATOM     13 BR   UNL     1      -3.770  -1.446  -2.899  0.00  0.00    -0.048 Br
ENDBRANCH   3   5
BRANCH   1  14
ATOM     14  C   UNL     1      -0.776  -0.408  -0.230  0.00  0.00    +0.141 C 
BRANCH  14  15
ATOM     15  C   UNL     1      -0.766  -1.882   0.087  0.00  0.00    +0.144 C 
ATOM     16  N   UNL     1       0.274  -2.595  -0.192  0.00  0.00    -0.076 NA
ATOM     17  N   UNL     1      -1.865  -2.467   0.674  0.00  0.00    -0.343 N 
ATOM     18  H   UNL     1      -2.646  -1.931   0.884  0.00  0.00    +0.144 HD
ATOM     19  H   UNL     1      -1.859  -3.415   0.879  0.00  0.00    +0.144 HD
BRANCH  16  20
ATOM     20  O   UNL     1       0.284  -3.980   0.106  0.00  0.00    -0.408 OA
ATOM     21  H   UNL     1       1.104  -4.429  -0.139  0.00  0.00    +0.328 HD
ENDBRANCH  16  20
ENDBRANCH  14  15
BRANCH  14  23
ATOM     22  C   UNL     1       1.278   0.022   1.126  0.00  0.00    +0.005 C 
ATOM     23  C   UNL     1       0.662   0.114  -0.272  0.00  0.00    +0.017 C 
ENDBRANCH  14  23
ENDBRANCH   1  14
TORSDOF 5
