REMARK  Name = ZINC38821578
REMARK  5 active torsions:
REMARK  status: ('A' for Active; 'I' for Inactive)
REMARK    1  A    between atoms: C_5  and  C_7
REMARK    2  A    between atoms: C_7  and  S_8
REMARK    3  A    between atoms: S_8  and  C_9
REMARK    4  A    between atoms: C_15  and  C_27
REMARK    5  A    between atoms: C_31  and  O_33
REMARK                            x       y       z     vdW  Elec       q    Type
REMARK                         _______ _______ _______ _____ _____    ______ ____
ROOT
ATOM      1  C   UNL     1       1.275  -4.553   1.506  0.00  0.00    +0.182 C 
ATOM      2  N   UNL     1       1.275  -5.077   0.289  0.00  0.00    -0.154 NA
ATOM      3  C   UNL     1       1.314  -6.384   0.087  0.00  0.00    +0.250 C 
ATOM      4  O   UNL     1       1.300  -6.809  -1.052  0.00  0.00    -0.273 OA
ATOM      5  C   UNL     1       1.374  -7.356   1.229  0.00  0.00    +0.152 C 
ATOM      6  C   UNL     1       0.170  -8.298   1.185  0.00  0.00    +0.073 C 
ATOM      7  C   UNL     1       0.023  -9.024   2.502  0.00  0.00    +0.021 C 
ATOM      8  C   UNL     1       0.556  -8.553   3.645  0.00  0.00    +0.016 C 
ATOM      9  C   UNL     1       0.385  -9.296   4.949  0.00  0.00    +0.051 C 
ATOM     10  C   UNL     1      -0.946 -10.051   4.941  0.00  0.00    +0.014 C 
ATOM     11  C   UNL     1      -0.944 -11.015   3.749  0.00  0.00    +0.080 C 
ATOM     12  C   UNL     1      -0.706 -10.231   2.489  0.00  0.00    +0.161 C 
ATOM     13  O   UNL     1      -1.152 -10.646   1.438  0.00  0.00    -0.292 OA
ATOM     14  N   UNL     1       1.287  -7.385   3.675  0.00  0.00    -0.305 N 
ATOM     15  C   UNL     1       1.331  -6.615   2.545  0.00  0.00    +0.115 C 
ATOM     16  N   UNL     1       1.296  -5.319   2.605  0.00  0.00    -0.213 NA
ATOM     17  H   UNL     1       1.764  -7.117   4.475  0.00  0.00    +0.153 HD
ENDROOT
BRANCH   6  18
ATOM     18  C   UNL     1       0.366  -9.306   0.082  0.00  0.00    -0.035 A 
ATOM     19  C   UNL     1       1.454 -10.159   0.111  0.00  0.00    +0.004 A 
ATOM     20  C   UNL     1       1.637 -11.085  -0.899  0.00  0.00    +0.004 A 
ATOM     21  C   UNL     1       0.733 -11.160  -1.941  0.00  0.00    +0.045 A 
ATOM     22  C   UNL     1      -0.359 -10.305  -1.973  0.00  0.00    +0.117 A 
ATOM     23  C   UNL     1      -0.544  -9.381  -0.955  0.00  0.00    +0.049 A 
BRANCH  22  24
ATOM     24  O   UNL     1      -1.250 -10.377  -2.997  0.00  0.00    -0.507 OA
ATOM     25  H   UNL     1      -1.983 -10.988  -2.839  0.00  0.00    +0.292 HD
ENDBRANCH  22  24
ENDBRANCH   6  18
BRANCH   1  26
ATOM     26  S   UNL     1       1.253  -2.800   1.685  0.00  0.00    -0.084 S 
BRANCH  26  27
ATOM     27  C   UNL     1       1.228  -2.186  -0.022  0.00  0.00    +0.115 C 
BRANCH  27  32
ATOM     28  C   UNL     1      -0.017   1.378   0.010  0.00  0.00    +0.000 A 
ATOM     29  C   UNL     1       1.171   2.087   0.002  0.00  0.00    +0.003 A 
ATOM     30  C   UNL     1       2.377   1.414  -0.013  0.00  0.00    +0.038 A 
ATOM     31  C   UNL     1       2.397   0.029  -0.021  0.00  0.00    +0.127 A 
ATOM     32  C   UNL     1       1.208  -0.679  -0.013  0.00  0.00    -0.002 A 
ATOM     33  C   UNL     1       0.002  -0.004   0.002  0.00  0.00    +0.007 A 
ATOM     34  F   UNL     1       3.577  -0.630  -0.036  0.00  0.00    -0.205 F 
ENDBRANCH  27  32
ENDBRANCH  26  27
ENDBRANCH   1  26
TORSDOF 5
