REMARK  Name = ZINC39668786
REMARK  9 active torsions:
REMARK  status: ('A' for Active; 'I' for Inactive)
REMARK    1  A    between atoms: C_1  and  C_2
REMARK    2  A    between atoms: C_5  and  C_12
REMARK    3  A    between atoms: N_9  and  C_11
REMARK    4  A    between atoms: C_16  and  C_25
REMARK    5  A    between atoms: N_27  and  C_28
REMARK    6  A    between atoms: C_28  and  C_29
REMARK    7  A    between atoms: C_29  and  C_31
REMARK    8  A    between atoms: C_29  and  O_32
REMARK    9  A    between atoms: O_32  and  C_33
REMARK                            x       y       z     vdW  Elec       q    Type
REMARK                         _______ _______ _______ _____ _____    ______ ____
ROOT
ATOM      1  C   UNL     1       0.161  -1.421  -5.114  0.00  0.00    +0.250 C 
ATOM      2  O   UNL     1       0.098  -0.315  -5.615  0.00  0.00    -0.270 OA
ATOM      3  N   UNL     1       0.259  -2.512  -5.900  0.00  0.00    -0.296 N 
ATOM      4  C   UNL     1       0.241  -3.935  -5.484  0.00  0.00    +0.121 C 
ATOM      5  C   UNL     1      -0.590  -4.649  -6.574  0.00  0.00    +0.100 C 
ATOM      6  C   UNL     1      -0.474  -3.743  -7.812  0.00  0.00    -0.004 C 
ATOM      7  C   UNL     1       0.402  -2.561  -7.375  0.00  0.00    +0.115 C 
ATOM      8  C   UNL     1      -1.853  -3.244  -8.232  0.00  0.00    -0.010 C 
ATOM      9  C   UNL     1      -1.719  -2.392  -9.497  0.00  0.00    -0.082 C 
ATOM     10  N   UNL     1      -1.121  -3.197 -10.569  0.00  0.00    +0.379 N 
ATOM     11  C   UNL     1       0.241  -3.596 -10.196  0.00  0.00    -0.082 C 
ATOM     12  C   UNL     1       0.190  -4.498  -8.960  0.00  0.00    -0.010 C 
ATOM     13  H   UNL     1      -1.682  -4.021 -10.722  0.00  0.00    -0.086 HD
ATOM     14  H   UNL     1      -1.090  -2.653 -11.419  0.00  0.00    -0.086 HD
ENDROOT
BRANCH   1  19
ATOM     15  C   UNL     1      -2.241   0.935  -0.449  0.00  0.00    +0.068 C 
ATOM     16  C   UNL     1      -1.296  -0.235  -0.359  0.00  0.00    +0.071 A 
ATOM     17  C   UNL     1      -0.638  -0.900  -1.479  0.00  0.00    +0.060 A 
ATOM     18  C   UNL     1      -0.648  -0.713  -2.865  0.00  0.00    +0.067 A 
ATOM     19  C   UNL     1       0.132  -1.569  -3.646  0.00  0.00    +0.074 A 
ATOM     20  C   UNL     1       0.885  -2.571  -3.018  0.00  0.00    +0.127 A 
ATOM     21  N   UNL     1       0.872  -2.719  -1.715  0.00  0.00    -0.235 NA
ATOM     22  C   UNL     1       0.148  -1.932  -0.925  0.00  0.00    +0.160 A 
ATOM     23  N   UNL     1      -0.036  -1.877   0.428  0.00  0.00    -0.249 N 
ATOM     24  N   UNL     1      -0.914  -0.832   0.733  0.00  0.00    -0.174 NA
ATOM     25  C   UNL     1       0.592  -2.769   1.405  0.00  0.00    +0.174 C 
ATOM     26 CL   UNL     1      -1.600   0.544  -3.591  0.00  0.00    -0.082 Cl
ENDBRANCH   1  19
BRANCH   5  27
ATOM     27  C   UNL     1      -0.015  -6.012  -6.863  0.00  0.00    +0.218 C 
ATOM     28  O   UNL     1       1.162  -6.228  -6.665  0.00  0.00    -0.275 OA
ATOM     29  N   UNL     1      -0.808  -6.990  -7.342  0.00  0.00    -0.312 N 
ATOM     30  H   UNL     1      -1.750  -6.817  -7.500  0.00  0.00    +0.149 HD
BRANCH  29  31
ATOM     31  C   UNL     1      -0.249  -8.315  -7.622  0.00  0.00    +0.148 C 
BRANCH  31  32
ATOM     32  C   UNL     1      -1.353  -9.232  -8.152  0.00  0.00    +0.187 C 
ATOM     33  C   UNL     1      -0.800 -10.648  -8.327  0.00  0.00    +0.053 C 
BRANCH  32  34
ATOM     34  O   UNL     1      -1.816  -8.743  -9.412  0.00  0.00    -0.486 OA
BRANCH  34  35
ATOM     35  C   UNL     1      -3.074  -9.096  -9.787  0.00  0.00    +0.139 A 
ATOM     36  C   UNL     1      -3.881  -9.843  -8.935  0.00  0.00    +0.049 A 
ATOM     37  C   UNL     1      -5.155 -10.179  -9.361  0.00  0.00    +0.023 A 
ATOM     38  C   UNL     1      -5.580  -9.764 -10.610  0.00  0.00    +0.111 A 
ATOM     39  N   UNL     1      -4.790  -9.057 -11.394  0.00  0.00    -0.260 NA
ATOM     40  C   UNL     1      -3.573  -8.712 -11.023  0.00  0.00    +0.156 A 
ENDBRANCH  34  35
ENDBRANCH  32  34
ENDBRANCH  31  32
ENDBRANCH  29  31
ENDBRANCH   5  27
TORSDOF 6
