REMARK  Name = ZINC51803039
REMARK  10 active torsions:
REMARK  status: ('A' for Active; 'I' for Inactive)
REMARK    1  A    between atoms: C_1  and  C_2
REMARK    2  A    between atoms: C_5  and  N_9
REMARK    3  A    between atoms: C_6  and  C_8
REMARK    4  A    between atoms: N_9  and  S_10
REMARK    5  A    between atoms: S_10  and  C_13
REMARK    6  A    between atoms: C_16  and  N_22
REMARK    7  A    between atoms: C_17  and  N_19
REMARK    8  A    between atoms: N_22  and  C_23
REMARK    9  A    between atoms: C_23  and  C_25
REMARK   10  A    between atoms: C_23  and  C_26
REMARK                            x       y       z     vdW  Elec       q    Type
REMARK                         _______ _______ _______ _____ _____    ______ ____
ROOT
ATOM      1  C   UNL     1       2.523  -4.735  -1.166  0.00  0.00    +0.111 A 
ATOM      2  C   UNL     1       3.111  -3.629  -1.752  0.00  0.00    +0.031 A 
ATOM      3  C   UNL     1       4.466  -3.406  -1.603  0.00  0.00    +0.027 A 
ATOM      4  C   UNL     1       5.237  -4.293  -0.863  0.00  0.00    +0.058 A 
ATOM      5  C   UNL     1       4.643  -5.402  -0.276  0.00  0.00    +0.149 A 
ATOM      6  C   UNL     1       3.287  -5.617  -0.424  0.00  0.00    +0.063 A 
ENDROOT
BRANCH   1   7
ATOM      7  S   UNL     1       0.794  -5.016  -1.358  0.00  0.00    +0.072 S 
ATOM      8  O   UNL     1       0.585  -6.408  -1.164  0.00  0.00    -0.150 OA
ATOM      9  O   UNL     1       0.404  -4.346  -2.548  0.00  0.00    -0.150 OA
BRANCH   7  10
ATOM     10  N   UNL     1       0.030  -4.244  -0.108  0.00  0.00    -0.216 N 
ATOM     11  H   UNL     1      -0.511  -4.752   0.517  0.00  0.00    +0.174 HD
BRANCH  10  16
ATOM     12  C   UNL     1       0.581   1.364   0.523  0.00  0.00    +0.044 C 
ATOM     13  C   UNL     1       0.435  -0.126   0.355  0.00  0.00    -0.050 A 
ATOM     14  C   UNL     1       0.381  -0.676  -0.913  0.00  0.00    +0.005 A 
ATOM     15  C   UNL     1       0.247  -2.041  -1.070  0.00  0.00    +0.025 A 
ATOM     16  C   UNL     1       0.166  -2.863   0.048  0.00  0.00    +0.051 A 
ATOM     17  C   UNL     1       0.221  -2.308   1.319  0.00  0.00    -0.028 A 
ATOM     18  C   UNL     1       0.360  -0.942   1.469  0.00  0.00    +0.008 A 
ATOM     19  C   UNL     1       0.133  -3.195   2.534  0.00  0.00    +0.046 C 
ENDBRANCH  10  16
ENDBRANCH   7  10
ENDBRANCH   1   7
BRANCH   5  20
ATOM     20  N   UNL     1       5.461  -6.351   0.513  0.00  0.00    +0.058 N 
ATOM     21  O   UNL     1       6.587  -6.615   0.161  0.00  0.00    -0.126 OA
ATOM     22  O   UNL     1       5.004  -6.861   1.509  0.00  0.00    -0.126 OA
ENDBRANCH   5  20
BRANCH   4  23
ATOM     23  N   UNL     1       6.608  -4.070  -0.710  0.00  0.00    -0.337 N 
ATOM     24  H   UNL     1       7.158  -4.726  -0.253  0.00  0.00    +0.146 HD
BRANCH  23  25
ATOM     25  C   UNL     1       7.214  -2.846  -1.240  0.00  0.00    +0.096 C 
ATOM     26  C   UNL     1       7.560  -3.047  -2.717  0.00  0.00    +0.030 C 
BRANCH  25  27
ATOM     27  C   UNL     1       8.489  -2.528  -0.456  0.00  0.00    +0.138 C 
ATOM     28  C   UNL     1       9.070  -1.177  -0.927  0.00  0.00    +0.035 C 
ATOM     29  C   UNL     1      10.598  -1.455  -0.919  0.00  0.00    +0.031 C 
ATOM     30  C   UNL     1      10.628  -2.947  -1.335  0.00  0.00    +0.160 C 
ATOM     31  O   UNL     1       9.477  -3.536  -0.705  0.00  0.00    -0.375 OA
ENDBRANCH  25  27
ENDBRANCH  23  25
ENDBRANCH   4  23
TORSDOF 7
