REMARK  Name = ZINC08684938
REMARK  6 active torsions:
REMARK  status: ('A' for Active; 'I' for Inactive)
REMARK    1  A    between atoms: C_4  and  C_16
REMARK    2  A    between atoms: C_5  and  C_7
REMARK    3  A    between atoms: C_16  and  O_18
REMARK    4  A    between atoms: O_18  and  C_19
REMARK    5  A    between atoms: C_19  and  C_20
REMARK    6  A    between atoms: N_22  and  C_23
REMARK                            x       y       z     vdW  Elec       q    Type
REMARK                         _______ _______ _______ _____ _____    ______ ____
ROOT
ATOM      1  C   UNL     1       0.006   1.402   0.136  0.00  0.00    +0.001 A 
ATOM      2  C   UNL     1       1.159   2.075  -0.235  0.00  0.00    +0.001 A 
ATOM      3  C   UNL     1       2.350   1.394  -0.378  0.00  0.00    +0.015 A 
ATOM      4  C   UNL     1       2.399   0.019  -0.149  0.00  0.00    +0.069 A 
ATOM      5  C   UNL     1       1.227  -0.665   0.228  0.00  0.00    +0.021 A 
ATOM      6  C   UNL     1       0.034   0.042   0.367  0.00  0.00    +0.011 A 
ENDROOT
BRANCH   5   7
ATOM      7  C   UNL     1       1.262  -2.121   0.474  0.00  0.00    +0.110 A 
ATOM      8  N   UNL     1       2.017  -2.800   1.310  0.00  0.00    -0.239 NA
ATOM      9  C   UNL     1       1.944  -4.133   1.433  0.00  0.00    +0.079 A 
ATOM     10  C   UNL     1       2.695  -4.975   2.289  0.00  0.00    +0.029 A 
ATOM     11  C   UNL     1       2.498  -6.319   2.291  0.00  0.00    +0.002 A 
ATOM     12  C   UNL     1       1.561  -6.921   1.463  0.00  0.00    +0.001 A 
ATOM     13  C   UNL     1       0.806  -6.137   0.612  0.00  0.00    +0.017 A 
ATOM     14  C   UNL     1       0.996  -4.776   0.601  0.00  0.00    +0.040 A 
ATOM     15  S   UNL     1       0.283  -3.411  -0.284  0.00  0.00    -0.067 S 
ENDBRANCH   5   7
BRANCH   4  16
ATOM     16  C   UNL     1       3.670  -0.715  -0.301  0.00  0.00    +0.340 C 
ATOM     17  O   UNL     1       3.687  -1.927  -0.209  0.00  0.00    -0.245 OA
BRANCH  16  18
ATOM     18  O   UNL     1       4.812  -0.042  -0.542  0.00  0.00    -0.452 OA
BRANCH  18  19
ATOM     19  C   UNL     1       6.006  -0.816  -0.677  0.00  0.00    +0.328 C 
BRANCH  19  20
ATOM     20  C   UNL     1       7.172   0.101  -0.941  0.00  0.00    +0.251 C 
ATOM     21  O   UNL     1       6.998   1.299  -1.007  0.00  0.00    -0.272 OA
ATOM     22  N   UNL     1       8.408  -0.411  -1.105  0.00  0.00    -0.308 N 
ATOM     23  H   UNL     1       8.547  -1.370  -1.053  0.00  0.00    +0.149 HD
BRANCH  22  24
ATOM     24  C   UNL     1       9.542   0.480  -1.361  0.00  0.00    +0.095 C 
ATOM     25  C   UNL     1      10.102   0.992  -0.024  0.00  0.00    +0.046 C 
ATOM     26  C   UNL     1      11.474   1.670  -0.301  0.00  0.00    +0.168 C 
ATOM     27  S   UNL     1      12.188   0.496  -1.529  0.00  0.00    -0.029 S 
ATOM     28  O   UNL     1      12.965  -0.475  -0.843  0.00  0.00    -0.174 OA
ATOM     29  O   UNL     1      12.773   1.237  -2.591  0.00  0.00    -0.174 OA
ATOM     30  C   UNL     1      10.640  -0.293  -2.130  0.00  0.00    +0.188 C 
ENDBRANCH  22  24
ENDBRANCH  19  20
ENDBRANCH  18  19
ENDBRANCH  16  18
ENDBRANCH   4  16
TORSDOF 6
