REMARK  Name = ZINC39859395
REMARK  12 active torsions:
REMARK  status: ('A' for Active; 'I' for Inactive)
REMARK    1  A    between atoms: C_1  and  C_2
REMARK    2  A    between atoms: C_2  and  C_3
REMARK    3  A    between atoms: C_7  and  C_31
REMARK    4  A    between atoms: C_8  and  N_9
REMARK    5  A    between atoms: N_9  and  C_10
REMARK    6  A    between atoms: C_10  and  N_12
REMARK    7  A    between atoms: N_12  and  C_13
REMARK    8  A    between atoms: C_13  and  C_15
REMARK    9  A    between atoms: C_13  and  N_19
REMARK   10  A    between atoms: C_20  and  C_22
REMARK   11  A    between atoms: C_25  and  N_28
REMARK   12  A    between atoms: C_31  and  C_32
REMARK                            x       y       z     vdW  Elec       q    Type
REMARK                         _______ _______ _______ _____ _____    ______ ____
ROOT
ATOM      1  C   UNL     1      -1.405  -0.384  -5.681  0.00  0.00    +0.211 C 
ENDROOT
BRANCH   1   2
ATOM      2  C   UNL     1      -1.290   0.845  -6.586  0.00  0.00    +0.225 C 
ATOM      3 CL   UNL     1       0.407   1.454  -6.557  0.00  0.00    -0.080 Cl
ATOM      4 CL   UNL     1      -1.737   0.393  -8.273  0.00  0.00    -0.080 Cl
ATOM      5 CL   UNL     1      -2.402   2.134  -5.994  0.00  0.00    -0.080 Cl
ENDBRANCH   1   2
BRANCH   1   6
ATOM      6  N   UNL     1      -0.502  -1.432  -6.162  0.00  0.00    -0.290 N 
ATOM      7  C   UNL     1      -0.933  -2.705  -6.251  0.00  0.00    +0.246 C 
ATOM      8  O   UNL     1      -2.073  -2.985  -5.932  0.00  0.00    -0.270 OA
ATOM      9  H   UNL     1       0.407  -1.209  -6.417  0.00  0.00    +0.151 HD
BRANCH   7  10
ATOM     10  C   UNL     1      -0.021  -3.763  -6.737  0.00  0.00    +0.037 A 
ATOM     11  C   UNL     1       1.289  -3.446  -7.098  0.00  0.00    +0.015 A 
ATOM     12  C   UNL     1       2.135  -4.438  -7.550  0.00  0.00    +0.033 A 
ATOM     13  C   UNL     1       1.687  -5.744  -7.646  0.00  0.00    +0.126 A 
ATOM     14  C   UNL     1       0.389  -6.064  -7.289  0.00  0.00    +0.033 A 
ATOM     15  C   UNL     1      -0.465  -5.083  -6.830  0.00  0.00    +0.015 A 
BRANCH  13  16
ATOM     16  N   UNL     1       2.600  -6.802  -8.132  0.00  0.00    +0.056 N 
ATOM     17  O   UNL     1       3.735  -6.525  -8.444  0.00  0.00    -0.126 OA
ATOM     18  O   UNL     1       2.211  -7.944  -8.216  0.00  0.00    -0.126 OA
ENDBRANCH  13  16
ENDBRANCH   7  10
ENDBRANCH   1   6
BRANCH   1  19
ATOM     19  N   UNL     1      -1.042  -0.017  -4.310  0.00  0.00    -0.305 N 
ATOM     20  H   UNL     1      -0.255   0.526  -4.146  0.00  0.00    +0.150 HD
BRANCH  19  21
ATOM     21  C   UNL     1      -1.800  -0.433  -3.277  0.00  0.00    +0.136 C 
ATOM     22  S   UNL     1      -3.189  -1.391  -3.567  0.00  0.00    -0.019 S 
BRANCH  21  23
ATOM     23  N   UNL     1      -1.466  -0.096  -2.016  0.00  0.00    -0.296 N 
ATOM     24  H   UNL     1      -0.720   0.503  -1.856  0.00  0.00    +0.154 HD
BRANCH  23  30
ATOM     25  C   UNL     1      -3.375   0.005  -0.541  0.00  0.00    -0.026 A 
ATOM     26  C   UNL     1      -4.095  -0.508   0.520  0.00  0.00    +0.005 A 
ATOM     27  C   UNL     1      -3.639  -1.628   1.191  0.00  0.00    +0.001 A 
ATOM     28  C   UNL     1      -2.461  -2.239   0.801  0.00  0.00    +0.005 A 
ATOM     29  C   UNL     1      -1.736  -1.730  -0.259  0.00  0.00    -0.026 A 
ATOM     30  C   UNL     1      -2.194  -0.609  -0.938  0.00  0.00    +0.039 A 
BRANCH  25  32
ATOM     31  C   UNL     1      -5.290   1.558  -0.799  0.00  0.00    +0.009 C 
ATOM     32  C   UNL     1      -3.873   1.226  -1.270  0.00  0.00    +0.033 C 
ENDBRANCH  25  32
BRANCH  29  33
ATOM     33  C   UNL     1      -0.452  -2.396  -0.683  0.00  0.00    +0.033 C 
ATOM     34  C   UNL     1       0.731  -1.700  -0.006  0.00  0.00    +0.009 C 
ENDBRANCH  29  33
ENDBRANCH  23  30
ENDBRANCH  21  23
ENDBRANCH  19  21
ENDBRANCH   1  19
TORSDOF 10
