REMARK  Name = ZINC26997719
REMARK  4 active torsions:
REMARK  status: ('A' for Active; 'I' for Inactive)
REMARK    1  A    between atoms: C_15  and  C_17
REMARK    2  A    between atoms: C_17  and  S_18
REMARK    3  A    between atoms: S_18  and  C_19
REMARK    4  A    between atoms: N_23  and  C_24
REMARK                            x       y       z     vdW  Elec       q    Type
REMARK                         _______ _______ _______ _____ _____    ______ ____
ROOT
ATOM      1  S   UNL     1       0.041  -2.351  -2.534  0.00  0.00    -0.076 S 
ENDROOT
BRANCH   1   2
ATOM      2  C   UNL     1       0.772  -2.890  -1.024  0.00  0.00    +0.198 A 
ATOM      3  N   UNL     1       0.967  -4.135  -0.663  0.00  0.00    -0.120 NA
ATOM      4  N   UNL     1       1.571  -4.131   0.601  0.00  0.00    -0.112 NA
ATOM      5  C   UNL     1       1.731  -2.885   0.971  0.00  0.00    +0.225 A 
ATOM      6  N   UNL     1       1.236  -2.082  -0.021  0.00  0.00    -0.258 N 
ATOM      7  N   UNL     1       2.300  -2.454   2.163  0.00  0.00    -0.299 N 
ATOM      8  C   UNL     1       1.315  -1.702   2.982  0.00  0.00    +0.108 C 
ATOM      9  C   UNL     1       1.914  -1.772   4.409  0.00  0.00    +0.020 C 
ATOM     10  C   UNL     1       2.510  -3.198   4.464  0.00  0.00    +0.020 C 
ATOM     11  C   UNL     1       2.724  -3.601   2.994  0.00  0.00    +0.108 C 
BRANCH   6  12
ATOM     12  C   UNL     1       1.214  -0.680  -0.013  0.00  0.00    +0.053 A 
ATOM     13  C   UNL     1       2.404   0.035  -0.021  0.00  0.00    +0.026 A 
ATOM     14  C   UNL     1       2.380   1.415  -0.013  0.00  0.00    +0.003 A 
ATOM     15  C   UNL     1       1.172   2.087   0.002  0.00  0.00    +0.020 A 
ATOM     16  C   UNL     1      -0.017   1.378   0.010  0.00  0.00    +0.043 A 
ATOM     17  C   UNL     1       0.002  -0.004   0.002  0.00  0.00    +0.046 A 
ATOM     18 CL   UNL     1      -1.532   2.225   0.021  0.00  0.00    -0.083 Cl
ENDBRANCH   6  12
ENDBRANCH   1   2
BRANCH   1  19
ATOM     19  C   UNL     1      -0.348  -3.892  -3.407  0.00  0.00    +0.173 C 
BRANCH  19  34
ATOM     20  C   UNL     1      -5.599  -4.616  -9.836  0.00  0.00    +0.001 A 
ATOM     21  C   UNL     1      -6.423  -5.694  -9.556  0.00  0.00    +0.002 A 
ATOM     22  C   UNL     1      -6.177  -6.557  -8.502  0.00  0.00    +0.026 A 
ATOM     23  C   UNL     1      -5.052  -6.296  -7.721  0.00  0.00    +0.047 A 
ATOM     24  C   UNL     1      -4.213  -5.190  -8.013  0.00  0.00    +0.005 A 
ATOM     25  C   UNL     1      -4.485  -4.335  -9.085  0.00  0.00    +0.010 A 
ATOM     26  C   UNL     1      -3.159  -5.218  -7.021  0.00  0.00    -0.002 A 
ATOM     27  C   UNL     1      -3.395  -6.276  -6.215  0.00  0.00    +0.023 A 
ATOM     28  N   UNL     1      -4.527  -6.929  -6.632  0.00  0.00    -0.358 N 
ATOM     29  H   UNL     1      -5.019  -7.825  -6.226  0.00  0.00    +0.166 HD
ATOM     30  C   UNL     1      -2.526  -6.656  -5.041  0.00  0.00    +0.072 C 
ATOM     31  C   UNL     1      -1.161  -5.975  -5.188  0.00  0.00    +0.114 C 
ATOM     32  N   UNL     1      -1.364  -4.566  -5.560  0.00  0.00    -0.296 N 
ATOM     33  C   UNL     1      -1.997  -4.275  -6.858  0.00  0.00    +0.145 C 
ATOM     34  C   UNL     1      -0.988  -3.570  -4.734  0.00  0.00    +0.226 C 
ATOM     35  O   UNL     1      -1.164  -2.415  -5.057  0.00  0.00    -0.275 OA
ENDBRANCH  19  34
ENDBRANCH   1  19
TORSDOF 4
