REMARK  Name = ZINC09282262
REMARK  5 active torsions:
REMARK  status: ('A' for Active; 'I' for Inactive)
REMARK    1  A    between atoms: C_4  and  C_7
REMARK    2  A    between atoms: C_14  and  N_37
REMARK    3  A    between atoms: C_15  and  C_35
REMARK    4  A    between atoms: N_23  and  C_26
REMARK    5  A    between atoms: C_26  and  C_27
REMARK                            x       y       z     vdW  Elec       q    Type
REMARK                         _______ _______ _______ _____ _____    ______ ____
ROOT
ATOM      1  C   UNL     1       4.338   0.337  -1.489  0.00  0.00    +0.074 A 
ATOM      2  C   UNL     1       4.636  -0.469  -2.536  0.00  0.00    +0.066 A 
ATOM      3  C   UNL     1       5.999  -0.291  -2.850  0.00  0.00    +0.246 A 
ATOM      4  N   UNL     1       6.498   0.585  -2.025  0.00  0.00    -0.135 NA
ATOM      5  N   UNL     1       5.481   1.008  -1.156  0.00  0.00    -0.273 N 
ATOM      6  H   UNL     1       5.573   1.661  -0.444  0.00  0.00    +0.189 HD
ATOM      7  O   UNL     1       6.596  -0.971  -3.866  0.00  0.00    -0.421 OA
ATOM      8  C   UNL     1       5.803  -1.623  -4.738  0.00  0.00    +0.201 C 
ATOM      9  C   UNL     1       4.487  -1.863  -4.541  0.00  0.00    +0.110 C 
ATOM     10  C   UNL     1       3.760  -1.421  -3.302  0.00  0.00    +0.145 C 
ATOM     11  C   UNL     1       3.358  -2.588  -2.459  0.00  0.00    -0.001 A 
ATOM     12  C   UNL     1       4.103  -3.567  -1.836  0.00  0.00    +0.007 A 
ATOM     13  C   UNL     1       3.404  -4.527  -1.113  0.00  0.00    +0.000 A 
ATOM     14  C   UNL     1       2.027  -4.499  -1.024  0.00  0.00    +0.002 A 
ATOM     15  C   UNL     1       1.272  -3.518  -1.648  0.00  0.00    +0.024 A 
ATOM     16  C   UNL     1       1.961  -2.548  -2.378  0.00  0.00    +0.041 A 
ATOM     17  N   UNL     1       1.468  -1.471  -3.092  0.00  0.00    -0.265 N 
ATOM     18  C   UNL     1       2.454  -0.752  -3.670  0.00  0.00    +0.241 C 
ATOM     19  O   UNL     1       2.319   0.240  -4.354  0.00  0.00    -0.274 OA
ENDROOT
BRANCH   1  23
ATOM     20  C   UNL     1       0.551   0.722   0.399  0.00  0.00    +0.000 A 
ATOM     21  C   UNL     1       1.071  -0.535   0.149  0.00  0.00    +0.001 A 
ATOM     22  C   UNL     1       2.301  -0.667  -0.464  0.00  0.00    +0.010 A 
ATOM     23  C   UNL     1       3.019   0.471  -0.832  0.00  0.00    +0.000 A 
ATOM     24  C   UNL     1       2.488   1.736  -0.578  0.00  0.00    +0.010 A 
ATOM     25  C   UNL     1       1.258   1.855   0.036  0.00  0.00    +0.001 A 
ENDBRANCH   1  23
BRANCH   8  26
ATOM     26  N   UNL     1       6.368  -2.074  -5.905  0.00  0.00    -0.328 N 
ATOM     27  H   UNL     1       7.310  -1.919  -6.079  0.00  0.00    +0.145 HD
ATOM     28  H   UNL     1       5.826  -2.548  -6.555  0.00  0.00    +0.145 HD
ENDBRANCH   8  26
BRANCH   9  29
ATOM     29  C   UNL     1       3.758  -2.568  -5.552  0.00  0.00    +0.102 C 
ATOM     30  N   UNL     1       3.179  -3.126  -6.354  0.00  0.00    -0.191 NA
ENDBRANCH   9  29
BRANCH  17  31
ATOM     31  C   UNL     1       0.044  -1.147  -3.207  0.00  0.00    +0.148 C 
BRANCH  31  32
ATOM     32  C   UNL     1      -0.225   0.182  -2.549  0.00  0.00    -0.028 A 
ATOM     33  C   UNL     1      -1.107   0.261  -1.487  0.00  0.00    +0.007 A 
ATOM     34  C   UNL     1      -1.354   1.479  -0.883  0.00  0.00    +0.022 A 
ATOM     35  C   UNL     1      -0.718   2.620  -1.339  0.00  0.00    +0.059 A 
ATOM     36  C   UNL     1       0.166   2.540  -2.402  0.00  0.00    +0.060 A 
ATOM     37  C   UNL     1       0.416   1.319  -3.002  0.00  0.00    +0.026 A 
ATOM     38 CL   UNL     1       0.964   3.970  -2.976  0.00  0.00    -0.082 Cl
ATOM     39 CL   UNL     1      -1.029   4.150  -0.581  0.00  0.00    -0.082 Cl
ENDBRANCH  31  32
ENDBRANCH  17  31
TORSDOF 5
