REMARK  Name = ZINC10067545
REMARK  18 active torsions:
REMARK  status: ('A' for Active; 'I' for Inactive)
REMARK    1  A    between atoms: C_1  and  C_2
REMARK    2  A    between atoms: C_2  and  O_3
REMARK    3  A    between atoms: O_3  and  C_4
REMARK    4  A    between atoms: C_6  and  C_16
REMARK    5  A    between atoms: C_8  and  O_13
REMARK    6  A    between atoms: C_9  and  O_10
REMARK    7  A    between atoms: O_10  and  C_11
REMARK    8  A    between atoms: C_11  and  C_12
REMARK    9  A    between atoms: O_13  and  C_14
REMARK   10  A    between atoms: C_14  and  C_15
REMARK   11  A    between atoms: N_18  and  C_19
REMARK   12  A    between atoms: C_19  and  C_20
REMARK   13  A    between atoms: C_20  and  C_21
REMARK   14  A    between atoms: C_21  and  N_70
REMARK   15  A    between atoms: C_22  and  N_70
REMARK   16  A    between atoms: C_23  and  N_70
REMARK   17  A    between atoms: C_29  and  O_33
REMARK   18  A    between atoms: O_33  and  C_34
REMARK                            x       y       z     vdW  Elec       q    Type
REMARK                         _______ _______ _______ _____ _____    ______ ____
ROOT
ATOM      1  C   UNL     1      -1.944   5.957  -0.217  0.00  0.00    +0.253 C 
ATOM      2  O   UNL     1      -2.749   5.181   0.260  0.00  0.00    -0.270 OA
ATOM      3  N   UNL     1      -0.762   5.503  -0.679  0.00  0.00    -0.246 N 
ATOM      4  C   UNL     1      -0.495   4.144  -0.681  0.00  0.00    +0.168 A 
ATOM      5  N   UNL     1       0.584   3.518  -1.086  0.00  0.00    -0.224 NA
ATOM      6  C   UNL     1       0.709   2.173  -1.030  0.00  0.00    +0.081 A 
ATOM      7  C   UNL     1       1.810   1.381  -1.431  0.00  0.00    +0.032 A 
ATOM      8  C   UNL     1       1.776   0.018  -1.306  0.00  0.00    +0.048 A 
ATOM      9  C   UNL     1       0.664  -0.636  -0.783  0.00  0.00    +0.121 A 
ATOM     10  C   UNL     1      -0.433   0.111  -0.380  0.00  0.00    +0.063 A 
ATOM     11  C   UNL     1      -0.404   1.478  -0.503  0.00  0.00    +0.044 A 
ATOM     12  S   UNL     1      -1.537   2.797  -0.139  0.00  0.00    -0.052 S 
ENDROOT
BRANCH   1  15
ATOM     13  C   UNL     1      -3.774   9.167  -0.892  0.00  0.00    +0.166 A 
ATOM     14  C   UNL     1      -3.480   7.819  -0.825  0.00  0.00    +0.062 A 
ATOM     15  C   UNL     1      -2.260   7.396  -0.289  0.00  0.00    +0.044 A 
ATOM     16  C   UNL     1      -1.344   8.339   0.183  0.00  0.00    +0.062 A 
ATOM     17  C   UNL     1      -1.641   9.687   0.110  0.00  0.00    +0.166 A 
ATOM     18  C   UNL     1      -2.857  10.105  -0.425  0.00  0.00    +0.204 A 
BRANCH  13  19
ATOM     19  O   UNL     1      -4.961   9.579  -1.413  0.00  0.00    -0.488 OA
BRANCH  19  21
ATOM     20  C   UNL     1      -7.127   9.213  -2.421  0.00  0.00    +0.048 C 
ATOM     21  C   UNL     1      -5.855   8.563  -1.873  0.00  0.00    +0.226 C 
ENDBRANCH  19  21
ENDBRANCH  13  19
BRANCH  18  22
ATOM     22  O   UNL     1      -3.149  11.431  -0.491  0.00  0.00    -0.485 OA
BRANCH  22  23
ATOM     23  C   UNL     1      -3.817  12.005   0.635  0.00  0.00    +0.226 C 
ATOM     24  C   UNL     1      -4.060  13.493   0.379  0.00  0.00    +0.048 C 
ENDBRANCH  22  23
ENDBRANCH  18  22
BRANCH  17  25
ATOM     25  O   UNL     1      -0.747  10.606   0.564  0.00  0.00    -0.488 OA
BRANCH  25  26
ATOM     26  C   UNL     1       0.520  10.115   1.006  0.00  0.00    +0.226 C 
ATOM     27  C   UNL     1       1.349  11.273   1.564  0.00  0.00    +0.048 C 
ENDBRANCH  25  26
ENDBRANCH  17  25
ENDBRANCH   1  15
BRANCH   9  28
ATOM     28  O   UNL     1       0.653  -1.991  -0.669  0.00  0.00    -0.495 OA
ATOM     29  C   UNL     1       1.821  -2.688  -1.107  0.00  0.00    +0.277 C 
ENDBRANCH   9  28
BRANCH   3  30
ATOM     30  C   UNL     1       0.241   6.447  -1.178  0.00  0.00    +0.114 C 
BRANCH  30  31
ATOM     31  C   UNL     1       0.124   6.557  -2.700  0.00  0.00    +0.001 C 
BRANCH  31  32
ATOM     32  C   UNL     1       1.248   7.447  -3.234  0.00  0.00    -0.078 C 
BRANCH  32  35
ATOM     33  C   UNL     1       2.094   8.506  -5.241  0.00  0.00    -0.097 C 
ATOM     34  C   UNL     1       1.487   6.162  -5.272  0.00  0.00    -0.097 C 
ATOM     35  N   UNL     1       1.162   7.489  -4.709  0.00  0.00    +0.376 N 
ATOM     36  H   UNL     1       0.204   7.741  -4.981  0.00  0.00    -0.083 HD
ENDBRANCH  32  35
ENDBRANCH  31  32
ENDBRANCH  30  31
ENDBRANCH   3  30
TORSDOF 12
