REMARK  Name = ZINC39467045
REMARK  6 active torsions:
REMARK  status: ('A' for Active; 'I' for Inactive)
REMARK    1  A    between atoms: C_1  and  O_2
REMARK    2  A    between atoms: O_2  and  C_3
REMARK    3  A    between atoms: C_15  and  C_16
REMARK    4  A    between atoms: C_16  and  C_17
REMARK    5  A    between atoms: P_25  and  C_28
REMARK    6  A    between atoms: C_33  and  O_34
REMARK                            x       y       z     vdW  Elec       q    Type
REMARK                         _______ _______ _______ _____ _____    ______ ____
ROOT
ATOM      1  C   UNL     1       0.626  -0.618   1.041  0.00  0.00    +0.120 C 
ATOM      2  C   UNL     1       1.183   0.106   2.017  0.00  0.00    +0.021 C 
ATOM      3  C   UNL     1       1.879  -0.594   3.153  0.00  0.00    +0.008 C 
ATOM      4  C   UNL     1       2.892   0.329   3.813  0.00  0.00    -0.046 C 
ATOM      5  N   UNL     1       3.944   0.730   2.865  0.00  0.00    +0.398 N 
ATOM      6  C   UNL     1       4.668  -0.448   2.381  0.00  0.00    -0.020 C 
ATOM      7  C   UNL     1       3.704  -1.407   1.673  0.00  0.00    -0.003 C 
ATOM      8  C   UNL     1       2.608  -1.832   2.622  0.00  0.00    +0.016 C 
ATOM      9  C   UNL     1       1.629  -2.678   1.843  0.00  0.00    -0.016 C 
ATOM     10  C   UNL     1       0.689  -2.091   1.107  0.00  0.00    -0.005 C 
ATOM     11  C   UNL     1       5.747  -0.067   1.359  0.00  0.00    +0.157 C 
ATOM     12  O   UNL     1       6.714   0.798   1.982  0.00  0.00    -0.316 OA
ATOM     13  P   UNL     1       6.156   2.092   2.796  0.00  0.00    +0.291 P 
ATOM     14  O   UNL     1       5.828   3.187   1.856  0.00  0.00    -0.269 OA
ATOM     15  N   UNL     1       4.790   1.563   3.566  0.00  0.00    -0.288 NA
ATOM     16  H   UNL     1       4.587   1.831   4.476  0.00  0.00    +0.111 HD
ATOM     17  H   UNL     1       3.533   1.233   2.093  0.00  0.00    -0.055 HD
ENDROOT
BRANCH  13  18
ATOM     18  C   UNL     1       7.385   2.651   4.007  0.00  0.00    +0.091 A 
ATOM     19  C   UNL     1       7.377   2.135   5.289  0.00  0.00    +0.018 A 
ATOM     20  C   UNL     1       8.312   2.561   6.213  0.00  0.00    +0.001 A 
ATOM     21  C   UNL     1       9.260   3.504   5.857  0.00  0.00    +0.004 A 
ATOM     22  C   UNL     1       9.273   4.022   4.577  0.00  0.00    +0.046 A 
ATOM     23  C   UNL     1       8.338   3.592   3.646  0.00  0.00    +0.131 A 
BRANCH  23  24
ATOM     24  O   UNL     1       8.352   4.096   2.384  0.00  0.00    -0.506 OA
ATOM     25  H   UNL     1       7.812   4.890   2.272  0.00  0.00    +0.292 HD
ENDBRANCH  23  24
ENDBRANCH  13  18
BRANCH   1  27
ATOM     26  C   UNL     1      -0.017   1.425   0.010  0.00  0.00    +0.277 C 
ATOM     27  O   UNL     1       0.002  -0.004   0.002  0.00  0.00    -0.495 OA
ENDBRANCH   1  27
BRANCH  10  28
ATOM     28  C   UNL     1      -0.304  -2.925   0.339  0.00  0.00    +0.073 C 
BRANCH  28  29
ATOM     29  C   UNL     1      -1.560  -3.088   1.154  0.00  0.00    -0.043 A 
ATOM     30  C   UNL     1      -1.684  -4.152   2.028  0.00  0.00    +0.004 A 
ATOM     31  C   UNL     1      -2.837  -4.302   2.776  0.00  0.00    +0.000 A 
ATOM     32  C   UNL     1      -3.866  -3.387   2.650  0.00  0.00    +0.000 A 
ATOM     33  C   UNL     1      -3.742  -2.322   1.777  0.00  0.00    +0.000 A 
ATOM     34  C   UNL     1      -2.587  -2.171   1.032  0.00  0.00    +0.004 A 
ENDBRANCH  28  29
ENDBRANCH  10  28
TORSDOF 5
