REMARK  Name = ZINC38573892
REMARK  9 active torsions:
REMARK  status: ('A' for Active; 'I' for Inactive)
REMARK    1  A    between atoms: C_1  and  O_2
REMARK    2  A    between atoms: O_2  and  C_3
REMARK    3  A    between atoms: C_7  and  C_9
REMARK    4  A    between atoms: N_11  and  C_12
REMARK    5  A    between atoms: C_12  and  C_14
REMARK    6  A    between atoms: C_12  and  C_18
REMARK    7  A    between atoms: C_14  and  C_15
REMARK    8  A    between atoms: C_15  and  S_16
REMARK    9  A    between atoms: S_16  and  C_17
REMARK                            x       y       z     vdW  Elec       q    Type
REMARK                         _______ _______ _______ _____ _____    ______ ____
ROOT
ATOM      1  C   UNL     1       2.275  -6.500   4.776  0.00  0.00    +0.236 C 
ATOM      2  O   UNL     1       2.214  -5.623   5.612  0.00  0.00    -0.274 OA
ATOM      3  N   UNL     1       2.510  -7.773   5.152  0.00  0.00    -0.300 N 
ATOM      4  C   UNL     1       2.700  -8.827   4.146  0.00  0.00    +0.106 C 
ATOM      5  C   UNL     1       4.022  -9.547   4.430  0.00  0.00    +0.009 C 
ATOM      6  C   UNL     1       4.027 -10.046   5.875  0.00  0.00    -0.037 C 
ATOM      7  C   UNL     1       3.904  -8.861   6.833  0.00  0.00    +0.009 C 
ATOM      8  C   UNL     1       2.586  -8.133   6.574  0.00  0.00    +0.106 C 
ATOM      9  C   UNL     1       5.327 -10.802   6.155  0.00  0.00    +0.140 C 
ATOM     10  C   UNL     1       5.178 -11.376   7.561  0.00  0.00    +0.042 C 
ATOM     11  N   UNL     1       6.176 -10.944   8.228  0.00  0.00    -0.243 NA
ATOM     12  C   UNL     1       6.930 -10.083   7.500  0.00  0.00    +0.216 C 
ATOM     13  N   UNL     1       6.489  -9.919   6.271  0.00  0.00    -0.264 NA
ATOM     14  C   UNL     1       3.959 -12.168   7.961  0.00  0.00    +0.034 C 
ATOM     15  C   UNL     1       2.745 -11.345   7.490  0.00  0.00    -0.076 C 
ATOM     16  N   UNL     1       2.900 -10.968   6.083  0.00  0.00    +0.385 N 
ATOM     17  H   UNL     1       2.051 -10.523   5.768  0.00  0.00    -0.085 HD
ATOM     18  H   UNL     1       3.054 -11.801   5.535  0.00  0.00    -0.085 HD
ENDROOT
BRANCH   1  19
ATOM     19  C   UNL     1       2.087  -6.167   3.319  0.00  0.00    +0.160 C 
BRANCH  19  22
ATOM     20  C   UNL     1       0.545  -4.750   2.073  0.00  0.00    +0.245 C 
ATOM     21  O   UNL     1       0.587  -5.555   1.163  0.00  0.00    -0.270 OA
ATOM     22  N   UNL     1       1.260  -4.964   3.195  0.00  0.00    -0.300 N 
ATOM     23  H   UNL     1       1.226  -4.322   3.922  0.00  0.00    +0.150 HD
BRANCH  20  28
ATOM     24  C   UNL     1      -1.810  -2.172   0.678  0.00  0.00    +0.121 A 
ATOM     25  C   UNL     1      -1.853  -1.257   1.721  0.00  0.00    +0.045 A 
ATOM     26  C   UNL     1      -1.121  -1.479   2.872  0.00  0.00    +0.004 A 
ATOM     27  C   UNL     1      -0.340  -2.611   2.992  0.00  0.00    +0.013 A 
ATOM     28  C   UNL     1      -0.290  -3.536   1.949  0.00  0.00    +0.040 A 
ATOM     29  C   UNL     1      -1.035  -3.315   0.790  0.00  0.00    +0.058 A 
BRANCH  24  31
ATOM     30  C   UNL     1      -3.309  -0.751  -0.499  0.00  0.00    +0.277 C 
ATOM     31  O   UNL     1      -2.532  -1.950  -0.452  0.00  0.00    -0.495 OA
ENDBRANCH  24  31
ENDBRANCH  20  28
ENDBRANCH  19  22
BRANCH  19  32
ATOM     32  C   UNL     1       3.452  -5.915   2.674  0.00  0.00    +0.042 C 
BRANCH  32  33
ATOM     33  C   UNL     1       3.275  -5.718   1.167  0.00  0.00    +0.071 C 
BRANCH  33  34
ATOM     34  S   UNL     1       4.892  -5.420   0.402  0.00  0.00    -0.164 S 
ATOM     35  C   UNL     1       4.513  -5.210  -1.359  0.00  0.00    +0.084 C 
ENDBRANCH  33  34
ENDBRANCH  32  33
ENDBRANCH  19  32
ENDBRANCH   1  19
TORSDOF 7
