REMARK  Name = ZINC00865031
REMARK  6 active torsions:
REMARK  status: ('A' for Active; 'I' for Inactive)
REMARK    1  A    between atoms: C_1  and  C_2
REMARK    2  A    between atoms: C_2  and  C_34
REMARK    3  A    between atoms: C_4  and  N_9
REMARK    4  A    between atoms: C_15  and  S_16
REMARK    5  A    between atoms: S_16  and  C_17
REMARK    6  A    between atoms: C_17  and  C_18
REMARK                            x       y       z     vdW  Elec       q    Type
REMARK                         _______ _______ _______ _____ _____    ______ ____
ROOT
ATOM      1  N   UNL     1       2.752  -0.320  -2.586  0.00  0.00    -0.284 N 
ATOM      2  C   UNL     1       3.946  -0.949  -2.555  0.00  0.00    +0.259 A 
ATOM      3  O   UNL     1       4.505  -1.173  -1.494  0.00  0.00    -0.267 OA
ATOM      4  C   UNL     1       4.527  -1.344  -3.767  0.00  0.00    +0.050 A 
ATOM      5  C   UNL     1       3.856  -1.076  -4.951  0.00  0.00    +0.083 A 
ATOM      6  N   UNL     1       2.688  -0.425  -4.921  0.00  0.00    -0.223 NA
ATOM      7  C   UNL     1       2.146  -0.057  -3.777  0.00  0.00    +0.173 A 
ATOM      8  C   UNL     1       4.459  -1.509  -6.232  0.00  0.00    +0.004 A 
ATOM      9  C   UNL     1       4.011  -0.995  -7.444  0.00  0.00    +0.010 A 
ATOM     10  C   UNL     1       4.599  -1.409  -8.623  0.00  0.00    +0.001 A 
ATOM     11  C   UNL     1       5.624  -2.338  -8.598  0.00  0.00    +0.000 A 
ATOM     12  C   UNL     1       6.058  -2.868  -7.396  0.00  0.00    +0.004 A 
ATOM     13  C   UNL     1       5.473  -2.468  -6.212  0.00  0.00    -0.037 A 
ATOM     14  C   UNL     1       5.905  -3.078  -4.905  0.00  0.00    +0.047 C 
ATOM     15  C   UNL     1       5.863  -2.035  -3.789  0.00  0.00    +0.007 C 
ATOM     16  C   UNL     1       6.966  -0.998  -4.023  0.00  0.00    +0.012 C 
ATOM     17  C   UNL     1       8.327  -1.696  -4.041  0.00  0.00    +0.001 C 
ATOM     18  C   UNL     1       8.562  -2.390  -2.698  0.00  0.00    +0.000 C 
ATOM     19  C   UNL     1       7.460  -3.424  -2.459  0.00  0.00    +0.001 C 
ATOM     20  C   UNL     1       6.099  -2.725  -2.442  0.00  0.00    +0.012 C 
ENDROOT
BRANCH   1  24
ATOM     21  C   UNL     1       1.079  -1.918   1.786  0.00  0.00    +0.041 C 
ATOM     22  C   UNL     1       1.267  -0.700   0.880  0.00  0.00    +0.066 C 
ATOM     23  C   UNL     1       1.867  -1.145  -0.456  0.00  0.00    +0.059 C 
ATOM     24  C   UNL     1       2.108   0.087  -1.334  0.00  0.00    +0.098 C 
ATOM     25  C   UNL     1       3.018   1.065  -0.585  0.00  0.00    +0.053 C 
ATOM     26  C   UNL     1       2.373   1.425   0.756  0.00  0.00    +0.162 C 
ATOM     27  O   UNL     1       2.148   0.232   1.510  0.00  0.00    -0.374 OA
ATOM     28  C   UNL     1      -0.088  -0.033   0.633  0.00  0.00    +0.041 C 
ENDBRANCH   1  24
BRANCH   7  29
ATOM     29  S   UNL     1       0.603   0.793  -3.791  0.00  0.00    -0.078 S 
BRANCH  29  30
ATOM     30  C   UNL     1       0.294   0.857  -5.573  0.00  0.00    +0.172 C 
BRANCH  30  31
ATOM     31  C   UNL     1      -1.013   1.562  -5.831  0.00  0.00    +0.221 C 
ATOM     32  O   UNL     1      -1.670   1.980  -4.902  0.00  0.00    -0.275 OA
ATOM     33  N   UNL     1      -1.450   1.728  -7.095  0.00  0.00    -0.329 N 
ATOM     34  H   UNL     1      -0.924   1.393  -7.838  0.00  0.00    +0.145 HD
ATOM     35  H   UNL     1      -2.291   2.182  -7.262  0.00  0.00    +0.145 HD
ENDBRANCH  30  31
ENDBRANCH  29  30
ENDBRANCH   7  29
TORSDOF 4
