REMARK  Name = ZINC11758697
REMARK  4 active torsions:
REMARK  status: ('A' for Active; 'I' for Inactive)
REMARK    1  A    between atoms: C_4  and  O_29
REMARK    2  A    between atoms: C_5  and  C_7
REMARK    3  A    between atoms: C_9  and  C_26
REMARK    4  A    between atoms: N_13  and  C_18
REMARK                            x       y       z     vdW  Elec       q    Type
REMARK                         _______ _______ _______ _____ _____    ______ ____
ROOT
ATOM      1  C   UNL     1      -0.018   1.478   0.010  0.00  0.00    +0.166 A 
ATOM      2  N   UNL     1      -1.185   2.102   0.019  0.00  0.00    -0.220 NA
ATOM      3  C   UNL     1      -1.251   3.434   0.032  0.00  0.00    +0.154 A 
ATOM      4  C   UNL     1      -0.060   4.161   0.024  0.00  0.00    +0.117 A 
ATOM      5  C   UNL     1       1.158   3.457   0.009  0.00  0.00    +0.170 A 
ATOM      6  N   UNL     1       1.136   2.136   0.003  0.00  0.00    -0.207 NA
ATOM      7  N   UNL     1       2.164   4.407   0.004  0.00  0.00    -0.245 N 
ATOM      8  C   UNL     1       1.597   5.629   0.015  0.00  0.00    +0.333 A 
ATOM      9  O   UNL     1       2.204   6.682   0.015  0.00  0.00    -0.246 OA
ATOM     10  N   UNL     1       0.255   5.508   0.028  0.00  0.00    -0.303 N 
ATOM     11  H   UNL     1      -0.381   6.240   0.037  0.00  0.00    +0.171 HD
ENDROOT
BRANCH   7  12
ATOM     12  C   UNL     1       3.541   4.143  -0.010  0.00  0.00    +0.054 A 
ATOM     13  C   UNL     1       4.450   5.192  -0.014  0.00  0.00    +0.028 A 
ATOM     14  C   UNL     1       5.806   4.931  -0.028  0.00  0.00    +0.023 A 
ATOM     15  C   UNL     1       6.259   3.623  -0.039  0.00  0.00    +0.059 A 
ATOM     16  C   UNL     1       5.355   2.575  -0.036  0.00  0.00    +0.061 A 
ATOM     17  C   UNL     1       3.997   2.832  -0.015  0.00  0.00    +0.047 A 
ATOM     18 CL   UNL     1       5.927   0.935  -0.051  0.00  0.00    -0.082 Cl
ATOM     19 CL   UNL     1       7.964   3.297  -0.058  0.00  0.00    -0.082 Cl
ENDBRANCH   7  12
BRANCH   1  24
ATOM     20  C   UNL     1       1.230  -2.067  -0.023  0.00  0.00    +0.001 A 
ATOM     21  C   UNL     1       0.041  -2.776  -0.015  0.00  0.00    +0.004 A 
ATOM     22  C   UNL     1      -1.169  -2.109   0.001  0.00  0.00    +0.046 A 
ATOM     23  C   UNL     1      -1.198  -0.723   0.010  0.00  0.00    +0.128 A 
ATOM     24  C   UNL     1       0.002  -0.004   0.002  0.00  0.00    +0.061 A 
ATOM     25  C   UNL     1       1.216  -0.688  -0.019  0.00  0.00    +0.015 A 
BRANCH  23  26
ATOM     26  O   UNL     1      -2.386  -0.066   0.025  0.00  0.00    -0.506 OA
ATOM     27  H   UNL     1      -2.738   0.129  -0.855  0.00  0.00    +0.292 HD
ENDBRANCH  23  26
ENDBRANCH   1  24
BRANCH   3  28
ATOM     28  C   UNL     1      -2.560   4.127   0.048  0.00  0.00    +0.262 C 
ATOM     29  O   UNL     1      -2.605   5.341   0.055  0.00  0.00    -0.269 OA
ATOM     30  N   UNL     1      -3.701   3.410   0.055  0.00  0.00    -0.324 N 
ATOM     31  H   UNL     1      -3.666   2.441   0.049  0.00  0.00    +0.145 HD
ATOM     32  H   UNL     1      -4.559   3.864   0.066  0.00  0.00    +0.145 HD
ENDBRANCH   3  28
TORSDOF 4
