REMARK  Name = ZINC44551608
REMARK  4 active torsions:
REMARK  status: ('A' for Active; 'I' for Inactive)
REMARK    1  A    between atoms: C_15  and  C_17
REMARK    2  A    between atoms: N_18  and  N_19
REMARK    3  A    between atoms: N_19  and  C_20
REMARK    4  A    between atoms: C_20  and  N_22
REMARK                            x       y       z     vdW  Elec       q    Type
REMARK                         _______ _______ _______ _____ _____    ______ ____
ROOT
ATOM      1  C   UNL     1      -0.757   1.065   1.486  0.00  0.00    +0.000 A 
ATOM      2  C   UNL     1       0.339   1.896   1.626  0.00  0.00    +0.000 A 
ATOM      3  C   UNL     1       1.607   1.398   1.409  0.00  0.00    +0.005 A 
ATOM      4  C   UNL     1       1.791   0.069   1.055  0.00  0.00    -0.027 A 
ATOM      5  C   UNL     1       0.702  -0.763   0.924  0.00  0.00    -0.041 A 
ATOM      6  C   UNL     1      -0.575  -0.256   1.136  0.00  0.00    +0.004 A 
ATOM      7  C   UNL     1       0.825  -2.222   0.573  0.00  0.00    +0.054 C 
ATOM      8  C   UNL     1       2.172  -2.511  -0.086  0.00  0.00    +0.111 C 
ATOM      9  N   UNL     1       3.220  -1.872   0.726  0.00  0.00    -0.309 N 
ATOM     10  C   UNL     1       3.202  -0.408   0.818  0.00  0.00    +0.142 C 
ATOM     11  C   UNL     1       4.189  -2.625   1.380  0.00  0.00    +0.141 A 
ATOM     12  C   UNL     1       4.060  -4.011   1.456  0.00  0.00    +0.154 A 
ATOM     13  N   UNL     1       4.978  -4.729   2.076  0.00  0.00    -0.258 NA
ATOM     14  C   UNL     1       6.023  -4.138   2.627  0.00  0.00    +0.142 A 
ATOM     15  C   UNL     1       6.160  -2.752   2.556  0.00  0.00    +0.123 A 
ATOM     16  N   UNL     1       5.237  -2.026   1.926  0.00  0.00    -0.226 NA
ENDROOT
BRANCH  15  17
ATOM     17  C   UNL     1       7.329  -2.091   3.173  0.00  0.00    +0.134 C 
ATOM     18  N   UNL     1       7.755  -0.951   2.705  0.00  0.00    -0.291 N 
ATOM     19  N   UNL     1       7.974  -2.684   4.254  0.00  0.00    -0.342 N 
ATOM     20  H   UNL     1       7.657  -3.533   4.602  0.00  0.00    +0.144 HD
ATOM     21  H   UNL     1       8.741  -2.250   4.659  0.00  0.00    +0.144 HD
ATOM     22  H   UNL     1       8.441  -0.458   3.181  0.00  0.00    +0.186 HD
BRANCH  18  23
ATOM     23  N   UNL     1       7.221  -0.439   1.516  0.00  0.00    -0.240 N 
ATOM     24  H   UNL     1       6.525  -0.926   1.047  0.00  0.00    +0.174 HD
BRANCH  23  25
ATOM     25  C   UNL     1       7.673   0.731   1.023  0.00  0.00    +0.151 C 
ATOM     26  S   UNL     1       9.032   1.491   1.735  0.00  0.00    -0.017 S 
BRANCH  25  27
ATOM     27  N   UNL     1       7.056   1.303  -0.029  0.00  0.00    -0.311 N 
ATOM     28  C   UNL     1       5.825   0.815  -0.670  0.00  0.00    +0.107 C 
ATOM     29  C   UNL     1       5.510   1.768  -1.842  0.00  0.00    +0.020 C 
ATOM     30  C   UNL     1       6.889   2.411  -2.147  0.00  0.00    +0.020 C 
ATOM     31  C   UNL     1       7.498   2.525  -0.726  0.00  0.00    +0.107 C 
ENDBRANCH  25  27
ENDBRANCH  23  25
ENDBRANCH  18  23
ENDBRANCH  15  17
TORSDOF 4
