REMARK  Name = ZINC39678910
REMARK  11 active torsions:
REMARK  status: ('A' for Active; 'I' for Inactive)
REMARK    1  A    between atoms: C_1  and  N_2
REMARK    2  A    between atoms: N_2  and  C_3
REMARK    3  A    between atoms: N_2  and  C_4
REMARK    4  A    between atoms: C_4  and  C_5
REMARK    5  A    between atoms: C_5  and  C_6
REMARK    6  A    between atoms: C_6  and  C_7
REMARK    7  A    between atoms: C_7  and  N_8
REMARK    8  A    between atoms: C_9  and  C_11
REMARK    9  A    between atoms: C_22  and  C_24
REMARK   10  A    between atoms: C_29  and  O_30
REMARK   11  A    between atoms: O_30  and  C_31
REMARK                            x       y       z     vdW  Elec       q    Type
REMARK                         _______ _______ _______ _____ _____    ______ ____
ROOT
ATOM      1  C   UNL     1       0.814  -0.986   8.572  0.00  0.00    +0.100 C 
ATOM      2  C   UNL     1       0.778  -2.530   8.628  0.00  0.00    +0.121 C 
ATOM      3  N   UNL     1       0.631  -2.849  10.068  0.00  0.00    -0.296 N 
ATOM      4  C   UNL     1      -0.312  -1.825  10.578  0.00  0.00    +0.115 C 
ATOM      5  C   UNL     1       0.097  -0.527   9.853  0.00  0.00    -0.004 C 
ATOM      6  C   UNL     1       1.046   0.288  10.726  0.00  0.00    -0.010 C 
ATOM      7  C   UNL     1       0.294   0.780  11.966  0.00  0.00    -0.082 C 
ATOM      8  N   UNL     1      -0.851   1.601  11.553  0.00  0.00    +0.379 N 
ATOM      9  C   UNL     1      -1.804   0.785  10.791  0.00  0.00    -0.082 C 
ATOM     10  C   UNL     1      -1.141   0.293   9.502  0.00  0.00    -0.010 C 
ATOM     11  C   UNL     1       1.221  -3.845  10.757  0.00  0.00    +0.250 C 
ATOM     12  O   UNL     1       2.052  -4.550  10.217  0.00  0.00    -0.270 OA
ATOM     13  H   UNL     1      -1.308   1.974  12.371  0.00  0.00    -0.086 HD
ATOM     14  H   UNL     1      -0.526   2.363  10.976  0.00  0.00    -0.086 HD
ENDROOT
BRANCH  11  15
ATOM     15  C   UNL     1       0.860  -4.080  12.168  0.00  0.00    +0.078 A 
ATOM     16  C   UNL     1      -0.452  -3.874  12.601  0.00  0.00    +0.017 A 
ATOM     17  C   UNL     1      -0.783  -4.096  13.920  0.00  0.00    +0.001 A 
ATOM     18  C   UNL     1       0.180  -4.523  14.820  0.00  0.00    +0.004 A 
ATOM     19  C   UNL     1       1.480  -4.730  14.406  0.00  0.00    +0.046 A 
ATOM     20  C   UNL     1       1.830  -4.516  13.081  0.00  0.00    +0.132 A 
BRANCH  20  21
ATOM     21  O   UNL     1       3.106  -4.725  12.671  0.00  0.00    -0.494 OA
ATOM     22  C   UNL     1       4.040  -5.170  13.657  0.00  0.00    +0.277 C 
ENDBRANCH  20  21
ENDBRANCH  11  15
BRANCH   1  24
ATOM     23  N   UNL     1       0.327   0.749   6.878  0.00  0.00    -0.315 N 
ATOM     24  C   UNL     1       0.081  -0.488   7.353  0.00  0.00    +0.218 C 
ATOM     25  O   UNL     1      -0.730  -1.200   6.801  0.00  0.00    -0.275 OA
ATOM     26  H   UNL     1       0.975   1.319   7.320  0.00  0.00    +0.149 HD
BRANCH  23  27
ATOM     27  C   UNL     1      -0.386   1.234   5.693  0.00  0.00    +0.104 C 
BRANCH  27  28
ATOM     28  C   UNL     1       0.074   2.656   5.367  0.00  0.00    +0.017 C 
BRANCH  28  29
ATOM     29  C   UNL     1      -0.670   3.161   4.129  0.00  0.00    -0.017 C 
BRANCH  29  30
ATOM     30  C   UNL     1      -0.209   4.583   3.803  0.00  0.00    -0.080 C 
BRANCH  30  32
ATOM     31  C   UNL     1      -2.357   5.185   2.918  0.00  0.00    -0.097 C 
ATOM     32  N   UNL     1      -0.924   5.069   2.615  0.00  0.00    +0.376 N 
ATOM     33  C   UNL     1      -0.397   6.385   2.230  0.00  0.00    -0.097 C 
ATOM     34  H   UNL     1      -0.793   4.419   1.854  0.00  0.00    -0.083 HD
ENDBRANCH  30  32
ENDBRANCH  29  30
ENDBRANCH  28  29
ENDBRANCH  27  28
ENDBRANCH  23  27
ENDBRANCH   1  24
TORSDOF 8
