REMARK  Name = ZINC31578916
REMARK  7 active torsions:
REMARK  status: ('A' for Active; 'I' for Inactive)
REMARK    1  A    between atoms: C_1  and  O_2
REMARK    2  A    between atoms: O_2  and  C_3
REMARK    3  A    between atoms: C_6  and  C_9
REMARK    4  A    between atoms: C_9  and  C_11
REMARK    5  A    between atoms: C_9  and  O_25
REMARK    6  A    between atoms: C_11  and  N_12
REMARK    7  A    between atoms: C_13  and  C_15
REMARK                            x       y       z     vdW  Elec       q    Type
REMARK                         _______ _______ _______ _____ _____    ______ ____
ROOT
ATOM      1  N   UNL     1       2.766   7.730   0.012  0.00  0.00    -0.308 N 
ATOM      2  C   UNL     1       3.140   6.435   0.003  0.00  0.00    +0.252 C 
ATOM      3  O   UNL     1       4.321   6.143  -0.010  0.00  0.00    -0.270 OA
ATOM      4  H   UNL     1       1.699   7.994   0.023  0.00  0.00    +0.149 HD
ENDROOT
BRANCH   2   5
ATOM      5  C   UNL     1       2.122   5.377   0.008  0.00  0.00    +0.093 A 
ATOM      6  C   UNL     1       2.301   4.028   0.000  0.00  0.00    +0.068 A 
ATOM      7  C   UNL     1       1.184   3.173   0.007  0.00  0.00    +0.008 A 
ATOM      8  C   UNL     1       1.164   1.754   0.000  0.00  0.00    +0.010 A 
ATOM      9  C   UNL     1      -0.013   1.076   0.008  0.00  0.00    +0.001 A 
ATOM     10  C   UNL     1      -1.235   1.737   0.017  0.00  0.00    +0.001 A 
ATOM     11  C   UNL     1      -1.261   3.117   0.031  0.00  0.00    +0.016 A 
ATOM     12  C   UNL     1      -0.075   3.819   0.023  0.00  0.00    +0.021 A 
ATOM     13  S   UNL     1       0.346   5.544   0.027  0.00  0.00    -0.082 S 
ATOM     14 CL   UNL     1       3.905   3.364  -0.018  0.00  0.00    -0.082 Cl
ENDBRANCH   2   5
BRANCH   1  15
ATOM     15  C   UNL     1       3.782   8.786   0.006  0.00  0.00    +0.140 C 
BRANCH  15  16
ATOM     16  C   UNL     1       3.096  10.153   0.018  0.00  0.00    +0.162 C 
BRANCH  16  20
ATOM     17  C   UNL     1       6.042  13.228  -0.348  0.00  0.00    +0.120 A 
ATOM     18  C   UNL     1       5.309  12.831  -1.458  0.00  0.00    +0.046 A 
ATOM     19  C   UNL     1       4.358  11.837  -1.337  0.00  0.00    +0.010 A 
ATOM     20  C   UNL     1       4.135  11.238  -0.111  0.00  0.00    -0.017 A 
ATOM     21  C   UNL     1       4.860  11.635   0.998  0.00  0.00    +0.010 A 
ATOM     22  C   UNL     1       5.816  12.625   0.880  0.00  0.00    +0.046 A 
BRANCH  17  24
ATOM     23  C   UNL     1       7.694  14.563   0.719  0.00  0.00    +0.277 C 
ATOM     24  O   UNL     1       6.978  14.206  -0.465  0.00  0.00    -0.495 OA
ENDBRANCH  17  24
ENDBRANCH  16  20
BRANCH  16  25
ATOM     25  O   UNL     1       2.385  10.319   1.247  0.00  0.00    -0.386 OA
ATOM     26  H   UNL     1       1.583   9.617   1.517  0.00  0.00    +0.210 HD
ENDBRANCH  16  25
ENDBRANCH  15  16
ENDBRANCH   1  15
TORSDOF 6
