REMARK  Name = ZINC16612808
REMARK  10 active torsions:
REMARK  status: ('A' for Active; 'I' for Inactive)
REMARK    1  A    between atoms: C_1  and  C_2
REMARK    2  A    between atoms: C_2  and  C_3
REMARK    3  A    between atoms: C_3  and  C_5
REMARK    4  A    between atoms: C_3  and  N_6
REMARK    5  A    between atoms: C_7  and  C_9
REMARK    6  A    between atoms: C_9  and  N_10
REMARK    7  A    between atoms: N_12  and  C_32
REMARK    8  A    between atoms: C_21  and  C_23
REMARK    9  A    between atoms: C_23  and  O_24
REMARK   10  A    between atoms: O_24  and  C_25
REMARK                            x       y       z     vdW  Elec       q    Type
REMARK                         _______ _______ _______ _____ _____    ______ ____
ROOT
ATOM      1  N   UNL     1       3.718   5.055   1.530  0.00  0.00    -0.275 N 
ATOM      2  C   UNL     1       3.052   3.767   1.302  0.00  0.00    +0.217 C 
ATOM      3  N   UNL     1       2.353   3.888   0.001  0.00  0.00    -0.300 N 
ATOM      4  C   UNL     1       2.101   5.340  -0.109  0.00  0.00    +0.115 C 
ATOM      5  C   UNL     1       3.176   5.993   0.725  0.00  0.00    +0.241 C 
ATOM      6  O   UNL     1       3.497   7.162   0.680  0.00  0.00    -0.273 OA
ATOM      7  C   UNL     1       0.720   5.674   0.447  0.00  0.00    +0.054 C 
ATOM      8  C   UNL     1       0.492   7.188   0.370  0.00  0.00    +0.110 C 
ATOM      9  N   UNL     1       0.723   7.630  -1.012  0.00  0.00    -0.299 N 
ATOM     10  C   UNL     1       1.999   7.296  -1.658  0.00  0.00    +0.110 C 
ATOM     11  C   UNL     1       2.216   5.781  -1.565  0.00  0.00    +0.054 C 
ATOM     12  C   UNL     1      -0.219   8.330  -1.675  0.00  0.00    +0.253 C 
ATOM     13  O   UNL     1      -0.017   8.689  -2.816  0.00  0.00    -0.272 OA
ENDROOT
BRANCH   3  14
ATOM     14  C   UNL     1       1.155   3.171   0.008  0.00  0.00    +0.032 A 
ATOM     15  C   UNL     1       0.264   3.294  -1.050  0.00  0.00    +0.023 A 
ATOM     16  C   UNL     1      -0.920   2.583  -1.040  0.00  0.00    +0.002 A 
ATOM     17  C   UNL     1      -1.222   1.754   0.024  0.00  0.00    +0.000 A 
ATOM     18  C   UNL     1      -0.335   1.625   1.077  0.00  0.00    +0.002 A 
ATOM     19  C   UNL     1       0.851   2.333   1.073  0.00  0.00    +0.023 A 
ENDBRANCH   3  14
BRANCH   1  20
ATOM     20  C   UNL     1       4.805   5.287   2.484  0.00  0.00    +0.205 C 
BRANCH  20  22
ATOM     21  N   UNL     1       5.044   5.944   4.857  0.00  0.00    -0.311 N 
ATOM     22  C   UNL     1       4.226   5.680   3.819  0.00  0.00    +0.231 C 
ATOM     23  O   UNL     1       3.024   5.758   3.959  0.00  0.00    -0.274 OA
ATOM     24  H   UNL     1       6.005   5.881   4.745  0.00  0.00    +0.149 HD
BRANCH  21  25
ATOM     25  C   UNL     1       4.481   6.325   6.155  0.00  0.00    +0.070 C 
ATOM     26  C   UNL     1       4.214   7.831   6.172  0.00  0.00    +0.028 C 
BRANCH  25  28
ATOM     27  C   UNL     1       5.644   4.451   7.329  0.00  0.00    +0.005 C 
ATOM     28  C   UNL     1       5.472   5.970   7.265  0.00  0.00    +0.018 C 
ENDBRANCH  25  28
ENDBRANCH  21  25
ENDBRANCH  20  22
ENDBRANCH   1  20
BRANCH  12  29
ATOM     29  C   UNL     1      -1.524   8.665  -1.000  0.00  0.00    +0.324 C 
BRANCH  29  30
ATOM     30  O   UNL     1      -2.350   9.406  -1.900  0.00  0.00    -0.483 OA
BRANCH  30  31
ATOM     31  C   UNL     1      -3.571   9.790  -1.443  0.00  0.00    +0.121 A 
ATOM     32  C   UNL     1      -3.968   9.456  -0.157  0.00  0.00    +0.047 A 
ATOM     33  C   UNL     1      -5.207   9.851   0.308  0.00  0.00    +0.023 A 
ATOM     34  C   UNL     1      -6.057  10.571  -0.513  0.00  0.00    +0.041 A 
ATOM     35  C   UNL     1      -5.666  10.900  -1.799  0.00  0.00    +0.023 A 
ATOM     36  C   UNL     1      -4.425  10.511  -2.265  0.00  0.00    +0.047 A 
ATOM     37 CL   UNL     1      -7.617  11.061   0.070  0.00  0.00    -0.084 Cl
ENDBRANCH  30  31
ENDBRANCH  29  30
ENDBRANCH  12  29
TORSDOF 8
