REMARK  Name = ZINC39448257
REMARK  7 active torsions:
REMARK  status: ('A' for Active; 'I' for Inactive)
REMARK    1  A    between atoms: C_4  and  N_7
REMARK    2  A    between atoms: C_9  and  C_20
REMARK    3  A    between atoms: C_10  and  C_13
REMARK    4  A    between atoms: C_20  and  N_21
REMARK    5  A    between atoms: C_22  and  C_24
REMARK    6  A    between atoms: C_24  and  C_25
REMARK    7  A    between atoms: C_25  and  N_26
REMARK                            x       y       z     vdW  Elec       q    Type
REMARK                         _______ _______ _______ _____ _____    ______ ____
ROOT
ATOM      1  C   UNL     1       7.315  -0.614  -0.066  0.00  0.00    +0.138 C 
ENDROOT
BRANCH   1   4
ATOM      2  N   UNL     1       3.620  -0.649  -0.037  0.00  0.00    -0.242 N 
ATOM      3  C   UNL     1       4.857  -0.035  -0.041  0.00  0.00    +0.096 C 
ATOM      4  C   UNL     1       5.838  -0.915  -0.057  0.00  0.00    -0.015 C 
ATOM      5  C   UNL     1       5.197  -2.286  -0.065  0.00  0.00    +0.132 C 
ATOM      6  N   UNL     1       3.747  -2.009  -0.046  0.00  0.00    -0.225 NA
ATOM      7  H   UNL     1       3.293  -2.409  -0.854  0.00  0.00    +0.146 HD
BRANCH   5   8
ATOM      8  C   UNL     1       5.581  -3.040  -1.312  0.00  0.00    -0.025 A 
ATOM      9  C   UNL     1       4.934  -2.776  -2.505  0.00  0.00    +0.008 A 
ATOM     10  C   UNL     1       5.286  -3.467  -3.649  0.00  0.00    +0.038 A 
ATOM     11  C   UNL     1       6.286  -4.424  -3.600  0.00  0.00    +0.123 A 
ATOM     12  C   UNL     1       6.932  -4.687  -2.404  0.00  0.00    +0.038 A 
ATOM     13  C   UNL     1       6.583  -3.991  -1.262  0.00  0.00    +0.008 A 
ATOM     14  F   UNL     1       6.630  -5.100  -4.718  0.00  0.00    -0.205 F 
ENDBRANCH   5   8
BRANCH   2  18
ATOM     15  C   UNL     1      -0.017   1.379   0.010  0.00  0.00    +0.000 A 
ATOM     16  C   UNL     1       1.169   2.090   0.002  0.00  0.00    +0.002 A 
ATOM     17  C   UNL     1       2.377   1.420  -0.013  0.00  0.00    +0.025 A 
ATOM     18  C   UNL     1       2.400   0.031  -0.021  0.00  0.00    +0.049 A 
ATOM     19  C   UNL     1       1.206  -0.680  -0.013  0.00  0.00    +0.025 A 
ATOM     20  C   UNL     1       0.002  -0.004   0.002  0.00  0.00    +0.002 A 
ENDBRANCH   2  18
ENDBRANCH   1   4
BRANCH   1  21
ATOM     21  N   UNL     1       7.829  -0.647   1.306  0.00  0.00    -0.311 N 
ATOM     22  C   UNL     1       9.133  -0.406   1.543  0.00  0.00    +0.215 C 
ATOM     23  O   UNL     1       9.882  -0.162   0.621  0.00  0.00    -0.276 OA
ATOM     24  H   UNL     1       7.230  -0.843   2.044  0.00  0.00    +0.149 HD
BRANCH  22  25
ATOM     25  C   UNL     1       9.661  -0.440   2.954  0.00  0.00    +0.117 C 
BRANCH  25  26
ATOM     26  C   UNL     1      11.161  -0.135   2.945  0.00  0.00    +0.136 C 
BRANCH  26  27
ATOM     27  N   UNL     1      11.674  -0.168   4.317  0.00  0.00    -0.288 N 
ATOM     28  C   UNL     1      11.668   0.964   5.054  0.00  0.00    +0.262 A 
ATOM     29  O   UNL     1      11.242   2.005   4.594  0.00  0.00    -0.267 OA
ATOM     30  C   UNL     1      12.190   0.903   6.431  0.00  0.00    +0.063 A 
ATOM     31  C   UNL     1      12.217   2.025   7.255  0.00  0.00    +0.015 A 
ATOM     32  C   UNL     1      12.716   1.916   8.536  0.00  0.00    +0.001 A 
ATOM     33  C   UNL     1      13.188   0.699   9.005  0.00  0.00    +0.002 A 
ATOM     34  C   UNL     1      13.166  -0.421   8.198  0.00  0.00    +0.026 A 
ATOM     35  C   UNL     1      12.668  -0.331   6.907  0.00  0.00    +0.053 A 
ATOM     36  N   UNL     1      12.628  -1.432   6.065  0.00  0.00    -0.335 N 
ATOM     37  H   UNL     1      12.954  -2.290   6.380  0.00  0.00    +0.168 HD
ATOM     38  C   UNL     1      12.136  -1.324   4.819  0.00  0.00    +0.161 A 
ATOM     39  S   UNL     1      12.106  -2.719   3.826  0.00  0.00    -0.013 S 
ENDBRANCH  26  27
ENDBRANCH  25  26
ENDBRANCH  22  25
ENDBRANCH   1  21
TORSDOF 7
