REMARK  Name = ZINC35696633
REMARK  12 active torsions:
REMARK  status: ('A' for Active; 'I' for Inactive)
REMARK    1  A    between atoms: C_1  and  C_2
REMARK    2  A    between atoms: C_2  and  C_3
REMARK    3  A    between atoms: C_4  and  C_31
REMARK    4  A    between atoms: C_5  and  C_24
REMARK    5  A    between atoms: C_8  and  C_13
REMARK    6  A    between atoms: C_14  and  N_16
REMARK    7  A    between atoms: N_16  and  C_17
REMARK    8  A    between atoms: C_17  and  C_18
REMARK    9  A    between atoms: C_18  and  N_19
REMARK   10  A    between atoms: C_29  and  C_30
REMARK   11  A    between atoms: C_31  and  O_33
REMARK   12  A    between atoms: O_33  and  C_34
REMARK                            x       y       z     vdW  Elec       q    Type
REMARK                         _______ _______ _______ _____ _____    ______ ____
ROOT
ATOM      1  C   UNL     1      -1.887  -1.292   0.287  0.00  0.00    +0.056 C 
ATOM      2  C   UNL     1      -2.272  -1.415  -1.035  0.00  0.00    +0.083 C 
ATOM      3  C   UNL     1      -3.744  -1.607  -1.326  0.00  0.00    +0.150 C 
ATOM      4  N   UNL     1      -4.665  -1.646  -0.159  0.00  0.00    -0.267 N 
ATOM      5  C   UNL     1      -6.035  -1.810  -0.187  0.00  0.00    +0.048 C 
ATOM      6  C   UNL     1      -6.690  -1.818   0.995  0.00  0.00    +0.072 C 
ATOM      7  S   UNL     1      -5.358  -1.592   2.156  0.00  0.00    -0.060 S 
ATOM      8  C   UNL     1      -4.082  -1.505   1.070  0.00  0.00    +0.166 C 
ATOM      9  N   UNL     1      -2.788  -1.346   1.255  0.00  0.00    -0.229 NA
ENDROOT
BRANCH   3  10
ATOM     10  C   UNL     1      -3.903  -2.898  -2.085  0.00  0.00    -0.019 A 
ATOM     11  C   UNL     1      -4.144  -4.076  -1.403  0.00  0.00    +0.006 A 
ATOM     12  C   UNL     1      -4.290  -5.261  -2.099  0.00  0.00    +0.000 A 
ATOM     13  C   UNL     1      -4.194  -5.268  -3.478  0.00  0.00    +0.000 A 
ATOM     14  C   UNL     1      -3.954  -4.091  -4.161  0.00  0.00    +0.004 A 
ATOM     15  C   UNL     1      -3.812  -2.905  -3.464  0.00  0.00    -0.045 A 
ATOM     16  C   UNL     1      -3.555  -1.620  -4.208  0.00  0.00    +0.044 C 
ENDBRANCH   3  10
BRANCH   5  17
ATOM     17  C   UNL     1      -6.757  -1.971  -1.457  0.00  0.00    +0.091 C 
ATOM     18  C   UNL     1      -8.069  -2.273  -1.453  0.00  0.00    +0.239 C 
ATOM     19  O   UNL     1      -8.751  -2.317  -0.282  0.00  0.00    -0.271 OA
BRANCH  18  20
ATOM     20  N   UNL     1      -8.723  -2.538  -2.645  0.00  0.00    -0.314 N 
ATOM     21  H   UNL     1      -8.235  -2.506  -3.483  0.00  0.00    +0.149 HD
BRANCH  20  22
ATOM     22  C   UNL     1     -10.150  -2.867  -2.640  0.00  0.00    +0.086 C 
BRANCH  22  23
ATOM     23  C   UNL     1     -10.621  -3.114  -4.075  0.00  0.00    -0.060 C 
BRANCH  23  24
ATOM     24  N   UNL     1     -12.053  -3.443  -4.070  0.00  0.00    +0.381 N 
ATOM     25  C   UNL     1     -12.851  -2.252  -3.684  0.00  0.00    -0.079 C 
ATOM     26  C   UNL     1     -14.256  -2.565  -4.258  0.00  0.00    -0.020 C 
ATOM     27  C   UNL     1     -13.934  -3.269  -5.596  0.00  0.00    -0.020 C 
ATOM     28  C   UNL     1     -12.498  -3.802  -5.434  0.00  0.00    -0.079 C 
ATOM     29  H   UNL     1     -12.233  -4.205  -3.434  0.00  0.00    -0.082 HD
ENDBRANCH  23  24
ENDBRANCH  22  23
ENDBRANCH  20  22
ENDBRANCH  18  20
ENDBRANCH   5  17
BRANCH   1  31
ATOM     30  C   UNL     1      -0.115   0.396   0.686  0.00  0.00    +0.010 C 
ATOM     31  C   UNL     1      -0.432  -1.100   0.627  0.00  0.00    +0.053 C 
ENDBRANCH   1  31
BRANCH   2  32
ATOM     32  C   UNL     1      -1.331  -1.365  -2.070  0.00  0.00    +0.339 C 
ATOM     33  O   UNL     1      -1.147  -0.324  -2.676  0.00  0.00    -0.245 OA
BRANCH  32  34
ATOM     34  O   UNL     1      -0.626  -2.471  -2.397  0.00  0.00    -0.465 OA
ATOM     35  C   UNL     1       0.368  -2.329  -3.414  0.00  0.00    +0.280 C 
ENDBRANCH  32  34
ENDBRANCH   2  32
TORSDOF 9
