REMARK  Name = ZINC09327423
REMARK  10 active torsions:
REMARK  status: ('A' for Active; 'I' for Inactive)
REMARK    1  A    between atoms: C_1  and  O_2
REMARK    2  A    between atoms: O_2  and  C_3
REMARK    3  A    between atoms: C_5  and  C_10
REMARK    4  A    between atoms: C_8  and  O_9
REMARK    5  A    between atoms: C_11  and  C_12
REMARK    6  A    between atoms: C_11  and  C_14
REMARK    7  A    between atoms: C_16  and  C_19
REMARK    8  A    between atoms: C_19  and  S_20
REMARK    9  A    between atoms: S_20  and  C_21
REMARK   10  A    between atoms: C_27  and  N_31
REMARK                            x       y       z     vdW  Elec       q    Type
REMARK                         _______ _______ _______ _____ _____    ______ ____
ROOT
ATOM      1  C   UNL     1      -7.298   0.364  -0.158  0.00  0.00    +0.119 A 
ATOM      2  N   UNL     1      -8.553  -0.056  -0.253  0.00  0.00    -0.242 NA
ATOM      3  C   UNL     1      -9.551   0.793  -0.335  0.00  0.00    +0.059 A 
ATOM      4  C   UNL     1      -9.306   2.130  -0.324  0.00  0.00    +0.071 A 
ATOM      5  S   UNL     1      -7.523   2.138  -0.178  0.00  0.00    -0.075 S 
ENDROOT
BRANCH   1   7
ATOM      6  C   UNL     1      -4.851   0.218   0.038  0.00  0.00    +0.029 C 
ATOM      7  C   UNL     1      -6.053  -0.420  -0.058  0.00  0.00    +0.084 C 
BRANCH   6  10
ATOM      8  C   UNL     1      -1.276  -0.909  -0.046  0.00  0.00    +0.162 A 
ATOM      9  C   UNL     1      -2.421  -0.180  -0.299  0.00  0.00    +0.057 A 
ATOM     10  C   UNL     1      -3.631  -0.552   0.301  0.00  0.00    -0.020 A 
ATOM     11  C   UNL     1      -3.672  -1.663   1.154  0.00  0.00    +0.012 A 
ATOM     12  C   UNL     1      -2.524  -2.384   1.399  0.00  0.00    +0.050 A 
ATOM     13  C   UNL     1      -1.327  -2.017   0.800  0.00  0.00    +0.158 A 
BRANCH   8  15
ATOM     14  C   UNL     1      -0.121   0.595  -1.482  0.00  0.00    +0.277 C 
ATOM     15  O   UNL     1      -0.100  -0.550  -0.627  0.00  0.00    -0.491 OA
ENDBRANCH   8  15
BRANCH  13  16
ATOM     16  O   UNL     1      -0.200  -2.735   1.042  0.00  0.00    -0.503 OA
ATOM     17  H   UNL     1       0.309  -2.424   1.803  0.00  0.00    +0.292 HD
ENDBRANCH  13  16
ENDBRANCH   6  10
BRANCH   7  18
ATOM     18  C   UNL     1      -6.106  -1.851  -0.060  0.00  0.00    +0.102 C 
ATOM     19  N   UNL     1      -6.149  -2.986  -0.062  0.00  0.00    -0.191 NA
ENDBRANCH   7  18
ENDBRANCH   1   7
BRANCH   3  20
ATOM     20  C   UNL     1     -10.966   0.286  -0.442  0.00  0.00    +0.133 C 
BRANCH  20  21
ATOM     21  S   UNL     1     -11.666   0.092   1.221  0.00  0.00    -0.082 S 
BRANCH  21  22
ATOM     22  C   UNL     1     -13.300  -0.498   0.929  0.00  0.00    +0.168 A 
ATOM     23  N   UNL     1     -14.217  -0.786   1.901  0.00  0.00    -0.333 N 
ATOM     24  H   UNL     1     -14.085  -0.703   2.858  0.00  0.00    +0.168 HD
ATOM     25  C   UNL     1     -15.369  -1.218   1.264  0.00  0.00    +0.067 A 
ATOM     26  C   UNL     1     -16.612  -1.641   1.709  0.00  0.00    +0.030 A 
ATOM     27  C   UNL     1     -17.576  -2.018   0.797  0.00  0.00    +0.035 A 
ATOM     28  C   UNL     1     -17.311  -1.976  -0.564  0.00  0.00    +0.128 A 
ATOM     29  C   UNL     1     -16.082  -1.559  -1.023  0.00  0.00    +0.062 A 
ATOM     30  C   UNL     1     -15.095  -1.174  -0.113  0.00  0.00    +0.092 A 
ATOM     31  N   UNL     1     -13.820  -0.723  -0.253  0.00  0.00    -0.222 NA
BRANCH  28  32
ATOM     32  N   UNL     1     -18.357  -2.383  -1.529  0.00  0.00    +0.056 N 
ATOM     33  O   UNL     1     -19.437  -2.751  -1.130  0.00  0.00    -0.126 OA
ATOM     34  O   UNL     1     -18.130  -2.348  -2.716  0.00  0.00    -0.126 OA
ENDBRANCH  28  32
ENDBRANCH  21  22
ENDBRANCH  20  21
ENDBRANCH   3  20
TORSDOF 9
