REMARK  Name = ZINC09507123
REMARK  11 active torsions:
REMARK  status: ('A' for Active; 'I' for Inactive)
REMARK    1  A    between atoms: C_1  and  C_2
REMARK    2  A    between atoms: C_3  and  C_7
REMARK    3  A    between atoms: C_10  and  S_13
REMARK    4  A    between atoms: N_11  and  N_12
REMARK    5  A    between atoms: S_13  and  C_14
REMARK    6  A    between atoms: C_14  and  C_15
REMARK    7  A    between atoms: N_17  and  C_18
REMARK    8  A    between atoms: N_17  and  C_19
REMARK    9  A    between atoms: C_19  and  C_20
REMARK   10  A    between atoms: N_22  and  C_23
REMARK   11  A    between atoms: C_28  and  C_29
REMARK                            x       y       z     vdW  Elec       q    Type
REMARK                         _______ _______ _______ _____ _____    ______ ____
ROOT
ATOM      1  C   UNL     1      -0.021  -0.000  -0.004  0.00  0.00    +0.226 C 
ATOM      2  O   UNL     1       1.039  -0.589  -0.025  0.00  0.00    -0.275 OA
ATOM      3  N   UNL     1      -1.177  -0.694   0.011  0.00  0.00    -0.295 N 
ATOM      4  C   UNL     1      -2.457   0.018   0.036  0.00  0.00    +0.132 C 
ENDROOT
BRANCH   1   5
ATOM      5  C   UNL     1      -0.046   1.506   0.004  0.00  0.00    +0.173 C 
BRANCH   5   6
ATOM      6  S   UNL     1       1.650   2.138  -0.020  0.00  0.00    -0.075 S 
BRANCH   6  10
ATOM      7  C   UNL     1       1.556   6.044   0.003  0.00  0.00    +0.185 A 
ATOM      8  N   UNL     1       0.283   5.724   0.023  0.00  0.00    -0.127 NA
ATOM      9  N   UNL     1       0.152   4.446   0.018  0.00  0.00    -0.121 NA
ATOM     10  C   UNL     1       1.332   3.871  -0.005  0.00  0.00    +0.209 A 
ATOM     11  N   UNL     1       2.268   4.867  -0.009  0.00  0.00    -0.224 N 
BRANCH   7  14
ATOM     12  C   UNL     1      -0.073   8.723   0.033  0.00  0.00    +0.087 C 
ATOM     13  C   UNL     1       1.428   8.584   0.014  0.00  0.00    +0.112 A 
ATOM     14  C   UNL     1       2.118   7.412   0.001  0.00  0.00    +0.061 A 
ATOM     15  C   UNL     1       3.538   7.787  -0.020  0.00  0.00    +0.053 A 
ATOM     16  C   UNL     1       3.567   9.130  -0.014  0.00  0.00    +0.196 A 
ATOM     17  O   UNL     1       2.309   9.595   0.009  0.00  0.00    -0.467 OA
ENDBRANCH   7  14
BRANCH  11  18
ATOM     18  N   UNL     1       3.626   4.725  -0.026  0.00  0.00    -0.295 N 
ATOM     19  H   UNL     1       3.975   4.693  -0.972  0.00  0.00    +0.163 HD
ATOM     20  H   UNL     1       4.074   5.460   0.500  0.00  0.00    +0.163 HD
ENDBRANCH  11  18
ENDBRANCH   6  10
ENDBRANCH   5   6
ENDBRANCH   1   5
BRANCH   3  21
ATOM     21  C   UNL     1      -1.153  -2.158   0.002  0.00  0.00    +0.203 C 
BRANCH  21  22
ATOM     22  C   UNL     1      -1.121  -2.668   1.420  0.00  0.00    +0.235 C 
ATOM     23  O   UNL     1      -1.119  -1.886   2.346  0.00  0.00    -0.274 OA
ATOM     24  N   UNL     1      -1.095  -3.995   1.658  0.00  0.00    -0.284 N 
ATOM     25  H   UNL     1      -1.163  -4.622   0.921  0.00  0.00    +0.155 HD
BRANCH  24  26
ATOM     26  C   UNL     1      -0.971  -4.468   2.969  0.00  0.00    +0.045 A 
ATOM     27  C   UNL     1      -1.562  -3.775   4.018  0.00  0.00    +0.024 A 
ATOM     28  C   UNL     1      -1.441  -4.247   5.310  0.00  0.00    +0.002 A 
ATOM     29  C   UNL     1      -0.724  -5.402   5.562  0.00  0.00    +0.001 A 
ATOM     30  C   UNL     1      -0.130  -6.091   4.521  0.00  0.00    +0.014 A 
ATOM     31  C   UNL     1      -0.251  -5.627   3.225  0.00  0.00    +0.076 A 
BRANCH  31  32
ATOM     32  C   UNL     1       0.397  -6.378   2.091  0.00  0.00    +0.419 C 
ATOM     33  F   UNL     1       1.059  -7.503   2.595  0.00  0.00    -0.166 F 
ATOM     34  F   UNL     1      -0.584  -6.784   1.179  0.00  0.00    -0.166 F 
ATOM     35  F   UNL     1       1.318  -5.546   1.446  0.00  0.00    -0.166 F 
ENDBRANCH  31  32
ENDBRANCH  24  26
ENDBRANCH  21  22
ENDBRANCH   3  21
TORSDOF 9
