REMARK  Name = ZINC00870388
REMARK  8 active torsions:
REMARK  status: ('A' for Active; 'I' for Inactive)
REMARK    1  A    between atoms: C_1  and  C_2
REMARK    2  A    between atoms: C_9  and  C_13
REMARK    3  A    between atoms: C_15  and  C_26
REMARK    4  A    between atoms: C_16  and  N_25
REMARK    5  A    between atoms: C_18  and  C_24
REMARK    6  A    between atoms: C_19  and  C_20
REMARK    7  A    between atoms: C_20  and  O_22
REMARK    8  A    between atoms: O_22  and  C_23
REMARK                            x       y       z     vdW  Elec       q    Type
REMARK                         _______ _______ _______ _____ _____    ______ ____
ROOT
ATOM      1  C   UNL     1       0.088  -5.018   3.550  0.00  0.00    +0.107 C 
ATOM      2  C   UNL     1      -1.144  -4.723   4.362  0.00  0.00    +0.098 C 
ATOM      3  C   UNL     1      -1.074  -3.945   5.470  0.00  0.00    +0.198 C 
ATOM      4  O   UNL     1       0.091  -3.413   5.882  0.00  0.00    -0.445 OA
ATOM      5  C   UNL     1       1.252  -3.924   5.444  0.00  0.00    +0.115 C 
ATOM      6  C   UNL     1       1.319  -4.689   4.349  0.00  0.00    +0.087 C 
ATOM      7  C   UNL     1       2.517  -3.625   6.206  0.00  0.00    +0.087 C 
ENDROOT
BRANCH   1  16
ATOM      8  C   UNL     1      -0.018   1.503   0.010  0.00  0.00    +0.044 C 
ATOM      9  C   UNL     1       0.002  -0.004   0.002  0.00  0.00    -0.050 A 
ATOM     10  C   UNL     1       0.006  -0.685  -1.214  0.00  0.00    +0.005 A 
ATOM     11  C   UNL     1       0.024  -2.045  -1.257  0.00  0.00    +0.028 A 
ATOM     12  C   UNL     1       0.040  -2.781  -0.059  0.00  0.00    +0.073 A 
ATOM     13  C   UNL     1       0.036  -2.086   1.176  0.00  0.00    +0.001 A 
ATOM     14  C   UNL     1       0.022  -0.682   1.183  0.00  0.00    +0.013 A 
ATOM     15  C   UNL     1       0.052  -2.824   2.375  0.00  0.00    +0.017 A 
ATOM     16  C   UNL     1       0.070  -4.187   2.293  0.00  0.00    +0.003 A 
ATOM     17  C   UNL     1       0.072  -4.809   1.044  0.00  0.00    +0.134 A 
ATOM     18  N   UNL     1       0.058  -4.117  -0.071  0.00  0.00    -0.235 NA
ATOM     19 CL   UNL     1       0.096  -6.543   0.964  0.00  0.00    -0.062 Cl
ENDBRANCH   1  16
BRANCH   3  20
ATOM     20  N   UNL     1      -2.217  -3.695   6.187  0.00  0.00    -0.328 N 
ATOM     21  H   UNL     1      -3.063  -4.072   5.899  0.00  0.00    +0.145 HD
ATOM     22  H   UNL     1      -2.180  -3.140   6.981  0.00  0.00    +0.145 HD
ENDBRANCH   3  20
BRANCH   6  23
ATOM     23  C   UNL     1       2.574  -5.199   3.935  0.00  0.00    +0.339 C 
ATOM     24  O   UNL     1       3.576  -4.939   4.573  0.00  0.00    -0.245 OA
BRANCH  23  25
ATOM     25  O   UNL     1       2.658  -5.972   2.833  0.00  0.00    -0.465 OA
ATOM     26  C   UNL     1       3.955  -6.452   2.474  0.00  0.00    +0.280 C 
ENDBRANCH  23  25
ENDBRANCH   6  23
BRANCH   2  27
ATOM     27  C   UNL     1      -2.405  -5.268   3.959  0.00  0.00    +0.101 C 
ATOM     28  N   UNL     1      -3.405  -5.701   3.639  0.00  0.00    -0.191 NA
ENDBRANCH   2  27
TORSDOF 5
