REMARK  Name = ZINC39495147
REMARK  12 active torsions:
REMARK  status: ('A' for Active; 'I' for Inactive)
REMARK    1  A    between atoms: C_1  and  C_2
REMARK    2  A    between atoms: C_2  and  C_3
REMARK    3  A    between atoms: C_2  and  S_4
REMARK    4  A    between atoms: S_4  and  C_7
REMARK    5  A    between atoms: N_9  and  C_10
REMARK    6  A    between atoms: C_10  and  C_12
REMARK    7  A    between atoms: C_10  and  C_18
REMARK    8  A    between atoms: C_18  and  C_20
REMARK    9  A    between atoms: C_18  and  C_27
REMARK   10  A    between atoms: C_25  and  O_26
REMARK   11  A    between atoms: C_27  and  C_29
REMARK   12  A    between atoms: C_34  and  O_35
REMARK                            x       y       z     vdW  Elec       q    Type
REMARK                         _______ _______ _______ _____ _____    ______ ____
ROOT
ATOM      1  C   UNL     1       4.166   2.818  -2.935  0.00  0.00    +0.118 C 
ENDROOT
BRANCH   1   2
ATOM      2  C   UNL     1       5.575   3.344  -3.038  0.00  0.00    +0.007 A 
ATOM      3  C   UNL     1       6.618   2.479  -3.305  0.00  0.00    +0.008 A 
ATOM      4  C   UNL     1       7.911   2.961  -3.400  0.00  0.00    +0.001 A 
ATOM      5  C   UNL     1       8.162   4.310  -3.227  0.00  0.00    +0.004 A 
ATOM      6  C   UNL     1       7.122   5.179  -2.959  0.00  0.00    +0.046 A 
ATOM      7  C   UNL     1       5.824   4.699  -2.869  0.00  0.00    +0.121 A 
BRANCH   7   8
ATOM      8  O   UNL     1       4.798   5.552  -2.612  0.00  0.00    -0.506 OA
ATOM      9  H   UNL     1       4.612   5.671  -1.671  0.00  0.00    +0.292 HD
ENDBRANCH   7   8
ENDBRANCH   1   2
BRANCH   1  10
ATOM     10  C   UNL     1       3.824   2.053  -4.187  0.00  0.00    +0.176 C 
ATOM     11  O   UNL     1       3.962   0.848  -4.218  0.00  0.00    -0.291 OA
BRANCH  10  12
ATOM     12  C   UNL     1       3.321   2.765  -5.368  0.00  0.00    +0.059 A 
ATOM     13  C   UNL     1       3.164   4.156  -5.339  0.00  0.00    +0.015 A 
ATOM     14  C   UNL     1       2.693   4.816  -6.451  0.00  0.00    +0.001 A 
ATOM     15  C   UNL     1       2.372   4.112  -7.600  0.00  0.00    +0.004 A 
ATOM     16  C   UNL     1       2.521   2.740  -7.645  0.00  0.00    +0.046 A 
ATOM     17  C   UNL     1       3.000   2.056  -6.537  0.00  0.00    +0.127 A 
BRANCH  17  18
ATOM     18  O   UNL     1       3.152   0.709  -6.581  0.00  0.00    -0.506 OA
ATOM     19  H   UNL     1       2.369   0.215  -6.304  0.00  0.00    +0.292 HD
ENDBRANCH  17  18
ENDBRANCH  10  12
ENDBRANCH   1  10
BRANCH   1  20
ATOM     20  C   UNL     1       4.056   1.890  -1.723  0.00  0.00    +0.120 C 
BRANCH  20  21
ATOM     21  C   UNL     1       4.317   2.675  -0.464  0.00  0.00    -0.026 A 
ATOM     22  C   UNL     1       3.362   3.552   0.015  0.00  0.00    +0.005 A 
ATOM     23  C   UNL     1       3.601   4.272   1.170  0.00  0.00    +0.000 A 
ATOM     24  C   UNL     1       4.796   4.115   1.847  0.00  0.00    +0.000 A 
ATOM     25  C   UNL     1       5.751   3.238   1.369  0.00  0.00    +0.000 A 
ATOM     26  C   UNL     1       5.510   2.514   0.216  0.00  0.00    +0.005 A 
ENDBRANCH  20  21
BRANCH  20  29
ATOM     27  C   UNL     1       2.504   0.138  -1.047  0.00  0.00    +0.352 C 
ATOM     28  O   UNL     1       3.434  -0.446  -0.531  0.00  0.00    -0.249 OA
ATOM     29  N   UNL     1       2.710   1.315  -1.670  0.00  0.00    -0.289 N 
ATOM     30  H   UNL     1       1.966   1.782  -2.083  0.00  0.00    +0.151 HD
BRANCH  27  31
ATOM     31  S   UNL     1       0.885  -0.554  -0.983  0.00  0.00    +0.050 S 
ATOM     32  O   UNL     1       1.091  -1.938  -0.736  0.00  0.00    -0.165 OA
ATOM     33  O   UNL     1       0.257  -0.118  -2.181  0.00  0.00    -0.165 OA
BRANCH  31  35
ATOM     34  C   UNL     1       0.061   1.743   0.252  0.00  0.00    +0.032 C 
ATOM     35  C   UNL     1       0.101   0.227   0.454  0.00  0.00    +0.135 C 
ATOM     36  C   UNL     1      -1.325  -0.304   0.609  0.00  0.00    +0.032 C 
ENDBRANCH  31  35
ENDBRANCH  27  31
ENDBRANCH  20  29
ENDBRANCH   1  20
TORSDOF 10
