REMARK  Name = ZINC52010974
REMARK  5 active torsions:
REMARK  status: ('A' for Active; 'I' for Inactive)
REMARK    1  A    between atoms: C_2  and  S_9
REMARK    2  A    between atoms: N_7  and  N_8
REMARK    3  A    between atoms: S_9  and  N_12
REMARK    4  A    between atoms: N_12  and  C_13
REMARK    5  A    between atoms: C_19  and  O_21
REMARK                            x       y       z     vdW  Elec       q    Type
REMARK                         _______ _______ _______ _____ _____    ______ ____
ROOT
ATOM      1  S   UNL     1       1.208   3.773   0.010  0.00  0.00    +0.062 S 
ATOM      2  O   UNL     1       2.453   4.166  -0.550  0.00  0.00    -0.153 OA
ATOM      3  O   UNL     1      -0.037   4.198  -0.527  0.00  0.00    -0.153 OA
ENDROOT
BRANCH   1   5
ATOM      4  C   UNL     1      -0.016   1.319   0.009  0.00  0.00    +0.144 A 
ATOM      5  C   UNL     1       1.185   2.011   0.002  0.00  0.00    +0.141 A 
ATOM      6  C   UNL     1       2.367   1.288  -0.014  0.00  0.00    +0.144 A 
ATOM      7  N   UNL     1       2.314  -0.034  -0.020  0.00  0.00    -0.220 NA
ATOM      8  C   UNL     1       1.150  -0.666  -0.013  0.00  0.00    +0.229 A 
ATOM      9  N   UNL     1       0.002  -0.004   0.002  0.00  0.00    -0.220 NA
ATOM     10  N   UNL     1       1.132  -2.050  -0.020  0.00  0.00    -0.252 N 
ATOM     11  H   UNL     1       1.966  -2.546  -0.031  0.00  0.00    +0.169 HD
BRANCH  10  12
ATOM     12  N   UNL     1      -0.060  -2.717  -0.012  0.00  0.00    -0.254 NA
ATOM     13  H   UNL     1       0.085  -3.716  -0.019  0.00  0.00    +0.140 HD
ATOM     14  H   UNL     1      -0.625  -2.439   0.776  0.00  0.00    +0.140 HD
ENDBRANCH  10  12
ENDBRANCH   1   5
BRANCH   1  15
ATOM     15  N   UNL     1       1.229   4.255   1.595  0.00  0.00    -0.184 NA
ATOM     16  H   UNL     1       0.477   4.745   1.962  0.00  0.00    +0.148 HD
BRANCH  15  17
ATOM     17  C   UNL     1       2.383   3.940   2.440  0.00  0.00    +0.105 C 
ATOM     18  C   UNL     1       3.349   5.126   2.447  0.00  0.00    +0.023 C 
ATOM     19  C   UNL     1       4.554   4.797   3.331  0.00  0.00    +0.002 C 
ATOM     20  C   UNL     1       4.079   4.518   4.758  0.00  0.00    +0.003 C 
ATOM     21  C   UNL     1       3.113   3.332   4.751  0.00  0.00    +0.033 C 
ATOM     22  C   UNL     1       1.908   3.661   3.868  0.00  0.00    +0.133 C 
BRANCH  22  23
ATOM     23  O   UNL     1       1.241   4.815   4.382  0.00  0.00    -0.390 OA
ATOM     24  H   UNL     1       0.912   4.710   5.285  0.00  0.00    +0.210 HD
ENDBRANCH  22  23
ENDBRANCH  15  17
ENDBRANCH   1  15
TORSDOF 5
