REMARK  Name = ZINC03301259
REMARK  6 active torsions:
REMARK  status: ('A' for Active; 'I' for Inactive)
REMARK    1  A    between atoms: C_3  and  C_6
REMARK    2  A    between atoms: C_9  and  C_25
REMARK    3  A    between atoms: C_12  and  C_14
REMARK    4  A    between atoms: C_14  and  O_15
REMARK    5  A    between atoms: O_15  and  C_16
REMARK    6  A    between atoms: C_16  and  C_18
REMARK                            x       y       z     vdW  Elec       q    Type
REMARK                         _______ _______ _______ _____ _____    ______ ____
ROOT
ATOM      1  C   UNL     1       3.599   0.625  -0.029  0.00  0.00    +0.187 C 
ATOM      2  C   UNL     1       4.104   0.301  -1.417  0.00  0.00    +0.030 C 
ATOM      3  C   UNL     1       4.791  -0.835  -1.336  0.00  0.00    +0.050 C 
ATOM      4  N   UNL     1       4.810  -1.326  -0.037  0.00  0.00    -0.261 N 
ATOM      5  N   UNL     1       4.095  -0.472   0.818  0.00  0.00    -0.205 N 
ATOM      6  C   UNL     1       3.901  -0.625   2.143  0.00  0.00    +0.270 C 
ATOM      7  O   UNL     1       3.257   0.197   2.760  0.00  0.00    -0.270 OA
ATOM      8  H   UNL     1       5.255  -2.142   0.240  0.00  0.00    +0.170 HD
ENDROOT
BRANCH   3   9
ATOM      9  C   UNL     1       5.452  -1.494  -2.486  0.00  0.00    -0.003 A 
ATOM     10  C   UNL     1       5.382  -0.921  -3.755  0.00  0.00    +0.011 A 
ATOM     11  C   UNL     1       6.000  -1.539  -4.823  0.00  0.00    +0.020 A 
ATOM     12  C   UNL     1       6.689  -2.726  -4.636  0.00  0.00    +0.041 A 
ATOM     13  C   UNL     1       6.761  -3.299  -3.377  0.00  0.00    +0.020 A 
ATOM     14  C   UNL     1       6.151  -2.687  -2.302  0.00  0.00    +0.011 A 
ATOM     15 CL   UNL     1       7.463  -3.498  -5.984  0.00  0.00    -0.084 Cl
ENDBRANCH   3   9
BRANCH   1  18
ATOM     16  C   UNL     1      -0.016   1.341   0.009  0.00  0.00    +0.041 A 
ATOM     17  C   UNL     1       1.331   1.769  -0.001  0.00  0.00    +0.047 A 
ATOM     18  C   UNL     1       2.092   0.660  -0.014  0.00  0.00    +0.131 A 
ATOM     19  O   UNL     1       1.282  -0.411  -0.012  0.00  0.00    -0.466 OA
ATOM     20  C   UNL     1       0.002  -0.004   0.002  0.00  0.00    +0.195 A 
ENDBRANCH   1  18
BRANCH   6  21
ATOM     21  C   UNL     1       4.484  -1.816   2.857  0.00  0.00    +0.329 C 
BRANCH  21  22
ATOM     22  O   UNL     1       4.144  -1.754   4.244  0.00  0.00    -0.452 OA
BRANCH  22  23
ATOM     23  C   UNL     1       4.592  -2.752   5.029  0.00  0.00    +0.341 C 
ATOM     24  O   UNL     1       5.253  -3.651   4.550  0.00  0.00    -0.245 OA
BRANCH  23  25
ATOM     25  C   UNL     1       4.278  -2.754   6.473  0.00  0.00    +0.078 A 
ATOM     26  C   UNL     1       4.743  -3.783   7.301  0.00  0.00    +0.033 A 
ATOM     27  C   UNL     1       4.422  -3.737   8.647  0.00  0.00    +0.037 A 
ATOM     28  C   UNL     1       3.659  -2.686   9.126  0.00  0.00    +0.126 A 
ATOM     29  N   UNL     1       3.235  -1.730   8.321  0.00  0.00    -0.261 NA
ATOM     30  C   UNL     1       3.519  -1.727   7.035  0.00  0.00    +0.125 A 
ATOM     31 BR   UNL     1       5.018  -5.097   9.819  0.00  0.00    -0.049 Br
ENDBRANCH  23  25
ENDBRANCH  22  23
ENDBRANCH  21  22
ENDBRANCH   6  21
TORSDOF 6
