REMARK  Name = ZINC27690594
REMARK  9 active torsions:
REMARK  status: ('A' for Active; 'I' for Inactive)
REMARK    1  A    between atoms: C_1  and  C_2
REMARK    2  A    between atoms: C_2  and  C_4
REMARK    3  A    between atoms: C_2  and  N_10
REMARK    4  A    between atoms: C_11  and  C_13
REMARK    5  A    between atoms: C_13  and  C_15
REMARK    6  A    between atoms: C_13  and  N_18
REMARK    7  A    between atoms: C_15  and  C_16
REMARK    8  A    between atoms: C_15  and  C_17
REMARK    9  A    between atoms: C_19  and  C_21
REMARK                            x       y       z     vdW  Elec       q    Type
REMARK                         _______ _______ _______ _____ _____    ______ ____
ROOT
ATOM      1  C   UNL     1       2.762  -1.209  -2.429  0.00  0.00    +0.162 C 
ENDROOT
BRANCH   1   3
ATOM      2  N   UNL     1       0.749  -0.983  -1.010  0.00  0.00    -0.307 N 
ATOM      3  C   UNL     1       2.040  -0.662  -1.224  0.00  0.00    +0.234 C 
ATOM      4  O   UNL     1       2.622   0.066  -0.448  0.00  0.00    -0.274 OA
ATOM      5  H   UNL     1       0.263  -1.504  -1.668  0.00  0.00    +0.149 HD
BRANCH   2   7
ATOM      6  C   UNL     1      -0.458   0.876   0.025  0.00  0.00    +0.033 C 
ATOM      7  C   UNL     1       0.079  -0.544   0.217  0.00  0.00    +0.100 C 
BRANCH   7   8
ATOM      8  C   UNL     1      -1.064  -1.476   0.526  0.00  0.00    -0.027 A 
ATOM      9  C   UNL     1      -1.859  -1.957  -0.497  0.00  0.00    +0.005 A 
ATOM     10  C   UNL     1      -2.908  -2.812  -0.214  0.00  0.00    +0.000 A 
ATOM     11  C   UNL     1      -3.162  -3.185   1.093  0.00  0.00    +0.000 A 
ATOM     12  C   UNL     1      -2.366  -2.704   2.116  0.00  0.00    +0.000 A 
ATOM     13  C   UNL     1      -1.315  -1.853   1.832  0.00  0.00    +0.005 A 
ENDBRANCH   7   8
ENDBRANCH   2   7
ENDBRANCH   1   3
BRANCH   1  14
ATOM     14  N   UNL     1       4.191  -1.332  -2.128  0.00  0.00    -0.300 N 
ATOM     15  C   UNL     1       4.946  -2.224  -2.800  0.00  0.00    +0.250 C 
ATOM     16  O   UNL     1       4.442  -2.925  -3.655  0.00  0.00    -0.270 OA
ATOM     17  H   UNL     1       4.593  -0.773  -1.445  0.00  0.00    +0.150 HD
BRANCH  15  18
ATOM     18  C   UNL     1       6.385  -2.348  -2.496  0.00  0.00    +0.107 A 
ATOM     19  C   UNL     1       6.823  -3.251  -1.521  0.00  0.00    +0.138 A 
ATOM     20  C   UNL     1       8.172  -3.361  -1.244  0.00  0.00    +0.039 A 
ATOM     21  C   UNL     1       9.089  -2.583  -1.927  0.00  0.00    +0.006 A 
ATOM     22  C   UNL     1       8.665  -1.687  -2.891  0.00  0.00    +0.039 A 
ATOM     23  C   UNL     1       7.319  -1.568  -3.186  0.00  0.00    +0.138 A 
ATOM     24  F   UNL     1       6.907  -0.697  -4.133  0.00  0.00    -0.205 F 
ATOM     25  F   UNL     1       5.929  -4.012  -0.853  0.00  0.00    -0.205 F 
ENDBRANCH  15  18
ENDBRANCH   1  14
BRANCH   1  26
ATOM     26  C   UNL     1       2.571  -0.258  -3.613  0.00  0.00    +0.012 C 
ATOM     27  C   UNL     1       3.218  -0.862  -4.861  0.00  0.00    +0.009 C 
ATOM     28  C   UNL     1       1.076  -0.050  -3.863  0.00  0.00    +0.009 C 
ENDBRANCH   1  26
TORSDOF 6
