REMARK  Name = ZINC60044480
REMARK  8 active torsions:
REMARK  status: ('A' for Active; 'I' for Inactive)
REMARK    1  A    between atoms: C_4  and  C_7
REMARK    2  A    between atoms: C_7  and  C_8
REMARK    3  A    between atoms: C_14  and  C_16
REMARK    4  A    between atoms: N_18  and  C_19
REMARK    5  A    between atoms: C_19  and  C_20
REMARK    6  A    between atoms: C_20  and  C_21
REMARK    7  A    between atoms: C_24  and  S_27
REMARK    8  A    between atoms: S_27  and  N_30
REMARK                            x       y       z     vdW  Elec       q    Type
REMARK                         _______ _______ _______ _____ _____    ______ ____
ROOT
ATOM      1  C   UNL     1       4.939  -2.820   3.687  0.00  0.00    +0.234 C 
ATOM      2  O   UNL     1       3.898  -3.174   3.175  0.00  0.00    -0.274 OA
ATOM      3  N   UNL     1       5.254  -3.234   4.931  0.00  0.00    -0.313 N 
ATOM      4  H   UNL     1       6.086  -2.951   5.340  0.00  0.00    +0.149 HD
ENDROOT
BRANCH   1  11
ATOM      5  C   UNL     1       4.164  -0.959   1.377  0.00  0.00    +0.221 C 
ATOM      6  O   UNL     1       3.486  -0.579   2.308  0.00  0.00    -0.275 OA
ATOM      7  N   UNL     1       5.323  -1.607   1.608  0.00  0.00    -0.290 N 
ATOM      8  C   UNL     1       6.244  -2.116   0.575  0.00  0.00    +0.108 C 
ATOM      9  C   UNL     1       7.624  -2.188   1.275  0.00  0.00    +0.021 C 
ATOM     10  C   UNL     1       7.226  -2.642   2.704  0.00  0.00    +0.033 C 
ATOM     11  C   UNL     1       5.882  -1.919   2.932  0.00  0.00    +0.162 C 
BRANCH   5  12
ATOM     12  C   UNL     1       3.711  -0.707  -0.038  0.00  0.00    +0.131 C 
BRANCH  12  16
ATOM     13  C   UNL     1      -0.017   1.378   0.010  0.00  0.00    +0.000 A 
ATOM     14  C   UNL     1       1.171   2.086   0.002  0.00  0.00    +0.000 A 
ATOM     15  C   UNL     1       2.377   1.411  -0.013  0.00  0.00    +0.004 A 
ATOM     16  C   UNL     1       2.396   0.029  -0.020  0.00  0.00    -0.039 A 
ATOM     17  C   UNL     1       1.208  -0.679  -0.012  0.00  0.00    +0.004 A 
ATOM     18  C   UNL     1       0.002  -0.004   0.002  0.00  0.00    +0.000 A 
ENDBRANCH  12  16
ENDBRANCH   5  12
ENDBRANCH   1  11
BRANCH   3  19
ATOM     19  C   UNL     1       4.337  -4.110   5.665  0.00  0.00    +0.109 C 
BRANCH  19  20
ATOM     20  C   UNL     1       4.927  -4.428   7.040  0.00  0.00    +0.054 C 
BRANCH  20  21
ATOM     21  C   UNL     1       3.985  -5.330   7.795  0.00  0.00    -0.046 A 
ATOM     22  C   UNL     1       2.998  -4.784   8.595  0.00  0.00    +0.005 A 
ATOM     23  C   UNL     1       2.134  -5.611   9.287  0.00  0.00    +0.029 A 
ATOM     24  C   UNL     1       2.256  -6.984   9.179  0.00  0.00    +0.105 A 
ATOM     25  C   UNL     1       3.241  -7.529   8.379  0.00  0.00    +0.029 A 
ATOM     26  C   UNL     1       4.103  -6.702   7.683  0.00  0.00    +0.005 A 
BRANCH  24  27
ATOM     27  S   UNL     1       1.154  -8.038  10.063  0.00  0.00    +0.056 S 
ATOM     28  O   UNL     1       1.823  -9.281  10.222  0.00  0.00    -0.153 OA
ATOM     29  O   UNL     1       0.671  -7.286  11.167  0.00  0.00    -0.153 OA
BRANCH  27  30
ATOM     30  N   UNL     1      -0.147  -8.322   9.078  0.00  0.00    -0.204 NA
ATOM     31  H   UNL     1      -0.632  -9.159   9.146  0.00  0.00    +0.144 HD
ATOM     32  H   UNL     1      -0.423  -7.652   8.434  0.00  0.00    +0.144 HD
ENDBRANCH  27  30
ENDBRANCH  24  27
ENDBRANCH  20  21
ENDBRANCH  19  20
ENDBRANCH   3  19
TORSDOF 8
