REMARK  Name = ZINC44012265
REMARK  3 active torsions:
REMARK  status: ('A' for Active; 'I' for Inactive)
REMARK    1  A    between atoms: C_9  and  O_26
REMARK    2  A    between atoms: C_10  and  C_11
REMARK    3  A    between atoms: N_12  and  C_13
REMARK                            x       y       z     vdW  Elec       q    Type
REMARK                         _______ _______ _______ _____ _____    ______ ____
ROOT
ATOM      1  C   UNL     1       4.982   0.091  -0.046  0.00  0.00    +0.090 C 
ATOM      2  N   UNL     1       6.104  -0.552   0.038  0.00  0.00    -0.385 N 
ATOM      3  H   UNL     1       6.110  -1.522   0.033  0.00  0.00    +0.159 HD
ENDROOT
BRANCH   2   4
ATOM      4  C   UNL     1       7.366   0.187   0.139  0.00  0.00    +0.096 C 
ATOM      5  C   UNL     1       8.072  -0.186   1.444  0.00  0.00    +0.027 C 
ATOM      6  C   UNL     1       9.374   0.610   1.567  0.00  0.00    +0.021 C 
ATOM      7  C   UNL     1      10.298   0.254   0.398  0.00  0.00    +0.108 C 
ATOM      8  N   UNL     1       9.573   0.472  -0.862  0.00  0.00    -0.298 N 
ATOM      9  C   UNL     1       8.266  -0.173  -1.047  0.00  0.00    +0.132 C 
ATOM     10  C   UNL     1      10.111   1.272  -1.855  0.00  0.00    +0.218 A 
ATOM     11  N   UNL     1       9.430   1.455  -2.977  0.00  0.00    -0.223 NA
ATOM     12  C   UNL     1       9.915   2.214  -3.946  0.00  0.00    +0.116 A 
ATOM     13  C   UNL     1      11.150   2.821  -3.776  0.00  0.00    +0.039 A 
ATOM     14  C   UNL     1      11.835   2.608  -2.589  0.00  0.00    +0.116 A 
ATOM     15  N   UNL     1      11.291   1.842  -1.659  0.00  0.00    -0.223 NA
ENDBRANCH   2   4
BRANCH   1  25
ATOM     16  C   UNL     1      -0.016   1.357   0.059  0.00  0.00    +0.001 A 
ATOM     17  C   UNL     1       1.168   2.091   0.052  0.00  0.00    +0.001 A 
ATOM     18  C   UNL     1       2.379   1.465   0.021  0.00  0.00    +0.009 A 
ATOM     19  C   UNL     1       2.434   0.066  -0.004  0.00  0.00    -0.006 A 
ATOM     20  C   UNL     1       1.233  -0.683   0.004  0.00  0.00    -0.017 A 
ATOM     21  C   UNL     1       0.003  -0.004   0.035  0.00  0.00    +0.008 A 
ATOM     22  C   UNL     1       1.290  -2.088  -0.020  0.00  0.00    +0.012 A 
ATOM     23  C   UNL     1       2.485  -2.734  -0.050  0.00  0.00    +0.046 A 
ATOM     24  C   UNL     1       3.696  -2.041  -0.058  0.00  0.00    +0.126 A 
ATOM     25  C   UNL     1       3.711  -0.646  -0.037  0.00  0.00    +0.040 A 
BRANCH  24  26
ATOM     26  O   UNL     1       4.865  -2.728  -0.088  0.00  0.00    -0.506 OA
ATOM     27  H   UNL     1       5.190  -2.913  -0.979  0.00  0.00    +0.292 HD
ENDBRANCH  24  26
ENDBRANCH   1  25
TORSDOF 3
