REMARK  Name = ZINC65192856
REMARK  5 active torsions:
REMARK  status: ('A' for Active; 'I' for Inactive)
REMARK    1  A    between atoms: N_4  and  C_6
REMARK    2  A    between atoms: C_7  and  C_15
REMARK    3  A    between atoms: N_17  and  N_18
REMARK    4  A    between atoms: N_21  and  C_22
REMARK    5  A    between atoms: C_22  and  C_23
REMARK                            x       y       z     vdW  Elec       q    Type
REMARK                         _______ _______ _______ _____ _____    ______ ____
ROOT
ATOM      1  C   UNL     1       1.742  -1.734  -0.024  0.00  0.00    +0.097 A 
ATOM      2  C   UNL     1       0.977  -2.881  -0.028  0.00  0.00    +0.073 A 
ATOM      3  C   UNL     1       1.676  -4.167  -0.042  0.00  0.00    -0.021 A 
ATOM      4  C   UNL     1       3.015  -4.050  -0.053  0.00  0.00    +0.006 A 
ATOM      5  S   UNL     1       3.320  -2.300  -0.043  0.00  0.00    -0.074 S 
ATOM      6  C   UNL     1       4.075  -5.116  -0.082  0.00  0.00    +0.111 C 
ATOM      7  S   UNL     1       3.301  -6.702   0.365  0.00  0.00    -0.155 S 
ATOM      8  C   UNL     1       1.738  -6.631  -0.566  0.00  0.00    +0.074 C 
ATOM      9  C   UNL     1       0.902  -5.473  -0.033  0.00  0.00    +0.047 C 
ENDROOT
BRANCH   1  13
ATOM     10  C   UNL     1      -0.016   1.344   0.009  0.00  0.00    +0.019 A 
ATOM     11  C   UNL     1       1.323   1.786  -0.001  0.00  0.00    +0.019 A 
ATOM     12  C   UNL     1       2.111   0.692  -0.014  0.00  0.00    +0.092 A 
ATOM     13  N   UNL     1       1.306  -0.413  -0.013  0.00  0.00    -0.317 N 
ATOM     14  C   UNL     1       0.002  -0.004   0.002  0.00  0.00    +0.092 A 
ENDBRANCH   1  13
BRANCH   2  15
ATOM     15  C   UNL     1      -0.489  -2.816  -0.019  0.00  0.00    +0.263 C 
ATOM     16  O   UNL     1      -1.103  -2.781  -1.069  0.00  0.00    -0.269 OA
ATOM     17  N   UNL     1      -1.156  -2.794   1.152  0.00  0.00    -0.229 N 
ATOM     18  H   UNL     1      -0.666  -2.822   1.989  0.00  0.00    +0.173 HD
BRANCH  17  19
ATOM     19  N   UNL     1      -2.555  -2.732   1.161  0.00  0.00    -0.218 N 
ATOM     20  C   UNL     1      -3.221  -2.710   2.332  0.00  0.00    +0.316 C 
ATOM     21  O   UNL     1      -4.436  -2.655   2.340  0.00  0.00    -0.251 OA
ATOM     22  N   UNL     1      -2.542  -2.749   3.495  0.00  0.00    -0.298 N 
ATOM     23  H   UNL     1      -3.045  -2.704   0.324  0.00  0.00    +0.174 HD
ATOM     24  H   UNL     1      -1.572  -2.792   3.489  0.00  0.00    +0.150 HD
BRANCH  22  25
ATOM     25  C   UNL     1      -3.266  -2.725   4.768  0.00  0.00    +0.109 C 
BRANCH  25  26
ATOM     26  C   UNL     1      -2.266  -2.778   5.925  0.00  0.00    +0.006 C 
ATOM     27  C   UNL     1      -2.314  -4.000   6.845  0.00  0.00    +0.005 C 
ATOM     28  C   UNL     1      -2.820  -2.645   7.345  0.00  0.00    +0.005 C 
ENDBRANCH  25  26
ENDBRANCH  22  25
ENDBRANCH  17  19
ENDBRANCH   2  15
TORSDOF 5
