REMARK  Name = ZINC12376354
REMARK  6 active torsions:
REMARK  status: ('A' for Active; 'I' for Inactive)
REMARK    1  A    between atoms: C_4  and  C_7
REMARK    2  A    between atoms: C_7  and  C_8
REMARK    3  A    between atoms: C_8  and  N_9
REMARK    4  A    between atoms: C_17  and  C_21
REMARK    5  A    between atoms: C_17  and  N_25
REMARK    6  A    between atoms: C_26  and  C_28
REMARK                            x       y       z     vdW  Elec       q    Type
REMARK                         _______ _______ _______ _____ _____    ______ ____
ROOT
ATOM      1  N   UNL     1       4.542  -2.129   2.014  0.00  0.00    -0.281 N 
ATOM      2  C   UNL     1       4.927  -3.432   1.778  0.00  0.00    +0.120 A 
ATOM      3  C   UNL     1       6.251  -3.690   1.577  0.00  0.00    +0.096 A 
ATOM      4  C   UNL     1       7.185  -2.648   1.613  0.00  0.00    +0.262 A 
ATOM      5  N   UNL     1       6.761  -1.388   1.848  0.00  0.00    -0.275 N 
ATOM      6  C   UNL     1       5.453  -1.141   2.040  0.00  0.00    +0.331 A 
ATOM      7  O   UNL     1       5.087   0.000   2.247  0.00  0.00    -0.246 OA
ATOM      8  O   UNL     1       8.369  -2.876   1.434  0.00  0.00    -0.267 OA
ATOM      9  C   UNL     1       6.371  -5.178   1.346  0.00  0.00    +0.240 C 
ATOM     10  C   UNL     1       4.941  -5.669   1.452  0.00  0.00    +0.256 C 
ATOM     11  O   UNL     1       4.555  -6.812   1.334  0.00  0.00    -0.272 OA
ATOM     12  N   UNL     1       4.185  -4.585   1.702  0.00  0.00    -0.269 N 
ATOM     13  H   UNL     1       7.401  -0.659   1.875  0.00  0.00    +0.173 HD
ATOM     14  H   UNL     1       3.222  -4.615   1.817  0.00  0.00    +0.156 HD
ENDROOT
BRANCH   9  15
ATOM     15  C   UNL     1       6.937  -5.464  -0.046  0.00  0.00    +0.424 C 
ATOM     16  F   UNL     1       8.251  -4.990  -0.121  0.00  0.00    -0.167 F 
ATOM     17  F   UNL     1       6.924  -6.843  -0.281  0.00  0.00    -0.167 F 
ATOM     18  F   UNL     1       6.153  -4.820  -1.009  0.00  0.00    -0.167 F 
ENDBRANCH   9  15
BRANCH   9  19
ATOM     19  N   UNL     1       7.205  -5.795   2.380  0.00  0.00    -0.286 N 
ATOM     20  C   UNL     1       6.893  -5.636   3.682  0.00  0.00    +0.252 C 
ATOM     21  O   UNL     1       5.869  -5.058   3.996  0.00  0.00    -0.270 OA
ATOM     22  H   UNL     1       7.983  -6.317   2.128  0.00  0.00    +0.151 HD
BRANCH  20  23
ATOM     23  C   UNL     1       7.787  -6.158   4.719  0.00  0.00    +0.074 A 
ATOM     24  C   UNL     1       7.651  -6.107   6.098  0.00  0.00    +0.021 A 
ATOM     25  C   UNL     1       8.664  -6.690   6.821  0.00  0.00    +0.008 A 
ATOM     26  C   UNL     1       9.700  -7.262   6.159  0.00  0.00    +0.046 A 
ATOM     27  S   UNL     1       9.330  -7.033   4.537  0.00  0.00    -0.092 S 
ENDBRANCH  20  23
ENDBRANCH   9  19
BRANCH   1  28
ATOM     28  C   UNL     1       3.127  -1.819   2.234  0.00  0.00    +0.133 C 
BRANCH  28  29
ATOM     29  C   UNL     1       2.459  -1.511   0.892  0.00  0.00    +0.057 C 
BRANCH  29  33
ATOM     30  C   UNL     1      -1.667  -0.605   1.530  0.00  0.00    +0.000 A 
ATOM     31  C   UNL     1      -0.725   0.406   1.557  0.00  0.00    +0.000 A 
ATOM     32  C   UNL     1       0.610   0.113   1.350  0.00  0.00    +0.004 A 
ATOM     33  C   UNL     1       1.003  -1.192   1.118  0.00  0.00    -0.046 A 
ATOM     34  C   UNL     1       0.062  -2.203   1.093  0.00  0.00    +0.004 A 
ATOM     35  C   UNL     1      -1.274  -1.910   1.297  0.00  0.00    +0.000 A 
ENDBRANCH  29  33
ENDBRANCH  28  29
ENDBRANCH   1  28
TORSDOF 6
