REMARK  Name = ZINC20873046
REMARK  7 active torsions:
REMARK  status: ('A' for Active; 'I' for Inactive)
REMARK    1  A    between atoms: C_5  and  C_7
REMARK    2  A    between atoms: C_7  and  N_8
REMARK    3  A    between atoms: N_8  and  C_9
REMARK    4  A    between atoms: C_9  and  C_10
REMARK    5  A    between atoms: C_15  and  O_16
REMARK    6  A    between atoms: O_16  and  C_17
REMARK    7  A    between atoms: C_17  and  C_18
REMARK                            x       y       z     vdW  Elec       q    Type
REMARK                         _______ _______ _______ _____ _____    ______ ____
ROOT
ATOM      1  C   UNL     1       1.158   3.173   0.008  0.00  0.00    -0.022 A 
ATOM      2  C   UNL     1      -0.050   3.844   0.023  0.00  0.00    +0.020 A 
ATOM      3  C   UNL     1      -1.237   3.134   0.030  0.00  0.00    +0.018 A 
ATOM      4  C   UNL     1      -1.218   1.751   0.017  0.00  0.00    +0.019 A 
ATOM      5  C   UNL     1      -0.013   1.076   0.008  0.00  0.00    +0.047 A 
ATOM      6  C   UNL     1       1.179   1.786   0.000  0.00  0.00    +0.123 A 
ATOM      7 BR   UNL     1      -2.888   4.055   0.050  0.00  0.00    -0.050 Br
ENDROOT
BRANCH   1   8
ATOM      8  C   UNL     1       2.450   3.947  -0.001  0.00  0.00    -0.043 C 
BRANCH   8   9
ATOM      9  N   UNL     1       2.981   4.000  -1.370  0.00  0.00    +0.384 N 
ATOM     10  H   UNL     1       2.239   4.491  -2.016  0.00  0.00    -0.085 HD
ATOM     11  H   UNL     1       3.151   2.972  -1.722  0.00  0.00    -0.085 HD
BRANCH   9  12
ATOM     12  C   UNL     1       4.243   4.749  -1.417  0.00  0.00    -0.045 C 
BRANCH  12  17
ATOM     13  C   UNL     1       6.224   3.941  -4.527  0.00  0.00    +0.000 A 
ATOM     14  C   UNL     1       5.696   4.842  -5.434  0.00  0.00    +0.001 A 
ATOM     15  C   UNL     1       4.698   5.713  -5.040  0.00  0.00    +0.020 A 
ATOM     16  C   UNL     1       4.227   5.683  -3.740  0.00  0.00    +0.042 A 
ATOM     17  C   UNL     1       4.755   4.782  -2.834  0.00  0.00    -0.046 A 
ATOM     18  C   UNL     1       5.758   3.914  -3.227  0.00  0.00    +0.003 A 
ATOM     19 CL   UNL     1       2.974   6.778  -3.245  0.00  0.00    -0.083 Cl
ENDBRANCH  12  17
ENDBRANCH   9  12
ENDBRANCH   8   9
ENDBRANCH   1   8
BRANCH   6  20
ATOM     20  O   UNL     1       2.366   1.124  -0.015  0.00  0.00    -0.483 OA
BRANCH  20  21
ATOM     21  C   UNL     1       2.312  -0.304  -0.023  0.00  0.00    +0.324 C 
BRANCH  21  22
ATOM     22  C   UNL     1       3.713  -0.859  -0.040  0.00  0.00    +0.248 C 
ATOM     23  O   UNL     1       4.664  -0.106  -0.044  0.00  0.00    -0.272 OA
ATOM     24  N   UNL     1       3.909  -2.192  -0.049  0.00  0.00    -0.327 N 
ATOM     25  H   UNL     1       4.932  -2.598  -0.061  0.00  0.00    +0.145 HD
ATOM     26  H   UNL     1       3.047  -2.875  -0.045  0.00  0.00    +0.145 HD
ENDBRANCH  21  22
ENDBRANCH  20  21
ENDBRANCH   6  20
TORSDOF 7
