REMARK  Name = ZINC39597578
REMARK  7 active torsions:
REMARK  status: ('A' for Active; 'I' for Inactive)
REMARK    1  A    between atoms: C_1  and  O_2
REMARK    2  A    between atoms: O_2  and  C_3
REMARK    3  A    between atoms: C_7  and  C_9
REMARK    4  A    between atoms: C_13  and  C_22
REMARK    5  A    between atoms: N_24  and  C_25
REMARK    6  A    between atoms: C_25  and  C_26
REMARK    7  A    between atoms: C_26  and  C_27
REMARK                            x       y       z     vdW  Elec       q    Type
REMARK                         _______ _______ _______ _____ _____    ______ ____
ROOT
ATOM      1  C   UNL     1      -2.556  -4.142   0.017  0.00  0.00    +0.247 C 
ATOM      2  O   UNL     1      -1.537  -4.795  -0.100  0.00  0.00    -0.270 OA
ATOM      3  N   UNL     1      -3.746  -4.764   0.128  0.00  0.00    -0.296 N 
ATOM      4  C   UNL     1      -5.094  -4.149   0.149  0.00  0.00    +0.121 C 
ATOM      5  C   UNL     1      -5.975  -5.111  -0.680  0.00  0.00    +0.100 C 
ATOM      6  C   UNL     1      -5.254  -6.467  -0.604  0.00  0.00    -0.004 C 
ATOM      7  C   UNL     1      -4.003  -6.219   0.250  0.00  0.00    +0.115 C 
ATOM      8  C   UNL     1      -4.849  -6.929  -2.001  0.00  0.00    -0.010 C 
ATOM      9  C   UNL     1      -4.186  -8.306  -1.905  0.00  0.00    -0.082 C 
ATOM     10  N   UNL     1      -5.123  -9.262  -1.304  0.00  0.00    +0.379 N 
ATOM     11  C   UNL     1      -5.436  -8.860   0.073  0.00  0.00    -0.082 C 
ATOM     12  C   UNL     1      -6.152  -7.506   0.061  0.00  0.00    -0.010 C 
ATOM     13  H   UNL     1      -5.973  -9.285  -1.847  0.00  0.00    -0.086 HD
ATOM     14  H   UNL     1      -4.707 -10.181  -1.298  0.00  0.00    -0.086 HD
ENDROOT
BRANCH   1  19
ATOM     15  C   UNL     1      -3.429  -0.544   0.670  0.00  0.00    +0.121 A 
ATOM     16  C   UNL     1      -2.359   0.104   0.069  0.00  0.00    +0.045 A 
ATOM     17  C   UNL     1      -1.359  -0.625  -0.545  0.00  0.00    +0.004 A 
ATOM     18  C   UNL     1      -1.417  -2.004  -0.565  0.00  0.00    +0.013 A 
ATOM     19  C   UNL     1      -2.489  -2.665   0.036  0.00  0.00    +0.040 A 
ATOM     20  C   UNL     1      -3.495  -1.927   0.661  0.00  0.00    +0.058 A 
BRANCH  15  22
ATOM     21  C   UNL     1      -4.278   1.601   1.244  0.00  0.00    +0.277 C 
ATOM     22  O   UNL     1      -4.410   0.179   1.273  0.00  0.00    -0.495 OA
ENDBRANCH  15  22
ENDBRANCH   1  19
BRANCH   5  23
ATOM     23  C   UNL     1      -7.353  -5.211  -0.078  0.00  0.00    +0.218 C 
ATOM     24  O   UNL     1      -7.517  -4.985   1.102  0.00  0.00    -0.275 OA
ATOM     25  N   UNL     1      -8.403  -5.553  -0.851  0.00  0.00    -0.315 N 
ATOM     26  H   UNL     1      -8.272  -5.734  -1.795  0.00  0.00    +0.149 HD
BRANCH  25  27
ATOM     27  C   UNL     1      -9.742  -5.651  -0.265  0.00  0.00    +0.109 C 
BRANCH  27  28
ATOM     28  C   UNL     1     -10.745  -6.051  -1.349  0.00  0.00    +0.056 C 
BRANCH  28  29
ATOM     29  C   UNL     1     -12.122  -6.152  -0.747  0.00  0.00    -0.021 A 
ATOM     30  C   UNL     1     -13.070  -5.052  -0.551  0.00  0.00    +0.003 A 
ATOM     31  C   UNL     1     -13.037  -3.683  -0.820  0.00  0.00    +0.010 A 
ATOM     32  C   UNL     1     -14.116  -2.904  -0.508  0.00  0.00    +0.001 A 
ATOM     33  C   UNL     1     -15.244  -3.463   0.074  0.00  0.00    +0.002 A 
ATOM     34  C   UNL     1     -15.298  -4.812   0.349  0.00  0.00    +0.026 A 
ATOM     35  C   UNL     1     -14.212  -5.624   0.040  0.00  0.00    +0.047 A 
ATOM     36  N   UNL     1     -13.963  -6.971   0.185  0.00  0.00    -0.360 N 
ATOM     37  C   UNL     1     -12.716  -7.267  -0.294  0.00  0.00    +0.087 A 
ATOM     38  H   UNL     1     -14.581  -7.614   0.566  0.00  0.00    +0.165 HD
ENDBRANCH  28  29
ENDBRANCH  27  28
ENDBRANCH  25  27
ENDBRANCH   5  23
TORSDOF 6
