REMARK  Name = ZINC51164772
REMARK  9 active torsions:
REMARK  status: ('A' for Active; 'I' for Inactive)
REMARK    1  A    between atoms: C_4  and  C_7
REMARK    2  A    between atoms: C_7  and  C_9
REMARK    3  A    between atoms: C_7  and  N_12
REMARK    4  A    between atoms: N_12  and  C_13
REMARK    5  A    between atoms: C_13  and  C_14
REMARK    6  A    between atoms: C_17  and  S_20
REMARK    7  A    between atoms: S_20  and  N_23
REMARK    8  A    between atoms: N_23  and  C_24
REMARK    9  A    between atoms: C_24  and  C_25
REMARK                            x       y       z     vdW  Elec       q    Type
REMARK                         _______ _______ _______ _____ _____    ______ ____
ROOT
ATOM      1  C   UNL     1       4.862  -3.725   1.833  0.00  0.00    -0.064 A 
ATOM      2  C   UNL     1       5.104  -3.585   3.187  0.00  0.00    +0.003 A 
ATOM      3  C   UNL     1       5.027  -4.685   4.020  0.00  0.00    +0.029 A 
ATOM      4  C   UNL     1       4.709  -5.926   3.499  0.00  0.00    +0.105 A 
ATOM      5  C   UNL     1       4.467  -6.065   2.145  0.00  0.00    +0.029 A 
ATOM      6  C   UNL     1       4.539  -4.964   1.313  0.00  0.00    +0.003 A 
ENDROOT
BRANCH   4   7
ATOM      7  S   UNL     1       4.612  -7.329   4.561  0.00  0.00    +0.059 S 
ATOM      8  O   UNL     1       4.833  -8.471   3.745  0.00  0.00    -0.153 OA
ATOM      9  O   UNL     1       5.417  -7.035   5.695  0.00  0.00    -0.153 OA
BRANCH   7  10
ATOM     10  N   UNL     1       3.050  -7.427   5.101  0.00  0.00    -0.183 NA
ATOM     11  H   UNL     1       2.854  -7.307   6.043  0.00  0.00    +0.148 HD
BRANCH  10  12
ATOM     12  C   UNL     1       1.964  -7.697   4.156  0.00  0.00    +0.180 C 
BRANCH  12  13
ATOM     13  C   UNL     1       0.726  -8.099   4.915  0.00  0.00    +0.120 A 
ATOM     14  C   UNL     1      -0.230  -7.264   5.361  0.00  0.00    +0.046 A 
ATOM     15  C   UNL     1      -1.198  -8.060   6.013  0.00  0.00    +0.041 A 
ATOM     16  C   UNL     1      -0.777  -9.335   5.927  0.00  0.00    +0.195 A 
ATOM     17  O   UNL     1       0.386  -9.353   5.256  0.00  0.00    -0.466 OA
ENDBRANCH  12  13
ENDBRANCH  10  12
ENDBRANCH   7  10
ENDBRANCH   4   7
BRANCH   1  18
ATOM     18  C   UNL     1       4.946  -2.525   0.924  0.00  0.00    -0.045 C 
BRANCH  18  19
ATOM     19  N   UNL     1       3.630  -1.877   0.848  0.00  0.00    +0.392 N 
ATOM     20  H   UNL     1       3.346  -1.581   1.770  0.00  0.00    -0.084 HD
ATOM     21  H   UNL     1       2.954  -2.530   0.481  0.00  0.00    -0.084 HD
BRANCH  19  22
ATOM     22  C   UNL     1       3.711  -0.707  -0.038  0.00  0.00    +0.047 C 
BRANCH  22  26
ATOM     23  C   UNL     1      -0.017   1.378   0.010  0.00  0.00    +0.000 A 
ATOM     24  C   UNL     1       1.171   2.086   0.002  0.00  0.00    +0.000 A 
ATOM     25  C   UNL     1       2.377   1.411  -0.013  0.00  0.00    +0.002 A 
ATOM     26  C   UNL     1       2.396   0.029  -0.020  0.00  0.00    -0.053 A 
ATOM     27  C   UNL     1       1.208  -0.679  -0.012  0.00  0.00    +0.002 A 
ATOM     28  C   UNL     1       0.002  -0.004   0.002  0.00  0.00    +0.000 A 
ENDBRANCH  22  26
BRANCH  22  29
ATOM     29  C   UNL     1       4.014  -1.161  -1.442  0.00  0.00    +0.201 C 
ATOM     30  O   UNL     1       4.150  -2.342  -1.682  0.00  0.00    -0.277 OA
ATOM     31  N   UNL     1       4.136  -0.254  -2.432  0.00  0.00    -0.330 N 
ATOM     32  H   UNL     1       4.027   0.691  -2.240  0.00  0.00    +0.145 HD
ATOM     33  H   UNL     1       4.331  -0.546  -3.336  0.00  0.00    +0.145 HD
ENDBRANCH  22  29
ENDBRANCH  19  22
ENDBRANCH  18  19
ENDBRANCH   1  18
TORSDOF 9
