REMARK  Name = ZINC59168292
REMARK  7 active torsions:
REMARK  status: ('A' for Active; 'I' for Inactive)
REMARK    1  A    between atoms: C_1  and  C_2
REMARK    2  A    between atoms: C_2  and  N_3
REMARK    3  A    between atoms: N_3  and  C_4
REMARK    4  A    between atoms: N_3  and  C_6
REMARK    5  A    between atoms: C_4  and  C_5
REMARK    6  A    between atoms: C_9  and  C_12
REMARK    7  A    between atoms: C_16  and  C_21
REMARK                            x       y       z     vdW  Elec       q    Type
REMARK                         _______ _______ _______ _____ _____    ______ ____
ROOT
ATOM      1  C   UNL     1       1.194  -6.134   0.931  0.00  0.00    +0.183 C 
ATOM      2  N   UNL     1       2.499  -6.546   0.348  0.00  0.00    -0.263 N 
ATOM      3  N   UNL     1       3.499  -6.739   1.254  0.00  0.00    -0.220 N 
ATOM      4  C   UNL     1       4.890  -6.776   1.250  0.00  0.00    +0.182 A 
ATOM      5  N   UNL     1       5.285  -7.060   2.465  0.00  0.00    -0.127 NA
ATOM      6  N   UNL     1       4.266  -7.191   3.240  0.00  0.00    -0.120 NA
ATOM      7  C   UNL     1       3.176  -6.989   2.564  0.00  0.00    +0.211 A 
ATOM      8  S   UNL     1       1.397  -6.875   2.608  0.00  0.00    -0.056 S 
ATOM      9  H   UNL     1       2.390  -7.352  -0.248  0.00  0.00    +0.168 HD
ENDROOT
BRANCH   1  13
ATOM     10  C   UNL     1       0.831  -1.882   1.127  0.00  0.00    +0.013 A 
ATOM     11  C   UNL     1      -0.303  -2.670   1.064  0.00  0.00    +0.022 A 
ATOM     12  C   UNL     1      -0.185  -4.046   1.000  0.00  0.00    +0.008 A 
ATOM     13  C   UNL     1       1.066  -4.634   0.999  0.00  0.00    -0.015 A 
ATOM     14  C   UNL     1       2.200  -3.846   1.062  0.00  0.00    +0.008 A 
ATOM     15  C   UNL     1       2.083  -2.470   1.121  0.00  0.00    +0.022 A 
BRANCH  10  16
ATOM     16  N   UNL     1       0.713  -0.491   1.192  0.00  0.00    -0.394 NA
ATOM     17  H   UNL     1       1.632  -0.076   1.228  0.00  0.00    +0.126 HD
BRANCH  16  19
ATOM     18  C   UNL     1      -0.019   1.526   0.010  0.00  0.00    +0.022 C 
ATOM     19  C   UNL     1       0.002  -0.004   0.002  0.00  0.00    +0.081 C 
ENDBRANCH  16  19
BRANCH  16  20
ATOM     20  C   UNL     1      -0.040  -0.119   2.398  0.00  0.00    +0.081 C 
ATOM     21  C   UNL     1       0.760  -0.515   3.640  0.00  0.00    +0.022 C 
ENDBRANCH  16  20
ENDBRANCH  10  16
ENDBRANCH   1  13
BRANCH   4  22
ATOM     22  C   UNL     1       5.764  -6.537   0.082  0.00  0.00    +0.021 A 
ATOM     23  C   UNL     1       5.230  -6.546  -1.208  0.00  0.00    +0.011 A 
ATOM     24  C   UNL     1       6.051  -6.322  -2.293  0.00  0.00    +0.001 A 
ATOM     25  C   UNL     1       7.402  -6.089  -2.106  0.00  0.00    +0.000 A 
ATOM     26  C   UNL     1       7.938  -6.077  -0.830  0.00  0.00    +0.001 A 
ATOM     27  C   UNL     1       7.127  -6.294   0.264  0.00  0.00    +0.011 A 
ENDBRANCH   4  22
TORSDOF 5
