REMARK  Name = ZINC39609073
REMARK  9 active torsions:
REMARK  status: ('A' for Active; 'I' for Inactive)
REMARK    1  A    between atoms: C_1  and  C_2
REMARK    2  A    between atoms: C_2  and  S_3
REMARK    3  A    between atoms: S_3  and  C_4
REMARK    4  A    between atoms: C_5  and  C_10
REMARK    5  A    between atoms: C_14  and  C_23
REMARK    6  A    between atoms: N_25  and  C_26
REMARK    7  A    between atoms: C_31  and  O_33
REMARK    8  A    between atoms: O_33  and  C_34
REMARK    9  A    between atoms: C_34  and  C_35
REMARK                            x       y       z     vdW  Elec       q    Type
REMARK                         _______ _______ _______ _____ _____    ______ ____
ROOT
ATOM      1  C   UNL     1       2.268  -2.360   3.605  0.00  0.00    +0.249 C 
ATOM      2  O   UNL     1       2.465  -1.169   3.750  0.00  0.00    -0.270 OA
ATOM      3  N   UNL     1       2.674  -3.231   4.550  0.00  0.00    -0.296 N 
ATOM      4  C   UNL     1       2.620  -4.711   4.505  0.00  0.00    +0.121 C 
ATOM      5  C   UNL     1       3.944  -5.170   5.157  0.00  0.00    +0.100 C 
ATOM      6  C   UNL     1       4.369  -3.994   6.052  0.00  0.00    -0.004 C 
ATOM      7  C   UNL     1       3.283  -2.924   5.867  0.00  0.00    +0.115 C 
ATOM      8  C   UNL     1       4.432  -4.436   7.511  0.00  0.00    -0.010 C 
ATOM      9  C   UNL     1       4.913  -3.266   8.374  0.00  0.00    -0.082 C 
ATOM     10  N   UNL     1       6.238  -2.829   7.916  0.00  0.00    +0.379 N 
ATOM     11  C   UNL     1       6.149  -2.319   6.543  0.00  0.00    -0.082 C 
ATOM     12  C   UNL     1       5.721  -3.449   5.602  0.00  0.00    -0.010 C 
ATOM     13  H   UNL     1       6.579  -2.099   8.524  0.00  0.00    -0.086 HD
ATOM     14  H   UNL     1       6.875  -3.611   7.943  0.00  0.00    -0.086 HD
ENDROOT
BRANCH   1  16
ATOM     15  C   UNL     1       1.790  -2.228   1.152  0.00  0.00    +0.109 A 
ATOM     16  C   UNL     1       1.583  -2.852   2.396  0.00  0.00    +0.069 A 
ATOM     17  C   UNL     1       0.717  -3.948   2.463  0.00  0.00    +0.017 A 
ATOM     18  C   UNL     1       0.099  -4.371   1.300  0.00  0.00    +0.020 A 
ATOM     19  C   UNL     1       0.352  -3.706   0.113  0.00  0.00    +0.112 A 
ATOM     20  N   UNL     1       1.168  -2.671   0.070  0.00  0.00    -0.248 NA
BRANCH  15  21
ATOM     21  S   UNL     1       2.875  -0.844   1.035  0.00  0.00    -0.105 S 
BRANCH  21  23
ATOM     22  C   UNL     1       3.725   0.818  -0.964  0.00  0.00    +0.015 C 
ATOM     23  C   UNL     1       2.814  -0.387  -0.719  0.00  0.00    +0.072 C 
ENDBRANCH  21  23
ENDBRANCH  15  21
ENDBRANCH   1  16
BRANCH   5  24
ATOM     24  C   UNL     1       4.986  -5.431   4.101  0.00  0.00    +0.218 C 
ATOM     25  O   UNL     1       4.966  -4.807   3.061  0.00  0.00    -0.275 OA
ATOM     26  N   UNL     1       5.940  -6.359   4.311  0.00  0.00    -0.310 N 
ATOM     27  H   UNL     1       5.956  -6.859   5.142  0.00  0.00    +0.149 HD
BRANCH  26  28
ATOM     28  C   UNL     1       6.954  -6.614   3.284  0.00  0.00    +0.102 C 
ATOM     29  C   UNL     1       6.437  -7.662   2.282  0.00  0.00    +0.025 C 
ATOM     30  C   UNL     1       7.411  -8.857   2.354  0.00  0.00    +0.004 C 
ATOM     31  C   UNL     1       8.727  -8.243   2.892  0.00  0.00    +0.033 C 
ATOM     32  C   UNL     1       8.223  -7.207   3.929  0.00  0.00    +0.139 C 
BRANCH  32  33
ATOM     33  O   UNL     1       9.202  -6.187   4.135  0.00  0.00    -0.370 OA
BRANCH  33  34
ATOM     34  C   UNL     1      10.058  -6.421   5.256  0.00  0.00    +0.195 C 
BRANCH  34  35
ATOM     35  C   UNL     1      11.046  -5.290   5.378  0.00  0.00    -0.022 A 
ATOM     36  C   UNL     1      12.261  -5.359   4.723  0.00  0.00    +0.006 A 
ATOM     37  C   UNL     1      13.167  -4.322   4.836  0.00  0.00    +0.000 A 
ATOM     38  C   UNL     1      12.858  -3.214   5.603  0.00  0.00    +0.000 A 
ATOM     39  C   UNL     1      11.643  -3.144   6.257  0.00  0.00    +0.000 A 
ATOM     40  C   UNL     1      10.735  -4.180   6.141  0.00  0.00    +0.006 A 
ENDBRANCH  34  35
ENDBRANCH  33  34
ENDBRANCH  32  33
ENDBRANCH  26  28
ENDBRANCH   5  24
TORSDOF 8
