REMARK  Name = ZINC39532503
REMARK  8 active torsions:
REMARK  status: ('A' for Active; 'I' for Inactive)
REMARK    1  A    between atoms: C_1  and  C_2
REMARK    2  A    between atoms: C_2  and  O_3
REMARK    3  A    between atoms: O_3  and  C_4
REMARK    4  A    between atoms: C_9  and  C_10
REMARK    5  A    between atoms: C_13  and  C_19
REMARK    6  A    between atoms: C_15  and  C_18
REMARK    7  A    between atoms: C_19  and  N_20
REMARK    8  A    between atoms: C_25  and  C_27
REMARK                            x       y       z     vdW  Elec       q    Type
REMARK                         _______ _______ _______ _____ _____    ______ ____
ROOT
ATOM      1  C   UNL     1       3.218  -2.111  -6.866  0.00  0.00    -0.056 C 
ENDROOT
BRANCH   1   4
ATOM      2  C   UNL     1       2.223  -1.005  -3.520  0.00  0.00    +0.222 C 
ATOM      3  N   UNL     1       3.079  -1.843  -4.399  0.00  0.00    -0.284 NA
ATOM      4  C   UNL     1       2.973  -1.141  -5.708  0.00  0.00    +0.068 C 
ATOM      5  C   UNL     1       1.512  -0.641  -5.707  0.00  0.00    +0.133 C 
ATOM      6  O   UNL     1       1.105  -0.604  -4.329  0.00  0.00    -0.353 OA
ATOM      7  C   UNL     1       1.435   0.760  -6.317  0.00  0.00    +0.039 C 
ATOM      8  H   UNL     1       4.033  -1.854  -4.070  0.00  0.00    +0.125 HD
BRANCH   2  14
ATOM      9  C   UNL     1       1.181  -1.168  -1.245  0.00  0.00    +0.127 A 
ATOM     10  C   UNL     1       0.740  -1.911  -0.160  0.00  0.00    +0.046 A 
ATOM     11  C   UNL     1       0.869  -3.286  -0.168  0.00  0.00    +0.004 A 
ATOM     12  C   UNL     1       1.438  -3.922  -1.256  0.00  0.00    +0.001 A 
ATOM     13  C   UNL     1       1.880  -3.184  -2.338  0.00  0.00    +0.011 A 
ATOM     14  C   UNL     1       1.748  -1.809  -2.338  0.00  0.00    +0.037 A 
BRANCH   9  15
ATOM     15  O   UNL     1       1.055   0.185  -1.240  0.00  0.00    -0.492 OA
BRANCH  15  17
ATOM     16  C   UNL     1       0.405   2.296  -0.259  0.00  0.00    +0.048 C 
ATOM     17  C   UNL     1       0.463   0.777  -0.082  0.00  0.00    +0.225 C 
ENDBRANCH  15  17
ENDBRANCH   9  15
ENDBRANCH   2  14
ENDBRANCH   1   4
BRANCH   1  18
ATOM     18  N   UNL     1       4.556  -2.703  -6.734  0.00  0.00    +0.387 N 
ATOM     19  C   UNL     1       4.531  -3.739  -5.695  0.00  0.00    -0.078 C 
ATOM     20  C   UNL     1       5.940  -4.303  -5.497  0.00  0.00    -0.019 C 
ATOM     21  C   UNL     1       6.430  -4.911  -6.814  0.00  0.00    -0.003 C 
ATOM     22  C   UNL     1       6.381  -3.840  -7.908  0.00  0.00    -0.008 C 
ATOM     23  C   UNL     1       4.956  -3.294  -8.017  0.00  0.00    -0.001 C 
ATOM     24  H   UNL     1       5.216  -1.986  -6.475  0.00  0.00    -0.081 HD
BRANCH  23  25
ATOM     25  C   UNL     1       4.903  -2.240  -9.093  0.00  0.00    +0.095 A 
ATOM     26  N   UNL     1       4.727  -2.488 -10.418  0.00  0.00    -0.343 N 
ATOM     27  H   UNL     1       4.614  -3.359 -10.830  0.00  0.00    +0.167 HD
ATOM     28  C   UNL     1       4.737  -1.270 -11.069  0.00  0.00    +0.066 A 
ATOM     29  C   UNL     1       4.606  -0.882 -12.395  0.00  0.00    +0.028 A 
ATOM     30  C   UNL     1       4.663   0.456 -12.723  0.00  0.00    +0.002 A 
ATOM     31  C   UNL     1       4.851   1.415 -11.738  0.00  0.00    +0.002 A 
ATOM     32  C   UNL     1       4.982   1.051 -10.428  0.00  0.00    +0.030 A 
ATOM     33  C   UNL     1       4.926  -0.299 -10.071  0.00  0.00    +0.089 A 
ATOM     34  N   UNL     1       5.015  -0.960  -8.888  0.00  0.00    -0.234 NA
ENDBRANCH  23  25
ENDBRANCH   1  18
TORSDOF 6
