REMARK  Name = ZINC12801142
REMARK  8 active torsions:
REMARK  status: ('A' for Active; 'I' for Inactive)
REMARK    1  A    between atoms: C_1  and  C_2
REMARK    2  A    between atoms: C_11  and  O_13
REMARK    3  A    between atoms: O_13  and  C_14
REMARK    4  A    between atoms: C_14  and  C_16
REMARK    5  A    between atoms: C_14  and  C_17
REMARK    6  A    between atoms: N_19  and  C_20
REMARK    7  A    between atoms: C_20  and  C_21
REMARK    8  A    between atoms: N_23  and  C_24
REMARK                            x       y       z     vdW  Elec       q    Type
REMARK                         _______ _______ _______ _____ _____    ______ ____
ROOT
ATOM      1  C   UNL     1       3.893   7.510   0.421  0.00  0.00    +0.254 C 
ATOM      2  O   UNL     1       2.961   8.286   0.444  0.00  0.00    -0.272 OA
ATOM      3  N   UNL     1       3.664   6.186   0.308  0.00  0.00    -0.304 N 
ATOM      4  H   UNL     1       4.409   5.565   0.291  0.00  0.00    +0.149 HD
ENDROOT
BRANCH   1   5
ATOM      5  C   UNL     1       5.306   8.024   0.520  0.00  0.00    +0.255 C 
ATOM      6  C   UNL     1       6.048   7.729  -0.784  0.00  0.00    +0.062 C 
BRANCH   5   7
ATOM      7  O   UNL     1       5.284   9.435   0.748  0.00  0.00    -0.480 OA
BRANCH   7  18
ATOM      8  C   UNL     1       9.874  13.166   3.450  0.00  0.00    +0.045 C 
ATOM      9  C   UNL     1       9.744  11.677   3.258  0.00  0.00    -0.033 A 
ATOM     10  C   UNL     1      10.714  10.830   3.692  0.00  0.00    +0.096 A 
ATOM     11  C   UNL     1      10.570   9.441   3.500  0.00  0.00    +0.337 A 
ATOM     12  O   UNL     1      11.447   8.693   3.893  0.00  0.00    -0.245 OA
ATOM     13  O   UNL     1       9.491   8.921   2.895  0.00  0.00    -0.422 OA
ATOM     14  C   UNL     1       8.490   9.706   2.441  0.00  0.00    +0.143 A 
ATOM     15  C   UNL     1       8.569  11.102   2.599  0.00  0.00    +0.021 A 
ATOM     16  C   UNL     1       7.535  11.920   2.129  0.00  0.00    +0.015 A 
ATOM     17  C   UNL     1       6.452  11.359   1.518  0.00  0.00    +0.046 A 
ATOM     18  C   UNL     1       6.368   9.978   1.358  0.00  0.00    +0.125 A 
ATOM     19  C   UNL     1       7.380   9.153   1.822  0.00  0.00    +0.092 A 
ENDBRANCH   7  18
ENDBRANCH   5   7
ENDBRANCH   1   5
BRANCH   3  20
ATOM     20  C   UNL     1       2.290   5.686   0.212  0.00  0.00    +0.200 C 
BRANCH  20  21
ATOM     21  C   UNL     1       2.310   4.184   0.096  0.00  0.00    +0.234 C 
ATOM     22  O   UNL     1       3.367   3.589   0.093  0.00  0.00    -0.274 OA
ATOM     23  N   UNL     1       1.153   3.500  -0.006  0.00  0.00    -0.282 N 
ATOM     24  H   UNL     1       0.313   3.978  -0.087  0.00  0.00    +0.155 HD
BRANCH  23  25
ATOM     25  C   UNL     1       1.163   2.099   0.005  0.00  0.00    +0.072 A 
ATOM     26  C   UNL     1       2.208   1.416   0.611  0.00  0.00    +0.029 A 
ATOM     27  C   UNL     1       2.218   0.035   0.622  0.00  0.00    +0.043 A 
ATOM     28  C   UNL     1       1.187  -0.671   0.027  0.00  0.00    +0.161 A 
ATOM     29  C   UNL     1       0.141   0.006  -0.580  0.00  0.00    +0.195 A 
ATOM     30  C   UNL     1       0.127   1.391  -0.593  0.00  0.00    +0.182 A 
ATOM     31  F   UNL     1      -0.889   2.052  -1.189  0.00  0.00    -0.200 F 
ATOM     32  F   UNL     1      -0.865  -0.685  -1.161  0.00  0.00    -0.199 F 
ATOM     33  F   UNL     1       1.199  -2.022   0.038  0.00  0.00    -0.202 F 
ENDBRANCH  23  25
ENDBRANCH  20  21
ENDBRANCH   3  20
TORSDOF 6
