REMARK  Name = ZINC09420582
REMARK  6 active torsions:
REMARK  status: ('A' for Active; 'I' for Inactive)
REMARK    1  A    between atoms: C_1  and  C_2
REMARK    2  A    between atoms: C_4  and  C_32
REMARK    3  A    between atoms: C_11  and  C_13
REMARK    4  A    between atoms: C_19  and  C_25
REMARK    5  A    between atoms: C_22  and  O_24
REMARK    6  A    between atoms: C_29  and  O_31
REMARK                            x       y       z     vdW  Elec       q    Type
REMARK                         _______ _______ _______ _____ _____    ______ ____
ROOT
ATOM      1  C   UNL     1       0.023   1.504   0.011  0.00  0.00    +0.066 C 
ATOM      2  C   UNL     1       0.068  -0.003   0.003  0.00  0.00    +0.044 A 
ATOM      3  C   UNL     1       0.125  -0.697  -1.196  0.00  0.00    +0.046 A 
ATOM      4  C   UNL     1       0.165  -2.082  -1.157  0.00  0.00    +0.044 A 
ATOM      5  N   UNL     1       0.148  -2.695   0.014  0.00  0.00    -0.216 NA
ATOM      6  C   UNL     1       0.093  -2.002   1.141  0.00  0.00    +0.254 A 
ATOM      7  N   UNL     1       0.058  -0.679   1.140  0.00  0.00    -0.216 NA
ATOM      8  N   UNL     1       0.075  -2.681   2.356  0.00  0.00    -0.179 N 
ATOM      9  C   UNL     1       0.015  -2.115   3.587  0.00  0.00    +0.167 A 
ATOM     10  C   UNL     1       0.009  -3.135   4.510  0.00  0.00    +0.032 A 
ATOM     11  C   UNL     1       0.076  -4.343   3.818  0.00  0.00    +0.099 A 
ATOM     12  N   UNL     1       0.111  -4.075   2.525  0.00  0.00    -0.162 NA
ATOM     13  C   UNL     1      -0.069  -2.863   5.991  0.00  0.00    +0.064 C 
ATOM     14  C   UNL     1       0.586  -1.501   6.249  0.00  0.00    +0.108 C 
ATOM     15  C   UNL     1       0.183  -0.496   5.208  0.00  0.00    +0.190 C 
ATOM     16  N   UNL     1      -0.054  -0.807   3.969  0.00  0.00    -0.197 NA
ATOM     17  C   UNL     1       0.227  -2.879  -2.435  0.00  0.00    +0.066 C 
ENDROOT
BRANCH  11  18
ATOM     18  C   UNL     1       0.099  -5.696   4.429  0.00  0.00    +0.002 A 
ATOM     19  C   UNL     1      -0.651  -6.728   3.869  0.00  0.00    +0.010 A 
ATOM     20  C   UNL     1      -0.626  -7.984   4.440  0.00  0.00    +0.001 A 
ATOM     21  C   UNL     1       0.141  -8.219   5.567  0.00  0.00    +0.000 A 
ATOM     22  C   UNL     1       0.887  -7.198   6.127  0.00  0.00    +0.001 A 
ATOM     23  C   UNL     1       0.874  -5.939   5.560  0.00  0.00    +0.010 A 
ENDBRANCH  11  18
BRANCH  13  24
ATOM     24  C   UNL     1      -1.510  -2.830   6.430  0.00  0.00    -0.036 A 
ATOM     25  C   UNL     1      -2.380  -1.909   5.876  0.00  0.00    +0.004 A 
ATOM     26  C   UNL     1      -3.703  -1.876   6.276  0.00  0.00    +0.004 A 
ATOM     27  C   UNL     1      -4.159  -2.764   7.232  0.00  0.00    +0.045 A 
ATOM     28  C   UNL     1      -3.288  -3.688   7.789  0.00  0.00    +0.117 A 
ATOM     29  C   UNL     1      -1.963  -3.724   7.381  0.00  0.00    +0.049 A 
BRANCH  28  30
ATOM     30  O   UNL     1      -3.735  -4.562   8.730  0.00  0.00    -0.507 OA
ATOM     31  H   UNL     1      -4.071  -5.393   8.366  0.00  0.00    +0.292 HD
ENDBRANCH  28  30
ENDBRANCH  13  24
BRANCH  15  32
ATOM     32  O   UNL     1       0.060   0.795   5.579  0.00  0.00    -0.495 OA
ATOM     33  H   UNL     1      -0.202   1.387   4.861  0.00  0.00    +0.293 HD
ENDBRANCH  15  32
TORSDOF 4
