REMARK  Name = ZINC36249728
REMARK  15 active torsions:
REMARK  status: ('A' for Active; 'I' for Inactive)
REMARK    1  A    between atoms: C_1  and  C_2
REMARK    2  A    between atoms: C_2  and  C_3
REMARK    3  A    between atoms: C_2  and  C_4
REMARK    4  A    between atoms: C_4  and  O_5
REMARK    5  A    between atoms: O_5  and  C_6
REMARK    6  A    between atoms: C_6  and  C_7
REMARK    7  A    between atoms: C_7  and  C_9
REMARK    8  A    between atoms: C_7  and  O_37
REMARK    9  A    between atoms: C_9  and  N_10
REMARK   10  A    between atoms: N_10  and  C_11
REMARK   11  A    between atoms: N_10  and  C_30
REMARK   12  A    between atoms: C_11  and  C_12
REMARK   13  A    between atoms: C_13  and  C_23
REMARK   14  A    between atoms: C_16  and  N_17
REMARK   15  A    between atoms: C_30  and  C_31
REMARK                            x       y       z     vdW  Elec       q    Type
REMARK                         _______ _______ _______ _____ _____    ______ ____
ROOT
ATOM      1  C   UNL     1      -5.101  -6.676  -0.949  0.00  0.00    -0.035 C 
ENDROOT
BRANCH   1   2
ATOM      2  C   UNL     1      -5.724  -6.028  -2.159  0.00  0.00    +0.025 A 
ATOM      3  C   UNL     1      -6.441  -4.813  -2.172  0.00  0.00    +0.117 A 
ATOM      4  N   UNL     1      -6.822  -4.582  -3.407  0.00  0.00    -0.076 NA
ATOM      5  O   UNL     1      -6.356  -5.647  -4.216  0.00  0.00    -0.339 OA
ATOM      6  C   UNL     1      -5.688  -6.506  -3.428  0.00  0.00    +0.222 A 
BRANCH   3   7
ATOM      7  C   UNL     1      -6.717  -3.949  -0.997  0.00  0.00    +0.004 A 
ATOM      8  C   UNL     1      -7.106  -4.519   0.213  0.00  0.00    +0.013 A 
ATOM      9  C   UNL     1      -7.361  -3.713   1.304  0.00  0.00    +0.039 A 
ATOM     10  C   UNL     1      -7.231  -2.338   1.196  0.00  0.00    +0.123 A 
ATOM     11  C   UNL     1      -6.845  -1.766  -0.006  0.00  0.00    +0.039 A 
ATOM     12  C   UNL     1      -6.582  -2.566  -1.099  0.00  0.00    +0.013 A 
ATOM     13  F   UNL     1      -7.482  -1.551   2.265  0.00  0.00    -0.205 F 
ENDBRANCH   3   7
BRANCH   6  14
ATOM     14  N   UNL     1      -5.074  -7.675  -3.839  0.00  0.00    -0.295 N 
ATOM     15  C   UNL     1      -5.828  -8.936  -3.928  0.00  0.00    +0.136 C 
ATOM     16  C   UNL     1      -5.579  -9.552  -5.310  0.00  0.00    +0.179 C 
ATOM     17  O   UNL     1      -4.170  -9.636  -5.540  0.00  0.00    -0.377 OA
ATOM     18  C   UNL     1      -3.505  -8.371  -5.568  0.00  0.00    +0.179 C 
ATOM     19  C   UNL     1      -3.649  -7.694  -4.205  0.00  0.00    +0.136 C 
ENDBRANCH   6  14
ENDBRANCH   1   2
BRANCH   1  20
ATOM     20  N   UNL     1      -3.677  -6.321  -0.882  0.00  0.00    +0.386 N 
ATOM     21  H   UNL     1      -3.226  -6.573  -1.749  0.00  0.00    -0.081 HD
BRANCH  20  22
ATOM     22  C   UNL     1      -3.543  -4.875  -0.662  0.00  0.00    -0.044 C 
BRANCH  22  23
ATOM     23  C   UNL     1      -2.064  -4.486  -0.717  0.00  0.00    +0.124 C 
BRANCH  23  24
ATOM     24  O   UNL     1      -1.559  -4.716  -2.033  0.00  0.00    -0.391 OA
ATOM     25  H   UNL     1      -2.012  -4.212  -2.723  0.00  0.00    +0.210 HD
ENDBRANCH  23  24
BRANCH  23  26
ATOM     26  C   UNL     1      -1.914  -3.004  -0.365  0.00  0.00    +0.189 C 
BRANCH  26  27
ATOM     27  O   UNL     1      -0.526  -2.668  -0.302  0.00  0.00    -0.377 OA
BRANCH  27  28
ATOM     28  C   UNL     1      -0.273  -1.300   0.022  0.00  0.00    +0.163 C 
BRANCH  28  30
ATOM     29  C   UNL     1       1.506   0.434   0.285  0.00  0.00    +0.009 C 
ATOM     30  C   UNL     1       1.236  -1.055   0.062  0.00  0.00    +0.009 C 
ATOM     31  C   UNL     1       1.853  -1.862   1.206  0.00  0.00    +0.009 C 
ENDBRANCH  28  30
ENDBRANCH  27  28
ENDBRANCH  26  27
ENDBRANCH  23  26
ENDBRANCH  22  23
ENDBRANCH  20  22
BRANCH  20  32
ATOM     32  C   UNL     1      -3.044  -7.045   0.228  0.00  0.00    -0.046 C 
BRANCH  32  33
ATOM     33  C   UNL     1      -3.052  -8.546  -0.072  0.00  0.00    +0.102 C 
ATOM     34  C   UNL     1      -2.401  -9.317   1.097  0.00  0.00    +0.032 C 
ATOM     35  C   UNL     1      -1.593 -10.417   0.356  0.00  0.00    +0.030 C 
ATOM     36  C   UNL     1      -1.164  -9.655  -0.924  0.00  0.00    +0.160 C 
ATOM     37  O   UNL     1      -2.281  -8.810  -1.250  0.00  0.00    -0.378 OA
ENDBRANCH  32  33
ENDBRANCH  20  32
ENDBRANCH   1  20
TORSDOF 13
