REMARK  Name = ZINC13075519
REMARK  12 active torsions:
REMARK  status: ('A' for Active; 'I' for Inactive)
REMARK    1  A    between atoms: C_1  and  C_2
REMARK    2  A    between atoms: C_2  and  C_3
REMARK    3  A    between atoms: C_3  and  C_5
REMARK    4  A    between atoms: C_3  and  N_12
REMARK    5  A    between atoms: C_8  and  C_11
REMARK    6  A    between atoms: C_13  and  C_15
REMARK    7  A    between atoms: C_15  and  S_16
REMARK    8  A    between atoms: S_16  and  C_17
REMARK    9  A    between atoms: C_20  and  C_29
REMARK   10  A    between atoms: N_21  and  C_22
REMARK   11  A    between atoms: C_29  and  C_31
REMARK   12  A    between atoms: C_29  and  N_69
REMARK                            x       y       z     vdW  Elec       q    Type
REMARK                         _______ _______ _______ _____ _____    ______ ____
ROOT
ATOM      1  C   UNL     1      -2.467   7.741   0.030  0.00  0.00    +0.197 A 
ATOM      2  N   UNL     1      -1.490   8.250   0.745  0.00  0.00    -0.122 NA
ATOM      3  N   UNL     1      -1.545   9.533   0.711  0.00  0.00    -0.135 NA
ATOM      4  C   UNL     1      -2.551   9.920  -0.021  0.00  0.00    +0.125 A 
ATOM      5  N   UNL     1      -3.174   8.792  -0.487  0.00  0.00    -0.275 N 
ENDROOT
BRANCH   5   6
ATOM      6  C   UNL     1      -4.302   8.729  -1.318  0.00  0.00    +0.050 A 
ATOM      7  C   UNL     1      -4.237   9.212  -2.617  0.00  0.00    +0.029 A 
ATOM      8  C   UNL     1      -5.347   9.143  -3.436  0.00  0.00    +0.040 A 
ATOM      9  C   UNL     1      -6.529   8.603  -2.957  0.00  0.00    +0.124 A 
ATOM     10  C   UNL     1      -6.598   8.126  -1.659  0.00  0.00    +0.040 A 
ATOM     11  C   UNL     1      -5.488   8.188  -0.839  0.00  0.00    +0.029 A 
ATOM     12  F   UNL     1      -7.616   8.541  -3.757  0.00  0.00    -0.205 F 
ENDBRANCH   5   6
BRANCH   4  13
ATOM     13  C   UNL     1      -2.952  11.344  -0.307  0.00  0.00    -0.002 C 
ATOM     14  C   UNL     1      -1.982  11.954  -1.321  0.00  0.00    -0.005 C 
BRANCH  13  20
ATOM     15  C   UNL     1      -3.758  11.510   1.970  0.00  0.00    -0.078 C 
ATOM     16  C   UNL     1      -3.580  12.262   3.290  0.00  0.00    -0.019 C 
ATOM     17  C   UNL     1      -3.968  13.730   3.093  0.00  0.00    -0.004 C 
ATOM     18  C   UNL     1      -3.107  14.332   1.979  0.00  0.00    -0.019 C 
ATOM     19  C   UNL     1      -3.299  13.520   0.697  0.00  0.00    -0.078 C 
ATOM     20  N   UNL     1      -2.884  12.123   0.947  0.00  0.00    +0.386 N 
ATOM     21  H   UNL     1      -1.916  12.119   1.290  0.00  0.00    -0.081 HD
ENDBRANCH  13  20
ENDBRANCH   4  13
BRANCH   1  22
ATOM     22  S   UNL     1      -2.801   6.030  -0.222  0.00  0.00    -0.076 S 
BRANCH  22  23
ATOM     23  C   UNL     1      -1.460   5.301   0.752  0.00  0.00    +0.173 C 
BRANCH  23  25
ATOM     24  N   UNL     1      -0.645   3.040   1.336  0.00  0.00    -0.308 N 
ATOM     25  C   UNL     1      -1.547   3.799   0.682  0.00  0.00    +0.224 C 
ATOM     26  O   UNL     1      -2.428   3.272   0.036  0.00  0.00    -0.275 OA
ATOM     27  H   UNL     1       0.060   3.462   1.852  0.00  0.00    +0.149 HD
BRANCH  24  28
ATOM     28  C   UNL     1      -0.729   1.579   1.267  0.00  0.00    +0.103 C 
BRANCH  28  29
ATOM     29  C   UNL     1      -0.074   0.981   2.485  0.00  0.00    -0.027 A 
ATOM     30  C   UNL     1       1.100   1.522   2.975  0.00  0.00    +0.006 A 
ATOM     31  C   UNL     1       1.698   0.976   4.095  0.00  0.00    +0.004 A 
ATOM     32  C   UNL     1       1.129  -0.118   4.719  0.00  0.00    -0.050 A 
ATOM     33  C   UNL     1      -0.042  -0.664   4.225  0.00  0.00    +0.004 A 
ATOM     34  C   UNL     1      -0.643  -0.114   3.108  0.00  0.00    +0.006 A 
ATOM     35  C   UNL     1       1.784  -0.718   5.936  0.00  0.00    +0.044 C 
ENDBRANCH  28  29
BRANCH  28  37
ATOM     36  C   UNL     1      -0.753   1.593  -1.232  0.00  0.00    +0.006 C 
ATOM     37  C   UNL     1      -0.013   1.086   0.008  0.00  0.00    +0.024 C 
ENDBRANCH  28  37
ENDBRANCH  24  28
ENDBRANCH  23  25
ENDBRANCH  22  23
ENDBRANCH   1  22
TORSDOF 9
