REMARK  Name = ZINC05906902
REMARK  7 active torsions:
REMARK  status: ('A' for Active; 'I' for Inactive)
REMARK    1  A    between atoms: C_1  and  C_2
REMARK    2  A    between atoms: C_7  and  C_15
REMARK    3  A    between atoms: C_13  and  C_14
REMARK    4  A    between atoms: C_15  and  N_16
REMARK    5  A    between atoms: N_16  and  C_17
REMARK    6  A    between atoms: C_17  and  C_18
REMARK    7  A    between atoms: N_25  and  C_26
REMARK                            x       y       z     vdW  Elec       q    Type
REMARK                         _______ _______ _______ _____ _____    ______ ____
ROOT
ATOM      1  N   UNL     1       1.479  -6.850   1.326  0.00  0.00    -0.276 N 
ATOM      2  C   UNL     1       2.211  -7.094   0.221  0.00  0.00    +0.303 C 
ATOM      3  O   UNL     1       1.724  -6.927  -0.880  0.00  0.00    -0.253 OA
ATOM      4  N   UNL     1       3.484  -7.523   0.338  0.00  0.00    -0.296 N 
ATOM      5  H   UNL     1       3.872  -7.655   1.216  0.00  0.00    +0.151 HD
ENDROOT
BRANCH   4   6
ATOM      6  C   UNL     1       4.280  -7.788  -0.863  0.00  0.00    +0.074 C 
ATOM      7  C   UNL     1       4.001  -9.209  -1.356  0.00  0.00    +0.022 C 
ATOM      8  C   UNL     1       4.832  -9.486  -2.610  0.00  0.00    +0.002 C 
ATOM      9  C   UNL     1       6.319  -9.345  -2.278  0.00  0.00    +0.000 C 
ATOM     10  C   UNL     1       6.598  -7.923  -1.785  0.00  0.00    +0.002 C 
ATOM     11  C   UNL     1       5.766  -7.646  -0.531  0.00  0.00    +0.022 C 
ENDBRANCH   4   6
BRANCH   1  12
ATOM     12  C   UNL     1       0.096  -6.383   1.200  0.00  0.00    +0.150 C 
BRANCH  12  19
ATOM     13  C   UNL     1      -0.018   1.503   0.010  0.00  0.00    +0.044 C 
ATOM     14  C   UNL     1       0.002  -0.004   0.002  0.00  0.00    -0.046 A 
ATOM     15  C   UNL     1       0.006  -0.684  -1.208  0.00  0.00    +0.004 A 
ATOM     16  C   UNL     1       0.024  -2.050  -1.238  0.00  0.00    +0.010 A 
ATOM     17  C   UNL     1       0.040  -2.769  -0.039  0.00  0.00    -0.001 A 
ATOM     18  C   UNL     1       0.060  -4.233  -0.034  0.00  0.00    +0.020 A 
ATOM     19  C   UNL     1       0.075  -4.877   1.159  0.00  0.00    +0.035 A 
ATOM     20  C   UNL     1       0.070  -4.142   2.364  0.00  0.00    +0.254 A 
ATOM     21  O   UNL     1       0.084  -4.740   3.426  0.00  0.00    -0.268 OA
ATOM     22  N   UNL     1       0.052  -2.797   2.370  0.00  0.00    -0.322 N 
ATOM     23  H   UNL     1       0.050  -2.323   3.216  0.00  0.00    +0.169 HD
ATOM     24  C   UNL     1       0.036  -2.083   1.190  0.00  0.00    +0.052 A 
ATOM     25  C   UNL     1       0.023  -0.692   1.196  0.00  0.00    -0.024 A 
ATOM     26  C   UNL     1       0.025   0.059   2.502  0.00  0.00    +0.046 C 
ENDBRANCH  12  19
ENDBRANCH   1  12
BRANCH   1  27
ATOM     27  C   UNL     1       2.066  -7.050   2.653  0.00  0.00    +0.152 C 
BRANCH  27  28
ATOM     28  C   UNL     1       1.813  -8.466   3.105  0.00  0.00    +0.007 A 
ATOM     29  C   UNL     1       2.577  -9.570   2.920  0.00  0.00    +0.013 A 
ATOM     30  C   UNL     1       2.143 -10.779   3.430  0.00  0.00    +0.008 A 
ATOM     31  C   UNL     1       0.965 -10.825   4.099  0.00  0.00    +0.045 A 
ATOM     32  S   UNL     1       0.434  -9.122   4.030  0.00  0.00    -0.100 S 
ENDBRANCH  27  28
ENDBRANCH   1  27
TORSDOF 5
