REMARK  Name = ZINC66305930
REMARK  11 active torsions:
REMARK  status: ('A' for Active; 'I' for Inactive)
REMARK    1  A    between atoms: C_1  and  C_2
REMARK    2  A    between atoms: C_2  and  C_3
REMARK    3  A    between atoms: C_3  and  N_4
REMARK    4  A    between atoms: C_5  and  C_7
REMARK    5  A    between atoms: C_7  and  N_8
REMARK    6  A    between atoms: C_11  and  N_14
REMARK    7  A    between atoms: C_15  and  C_17
REMARK    8  A    between atoms: C_17  and  C_18
REMARK    9  A    between atoms: C_21  and  C_28
REMARK   10  A    between atoms: C_24  and  C_26
REMARK   11  A    between atoms: C_24  and  C_27
REMARK                            x       y       z     vdW  Elec       q    Type
REMARK                         _______ _______ _______ _____ _____    ______ ____
ROOT
ATOM      1  N   UNL     1       2.029  -4.603  -3.502  0.00  0.00    +0.385 N 
ATOM      2  C   UNL     1       3.436  -4.188  -3.457  0.00  0.00    -0.076 C 
ATOM      3  C   UNL     1       4.138  -4.608  -4.750  0.00  0.00    +0.003 C 
ATOM      4  C   UNL     1       4.058  -6.131  -4.896  0.00  0.00    +0.069 C 
ATOM      5  C   UNL     1       2.588  -6.560  -4.867  0.00  0.00    +0.003 C 
ATOM      6  C   UNL     1       1.944  -6.067  -3.569  0.00  0.00    -0.076 C 
ATOM      7  H   UNL     1       1.588  -4.204  -4.317  0.00  0.00    -0.081 HD
ENDROOT
BRANCH   4   8
ATOM      8  N   UNL     1       4.660  -6.533  -6.170  0.00  0.00    -0.313 N 
ATOM      9  C   UNL     1       5.163  -7.775  -6.314  0.00  0.00    +0.213 C 
ATOM     10  O   UNL     1       5.117  -8.560  -5.391  0.00  0.00    -0.276 OA
ATOM     11  H   UNL     1       4.697  -5.906  -6.908  0.00  0.00    +0.149 HD
BRANCH   9  12
ATOM     12  C   UNL     1       5.783  -8.189  -7.624  0.00  0.00    +0.099 C 
BRANCH  12  13
ATOM     13  C   UNL     1       6.271  -9.635  -7.522  0.00  0.00    -0.002 C 
ATOM     14  C   UNL     1       7.402  -9.721  -6.495  0.00  0.00    +0.007 C 
ATOM     15  C   UNL     1       7.890 -11.167  -6.393  0.00  0.00    -0.013 C 
ATOM     16  C   UNL     1       8.406 -11.629  -7.758  0.00  0.00    +0.009 C 
ATOM     17  C   UNL     1       7.276 -11.543  -8.786  0.00  0.00    -0.034 C 
ATOM     18  C   UNL     1       6.787 -10.097  -8.887  0.00  0.00    +0.010 C 
ATOM     19  C   UNL     1       6.118 -12.443  -8.347  0.00  0.00    +0.011 C 
ATOM     20  C   UNL     1       7.791 -12.004 -10.150  0.00  0.00    +0.011 C 
ATOM     21  C   UNL     1       9.020 -11.253  -5.366  0.00  0.00    +0.007 C 
ENDBRANCH  12  13
ENDBRANCH   9  12
ENDBRANCH   4   8
BRANCH   1  22
ATOM     22  C   UNL     1       1.341  -4.130  -2.293  0.00  0.00    +0.019 C 
BRANCH  22  24
ATOM     23  N   UNL     1       0.738  -1.962  -1.265  0.00  0.00    -0.317 N 
ATOM     24  C   UNL     1       1.321  -2.623  -2.285  0.00  0.00    +0.196 C 
ATOM     25  O   UNL     1       1.829  -2.004  -3.196  0.00  0.00    -0.278 OA
ATOM     26  H   UNL     1       0.332  -2.457  -0.536  0.00  0.00    +0.149 HD
BRANCH  23  27
ATOM     27  C   UNL     1       0.718  -0.497  -1.257  0.00  0.00    +0.104 C 
BRANCH  27  29
ATOM     28  C   UNL     1      -0.019   1.526   0.010  0.00  0.00    +0.005 C 
ATOM     29  C   UNL     1       0.002  -0.004   0.002  0.00  0.00    +0.015 C 
ENDBRANCH  27  29
ENDBRANCH  23  27
ENDBRANCH  22  24
ENDBRANCH   1  22
TORSDOF 7
