REMARK  Name = ZINC00263213
REMARK  8 active torsions:
REMARK  status: ('A' for Active; 'I' for Inactive)
REMARK    1  A    between atoms: C_1  and  C_2
REMARK    2  A    between atoms: C_5  and  O_6
REMARK    3  A    between atoms: C_7  and  C_9
REMARK    4  A    between atoms: C_9  and  C_10
REMARK    5  A    between atoms: C_10  and  C_11
REMARK    6  A    between atoms: N_13  and  N_14
REMARK    7  A    between atoms: C_15  and  C_16
REMARK    8  A    between atoms: C_25  and  O_26
REMARK                            x       y       z     vdW  Elec       q    Type
REMARK                         _______ _______ _______ _____ _____    ______ ____
ROOT
ATOM      1  C   UNL     1       1.378   0.322  -4.464  0.00  0.00    +0.233 C 
ATOM      2  O   UNL     1       0.317   0.497  -5.025  0.00  0.00    -0.274 OA
ATOM      3  N   UNL     1       2.533   0.547  -5.120  0.00  0.00    -0.207 N 
ATOM      4  H   UNL     1       3.381   0.407  -4.671  0.00  0.00    +0.177 HD
ENDROOT
BRANCH   3   5
ATOM      5  N   UNL     1       2.509   0.984  -6.452  0.00  0.00    -0.188 NA
ATOM      6  C   UNL     1       3.623   1.201  -7.085  0.00  0.00    +0.142 C 
BRANCH   6   7
ATOM      7  C   UNL     1       3.597   1.659  -8.481  0.00  0.00    +0.044 A 
ATOM      8  C   UNL     1       4.840   1.902  -9.210  0.00  0.00    -0.006 A 
ATOM      9  C   UNL     1       6.090   1.709  -8.609  0.00  0.00    +0.009 A 
ATOM     10  C   UNL     1       7.226   1.947  -9.324  0.00  0.00    +0.001 A 
ATOM     11  C   UNL     1       7.161   2.380 -10.646  0.00  0.00    +0.001 A 
ATOM     12  C   UNL     1       5.963   2.578 -11.261  0.00  0.00    +0.008 A 
ATOM     13  C   UNL     1       4.771   2.342 -10.554  0.00  0.00    -0.017 A 
ATOM     14  C   UNL     1       3.515   2.535 -11.157  0.00  0.00    +0.012 A 
ATOM     15  C   UNL     1       2.369   2.303 -10.465  0.00  0.00    +0.046 A 
ATOM     16  C   UNL     1       2.386   1.865  -9.141  0.00  0.00    +0.126 A 
BRANCH  16  17
ATOM     17  O   UNL     1       1.216   1.641  -8.489  0.00  0.00    -0.506 OA
ATOM     18  H   UNL     1       0.870   2.416  -8.025  0.00  0.00    +0.292 HD
ENDBRANCH  16  17
ENDBRANCH   6   7
ENDBRANCH   3   5
BRANCH   1  19
ATOM     19  C   UNL     1       1.404  -0.148  -3.032  0.00  0.00    +0.102 C 
BRANCH  19  20
ATOM     20  C   UNL     1      -0.029  -0.325  -2.527  0.00  0.00    +0.051 C 
BRANCH  20  26
ATOM     21  C   UNL     1      -0.018   1.503   0.010  0.00  0.00    +0.065 C 
ATOM     22  C   UNL     1       0.002  -0.004   0.002  0.00  0.00    +0.040 A 
ATOM     23  N   UNL     1       0.023  -0.805   1.088  0.00  0.00    -0.278 N 
ATOM     24  N   UNL     1       0.036  -2.134   0.647  0.00  0.00    -0.136 NA
ATOM     25  C   UNL     1       0.024  -2.130  -0.664  0.00  0.00    +0.235 A 
ATOM     26  C   UNL     1      -0.003  -0.795  -1.095  0.00  0.00    +0.036 A 
ATOM     27  H   UNL     1       0.028  -0.511   2.013  0.00  0.00    +0.189 HD
BRANCH  25  28
ATOM     28  O   UNL     1       0.030  -3.228  -1.467  0.00  0.00    -0.491 OA
ATOM     29  H   UNL     1      -0.851  -3.557  -1.690  0.00  0.00    +0.294 HD
ENDBRANCH  25  28
ENDBRANCH  20  26
ENDBRANCH  19  20
ENDBRANCH   1  19
TORSDOF 7
