REMARK  Name = ZINC09730372
REMARK  6 active torsions:
REMARK  status: ('A' for Active; 'I' for Inactive)
REMARK    1  A    between atoms: C_1  and  C_2
REMARK    2  A    between atoms: C_3  and  C_34
REMARK    3  A    between atoms: N_20  and  C_21
REMARK    4  A    between atoms: C_21  and  C_22
REMARK    5  A    between atoms: C_22  and  C_24
REMARK    6  A    between atoms: C_22  and  N_59
REMARK                            x       y       z     vdW  Elec       q    Type
REMARK                         _______ _______ _______ _____ _____    ______ ____
ROOT
ATOM      1  C   UNL     1      -0.579   9.917   0.525  0.00  0.00    +0.045 C 
ATOM      2  C   UNL     1       0.531   8.909   0.675  0.00  0.00    -0.026 A 
ATOM      3  C   UNL     1       1.803   9.314   0.810  0.00  0.00    -0.008 A 
ATOM      4  S   UNL     1       2.713   7.788   0.949  0.00  0.00    -0.073 S 
ATOM      5  C   UNL     1       1.360   6.647   0.822  0.00  0.00    +0.116 A 
ATOM      6  C   UNL     1       0.235   7.487   0.674  0.00  0.00    +0.077 A 
ATOM      7  C   UNL     1      -1.022   6.825   0.546  0.00  0.00    +0.283 A 
ATOM      8  O   UNL     1      -2.046   7.474   0.415  0.00  0.00    -0.265 OA
ATOM      9  N   UNL     1      -1.073   5.476   0.572  0.00  0.00    -0.175 N 
ATOM     10  C   UNL     1       0.072   4.742   0.719  0.00  0.00    +0.167 A 
ATOM     11  N   UNL     1       1.250   5.331   0.840  0.00  0.00    -0.220 NA
ATOM     12  C   UNL     1      -0.017   3.276   0.743  0.00  0.00    +0.030 A 
ATOM     13  C   UNL     1       1.114   2.474   0.890  0.00  0.00    +0.012 A 
ATOM     14  C   UNL     1       0.976   1.103   0.905  0.00  0.00    +0.001 A 
ATOM     15  C   UNL     1      -0.275   0.515   0.776  0.00  0.00    +0.001 A 
ATOM     16  C   UNL     1      -1.405   1.290   0.624  0.00  0.00    +0.012 A 
ATOM     17  C   UNL     1      -1.290   2.679   0.611  0.00  0.00    +0.027 A 
ATOM     18  C   UNL     1      -2.461   3.552   0.458  0.00  0.00    +0.148 A 
ATOM     19  N   UNL     1      -2.317   4.848   0.444  0.00  0.00    -0.146 NA
ATOM     20  N   UNL     1      -3.725   2.995   0.327  0.00  0.00    -0.328 N 
ATOM     21  C   UNL     1       2.335  10.724   0.838  0.00  0.00    +0.052 C 
ATOM     22  H   UNL     1      -3.834   2.031   0.337  0.00  0.00    +0.147 HD
ENDROOT
BRANCH  20  23
ATOM     23  C   UNL     1      -4.895   3.863   0.173  0.00  0.00    +0.093 C 
BRANCH  23  24
ATOM     24  C   UNL     1      -6.141   3.003  -0.049  0.00  0.00    -0.013 C 
BRANCH  24  30
ATOM     25  C   UNL     1      -5.584   2.840  -2.400  0.00  0.00    -0.049 C 
ATOM     26  C   UNL     1      -5.297   1.853  -3.535  0.00  0.00    +0.141 C 
ATOM     27  O   UNL     1      -6.428   0.996  -3.712  0.00  0.00    -0.383 OA
ATOM     28  C   UNL     1      -6.776   0.252  -2.542  0.00  0.00    +0.141 C 
ATOM     29  C   UNL     1      -7.079   1.223  -1.398  0.00  0.00    -0.049 C 
ATOM     30  N   UNL     1      -5.893   2.076  -1.173  0.00  0.00    +0.389 N 
ATOM     31  H   UNL     1      -5.091   1.478  -0.942  0.00  0.00    -0.081 HD
ENDBRANCH  24  30
BRANCH  24  32
ATOM     32  C   UNL     1      -6.426   2.201   1.194  0.00  0.00    -0.022 A 
ATOM     33  C   UNL     1      -7.324   2.444   2.181  0.00  0.00    +0.009 A 
ATOM     34  C   UNL     1      -7.415   1.557   3.237  0.00  0.00    +0.008 A 
ATOM     35  C   UNL     1      -6.597   0.477   3.262  0.00  0.00    +0.045 A 
ATOM     36  S   UNL     1      -5.663   0.687   1.755  0.00  0.00    -0.103 S 
ENDBRANCH  24  32
ENDBRANCH  23  24
ENDBRANCH  20  23
TORSDOF 4
