REMARK  Name = ZINC12477698
REMARK  7 active torsions:
REMARK  status: ('A' for Active; 'I' for Inactive)
REMARK    1  A    between atoms: C_6  and  C_7
REMARK    2  A    between atoms: C_7  and  C_8
REMARK    3  A    between atoms: C_8  and  N_9
REMARK    4  A    between atoms: C_10  and  C_12
REMARK    5  A    between atoms: C_12  and  C_13
REMARK    6  A    between atoms: N_20  and  C_21
REMARK    7  A    between atoms: C_21  and  C_22
REMARK                            x       y       z     vdW  Elec       q    Type
REMARK                         _______ _______ _______ _____ _____    ______ ____
ROOT
ATOM      1  C   UNL     1      -5.182  -3.204  -3.910  0.00  0.00    +0.028 C 
ATOM      2  C   UNL     1      -6.565  -3.785  -4.000  0.00  0.00    +0.200 C 
ATOM      3  O   UNL     1      -7.409  -3.403  -3.218  0.00  0.00    -0.278 OA
ATOM      4  N   UNL     1      -6.902  -4.707  -4.909  0.00  0.00    -0.318 N 
ATOM      5  C   UNL     1      -5.948  -5.248  -5.874  0.00  0.00    +0.085 C 
ATOM      6  C   UNL     1      -4.728  -4.330  -5.970  0.00  0.00    -0.059 C 
ATOM      7  N   UNL     1      -4.226  -4.069  -4.613  0.00  0.00    +0.389 N 
ATOM      8  H   UNL     1      -7.817  -5.029  -4.929  0.00  0.00    +0.149 HD
ATOM      9  H   UNL     1      -4.128  -4.940  -4.114  0.00  0.00    -0.081 HD
ENDROOT
BRANCH   1  10
ATOM     10  C   UNL     1      -4.776  -3.090  -2.439  0.00  0.00    +0.089 C 
BRANCH  10  12
ATOM     11  N   UNL     1      -4.378  -4.618  -0.535  0.00  0.00    -0.315 N 
ATOM     12  C   UNL     1      -4.818  -4.453  -1.798  0.00  0.00    +0.212 C 
ATOM     13  O   UNL     1      -5.249  -5.402  -2.419  0.00  0.00    -0.276 OA
ATOM     14  H   UNL     1      -4.034  -3.859  -0.038  0.00  0.00    +0.149 HD
BRANCH  11  15
ATOM     15  C   UNL     1      -4.420  -5.943   0.088  0.00  0.00    +0.109 C 
BRANCH  15  16
ATOM     16  C   UNL     1      -3.867  -5.855   1.512  0.00  0.00    +0.054 C 
BRANCH  16  22
ATOM     17  C   UNL     1      -2.829  -8.072   2.033  0.00  0.00    +0.006 A 
ATOM     18  C   UNL     1      -2.867  -9.322   2.620  0.00  0.00    +0.038 A 
ATOM     19  C   UNL     1      -3.988  -9.720   3.328  0.00  0.00    +0.123 A 
ATOM     20  C   UNL     1      -5.070  -8.865   3.447  0.00  0.00    +0.038 A 
ATOM     21  C   UNL     1      -5.030  -7.615   2.859  0.00  0.00    +0.006 A 
ATOM     22  C   UNL     1      -3.910  -7.218   2.152  0.00  0.00    -0.046 A 
ATOM     23  F   UNL     1      -4.027 -10.943   3.902  0.00  0.00    -0.205 F 
ENDBRANCH  16  22
ENDBRANCH  15  16
ENDBRANCH  11  15
ENDBRANCH  10  12
ENDBRANCH   1  10
BRANCH   7  24
ATOM     24  C   UNL     1      -2.922  -3.397  -4.694  0.00  0.00    -0.074 C 
BRANCH  24  25
ATOM     25  C   UNL     1      -1.889  -4.359  -5.283  0.00  0.00    -0.028 C 
ATOM     26  C   UNL     1      -1.680  -5.533  -4.325  0.00  0.00    +0.002 C 
ATOM     27  C   UNL     1      -0.646  -6.495  -4.915  0.00  0.00    +0.000 C 
ATOM     28  C   UNL     1       0.680  -5.758  -5.115  0.00  0.00    +0.000 C 
ATOM     29  C   UNL     1       0.471  -4.584  -6.073  0.00  0.00    +0.000 C 
ATOM     30  C   UNL     1      -0.563  -3.622  -5.484  0.00  0.00    +0.002 C 
ENDBRANCH  24  25
ENDBRANCH   7  24
TORSDOF 7
