REMARK  Name = ZINC66281091
REMARK  7 active torsions:
REMARK  status: ('A' for Active; 'I' for Inactive)
REMARK    1  A    between atoms: C_1  and  C_2
REMARK    2  A    between atoms: C_5  and  C_12
REMARK    3  A    between atoms: C_8  and  C_10
REMARK    4  A    between atoms: C_8  and  C_11
REMARK    5  A    between atoms: C_12  and  C_13
REMARK    6  A    between atoms: N_15  and  C_16
REMARK    7  A    between atoms: C_19  and  N_22
REMARK                            x       y       z     vdW  Elec       q    Type
REMARK                         _______ _______ _______ _____ _____    ______ ____
ROOT
ATOM      1  C   UNL     1      -4.346  -0.145   0.146  0.00  0.00    +0.217 C 
ATOM      2  O   UNL     1      -3.833   0.822  -0.377  0.00  0.00    -0.275 OA
ATOM      3  N   UNL     1      -5.622  -0.469  -0.141  0.00  0.00    -0.285 N 
ATOM      4  H   UNL     1      -6.012  -1.277   0.227  0.00  0.00    +0.155 HD
ENDROOT
BRANCH   3   5
ATOM      5  C   UNL     1      -6.387   0.363  -0.970  0.00  0.00    +0.033 A 
ATOM      6  C   UNL     1      -7.745   0.525  -0.729  0.00  0.00    +0.025 A 
ATOM      7  C   UNL     1      -8.498   1.344  -1.546  0.00  0.00    +0.025 A 
ATOM      8  C   UNL     1      -7.897   2.006  -2.609  0.00  0.00    +0.038 A 
ATOM      9  C   UNL     1      -6.539   1.844  -2.849  0.00  0.00    +0.025 A 
ATOM     10  C   UNL     1      -5.785   1.030  -2.029  0.00  0.00    +0.025 A 
BRANCH   8  11
ATOM     11  N   UNL     1      -8.662   2.837  -3.438  0.00  0.00    -0.254 N 
ATOM     12  C   UNL     1      -8.180   3.496  -4.662  0.00  0.00    +0.134 C 
ATOM     13  C   UNL     1      -9.409   4.273  -5.171  0.00  0.00    +0.125 C 
ATOM     14  N   UNL     1     -10.453   3.969  -4.181  0.00  0.00    -0.297 N 
ATOM     15  C   UNL     1      -9.949   3.152  -3.247  0.00  0.00    +0.307 C 
ATOM     16  O   UNL     1     -10.601   2.737  -2.308  0.00  0.00    -0.252 OA
ATOM     17  H   UNL     1     -11.363   4.304  -4.203  0.00  0.00    +0.150 HD
ENDBRANCH   8  11
ENDBRANCH   3   5
BRANCH   1  18
ATOM     18  C   UNL     1      -3.556  -0.984   1.117  0.00  0.00    +0.099 C 
BRANCH  18  22
ATOM     19  C   UNL     1      -0.037   1.569   0.065  0.00  0.00    +0.007 C 
ATOM     20  C   UNL     1      -0.003   0.042   0.034  0.00  0.00    -0.013 C 
ATOM     21  C   UNL     1      -1.412  -0.524  -0.071  0.00  0.00    +0.007 C 
ATOM     22  C   UNL     1      -2.144  -0.403   1.264  0.00  0.00    -0.002 C 
ATOM     23  C   UNL     1      -1.382  -1.200   2.320  0.00  0.00    +0.010 C 
ATOM     24  C   UNL     1       0.024  -0.642   2.509  0.00  0.00    -0.034 C 
ATOM     25  C   UNL     1       0.782  -0.526   1.199  0.00  0.00    +0.009 C 
ATOM     26  C   UNL     1      -0.039   0.707   3.229  0.00  0.00    +0.011 C 
ATOM     27  C   UNL     1       0.798  -1.617   3.423  0.00  0.00    +0.011 C 
ENDBRANCH  18  22
ENDBRANCH   1  18
TORSDOF 4
