REMARK  Name = ZINC39508820
REMARK  4 active torsions:
REMARK  status: ('A' for Active; 'I' for Inactive)
REMARK    1  A    between atoms: C_1  and  C_2
REMARK    2  A    between atoms: C_8  and  C_10
REMARK    3  A    between atoms: N_12  and  C_13
REMARK    4  A    between atoms: C_23  and  C_26
REMARK                            x       y       z     vdW  Elec       q    Type
REMARK                         _______ _______ _______ _____ _____    ______ ____
ROOT
ATOM      1  C   UNL     1      -1.902  -0.209   4.523  0.00  0.00    +0.090 C 
ATOM      2  C   UNL     1      -3.234  -0.949   4.374  0.00  0.00    +0.025 C 
ATOM      3  C   UNL     1      -4.261  -0.354   5.340  0.00  0.00    +0.021 C 
ATOM      4  C   UNL     1      -3.766  -0.534   6.779  0.00  0.00    +0.106 C 
ATOM      5  N   UNL     1      -2.422   0.048   6.893  0.00  0.00    -0.313 N 
ATOM      6  C   UNL     1      -1.381  -0.387   5.952  0.00  0.00    +0.128 C 
ATOM      7  C   UNL     1      -2.140   0.994   7.872  0.00  0.00    +0.121 A 
ATOM      8  C   UNL     1      -3.063   1.231   8.887  0.00  0.00    +0.044 A 
ATOM      9  C   UNL     1      -2.770   2.174   9.855  0.00  0.00    +0.017 A 
ATOM     10  C   UNL     1      -1.560   2.851   9.776  0.00  0.00    +0.073 A 
ATOM     11  C   UNL     1      -0.691   2.565   8.742  0.00  0.00    +0.125 A 
ATOM     12  N   UNL     1      -0.995   1.656   7.835  0.00  0.00    -0.240 NA
ENDROOT
BRANCH   1  15
ATOM     13  C   UNL     1      -0.891  -0.302   2.308  0.00  0.00    +0.229 C 
ATOM     14  O   UNL     1      -1.662   0.563   1.952  0.00  0.00    -0.275 OA
ATOM     15  N   UNL     1      -0.929  -0.759   3.575  0.00  0.00    -0.310 N 
ATOM     16  H   UNL     1      -0.312  -1.451   3.861  0.00  0.00    +0.149 HD
BRANCH  13  24
ATOM     17  C   UNL     1       1.851   0.590   2.577  0.00  0.00    +0.040 C 
ATOM     18  C   UNL     1       1.306   0.035   1.286  0.00  0.00    -0.050 C 
ATOM     19  C   UNL     1       1.903   0.356   0.150  0.00  0.00    +0.023 C 
ATOM     20  C   UNL     1       1.380  -0.171  -1.127  0.00  0.00    +0.026 C 
ATOM     21  N   UNL     1       0.082  -0.695  -1.154  0.00  0.00    -0.285 N 
ATOM     22  C   UNL     1      -0.544  -1.005  -0.009  0.00  0.00    +0.233 C 
ATOM     23  O   UNL     1      -1.684  -1.417  -0.061  0.00  0.00    -0.274 OA
ATOM     24  C   UNL     1       0.110  -0.867   1.333  0.00  0.00    +0.186 C 
ATOM     25  C   UNL     1       2.130  -0.148  -2.232  0.00  0.00    +0.033 C 
ATOM     26  H   UNL     1      -0.366  -0.833  -2.003  0.00  0.00    +0.155 HD
ENDBRANCH  13  24
ENDBRANCH   1  15
BRANCH  10  27
ATOM     27  C   UNL     1      -1.199   3.888  10.809  0.00  0.00    +0.419 C 
ATOM     28  F   UNL     1      -0.517   3.275  11.866  0.00  0.00    -0.166 F 
ATOM     29  F   UNL     1      -0.379   4.860  10.227  0.00  0.00    -0.166 F 
ATOM     30  F   UNL     1      -2.365   4.490  11.293  0.00  0.00    -0.166 F 
ENDBRANCH  10  27
TORSDOF 3
