REMARK  Name = ZINC13033623
REMARK  12 active torsions:
REMARK  status: ('A' for Active; 'I' for Inactive)
REMARK    1  A    between atoms: C_1  and  O_2
REMARK    2  A    between atoms: O_2  and  C_3
REMARK    3  A    between atoms: C_7  and  C_17
REMARK    4  A    between atoms: C_14  and  O_15
REMARK    5  A    between atoms: O_15  and  C_16
REMARK    6  A    between atoms: C_17  and  N_64
REMARK    7  A    between atoms: C_18  and  C_19
REMARK    8  A    between atoms: C_18  and  N_64
REMARK    9  A    between atoms: C_25  and  C_26
REMARK   10  A    between atoms: C_25  and  N_64
REMARK   11  A    between atoms: N_30  and  C_31
REMARK   12  A    between atoms: C_31  and  C_32
REMARK                            x       y       z     vdW  Elec       q    Type
REMARK                         _______ _______ _______ _____ _____    ______ ____
ROOT
ATOM      1  N   UNL     1      -5.011   3.546  -1.765  0.00  0.00    +0.390 N 
ATOM      2  H   UNL     1      -4.211   3.743  -2.378  0.00  0.00    -0.080 HD
ENDROOT
BRANCH   1   3
ATOM      3  C   UNL     1      -4.601   3.752  -0.360  0.00  0.00    -0.036 C 
BRANCH   3   8
ATOM      4  C   UNL     1       1.465   2.591   0.152  0.00  0.00    +0.162 A 
ATOM      5  C   UNL     1       0.348   3.360  -0.090  0.00  0.00    +0.059 A 
ATOM      6  C   UNL     1      -0.925   2.790   0.033  0.00  0.00    +0.002 A 
ATOM      7  C   UNL     1      -2.131   3.578  -0.217  0.00  0.00    +0.017 A 
ATOM      8  C   UNL     1      -3.339   2.970  -0.101  0.00  0.00    +0.001 A 
ATOM      9  C   UNL     1      -3.419   1.613   0.272  0.00  0.00    +0.251 A 
ATOM     10  O   UNL     1      -4.515   1.090   0.381  0.00  0.00    -0.268 OA
ATOM     11  N   UNL     1      -2.317   0.881   0.511  0.00  0.00    -0.322 N 
ATOM     12  H   UNL     1      -2.408  -0.050   0.766  0.00  0.00    +0.169 HD
ATOM     13  C   UNL     1      -1.058   1.435   0.398  0.00  0.00    +0.053 A 
ATOM     14  C   UNL     1       0.079   0.676   0.644  0.00  0.00    +0.075 A 
ATOM     15  C   UNL     1       1.331   1.248   0.520  0.00  0.00    +0.163 A 
BRANCH   4  17
ATOM     16  C   UNL     1       2.770   4.516  -0.345  0.00  0.00    +0.277 C 
ATOM     17  O   UNL     1       2.704   3.140   0.034  0.00  0.00    -0.491 OA
ENDBRANCH   4  17
BRANCH  15  18
ATOM     18  O   UNL     1       2.440   0.500   0.757  0.00  0.00    -0.491 OA
ATOM     19  C   UNL     1       2.235  -0.864   1.129  0.00  0.00    +0.277 C 
ENDBRANCH  15  18
ENDBRANCH   3   8
ENDBRANCH   1   3
BRANCH   1  20
ATOM     20  C   UNL     1      -5.436   2.145  -1.966  0.00  0.00    -0.040 C 
BRANCH  20  21
ATOM     21  C   UNL     1      -5.725   1.929  -3.430  0.00  0.00    -0.046 A 
ATOM     22  C   UNL     1      -7.025   2.000  -3.907  0.00  0.00    +0.005 A 
ATOM     23  C   UNL     1      -7.243   1.799  -5.261  0.00  0.00    +0.020 A 
ATOM     24  C   UNL     1      -6.166   1.527  -6.083  0.00  0.00    +0.111 A 
ATOM     25  N   UNL     1      -4.943   1.462  -5.594  0.00  0.00    -0.263 NA
ATOM     26  C   UNL     1      -4.698   1.652  -4.312  0.00  0.00    +0.112 A 
ENDBRANCH  20  21
ENDBRANCH   1  20
BRANCH   1  27
ATOM     27  C   UNL     1      -6.117   4.465  -2.109  0.00  0.00    +0.001 C 
BRANCH  27  28
ATOM     28  C   UNL     1      -5.584   5.874  -2.145  0.00  0.00    +0.135 A 
ATOM     29  N   UNL     1      -5.582   6.735  -1.157  0.00  0.00    -0.115 NA
ATOM     30  N   UNL     1      -5.041   7.825  -1.581  0.00  0.00    -0.023 NA
ATOM     31  N   UNL     1      -4.705   7.684  -2.816  0.00  0.00    -0.044 NA
ATOM     32  N   UNL     1      -5.023   6.494  -3.200  0.00  0.00    -0.227 N 
BRANCH  32  33
ATOM     33  C   UNL     1      -4.813   5.925  -4.533  0.00  0.00    +0.182 C 
BRANCH  33  34
ATOM     34  C   UNL     1      -5.984   6.271  -5.417  0.00  0.00    -0.026 A 
ATOM     35  C   UNL     1      -7.072   5.421  -5.485  0.00  0.00    +0.008 A 
ATOM     36  C   UNL     1      -8.149   5.740  -6.291  0.00  0.00    +0.038 A 
ATOM     37  C   UNL     1      -8.132   6.905  -7.040  0.00  0.00    +0.123 A 
ATOM     38  C   UNL     1      -7.038   7.752  -6.975  0.00  0.00    +0.038 A 
ATOM     39  C   UNL     1      -5.965   7.434  -6.164  0.00  0.00    +0.008 A 
ATOM     40  F   UNL     1      -9.181   7.215  -7.832  0.00  0.00    -0.205 F 
ENDBRANCH  33  34
ENDBRANCH  32  33
ENDBRANCH  27  28
ENDBRANCH   1  27
TORSDOF 10
