REMARK  Name = ZINC39684327
REMARK  9 active torsions:
REMARK  status: ('A' for Active; 'I' for Inactive)
REMARK    1  A    between atoms: C_1  and  C_2
REMARK    2  A    between atoms: C_2  and  C_4
REMARK    3  A    between atoms: C_2  and  N_8
REMARK    4  A    between atoms: C_4  and  C_5
REMARK    5  A    between atoms: C_4  and  C_6
REMARK    6  A    between atoms: C_4  and  C_7
REMARK    7  A    between atoms: C_9  and  C_11
REMARK    8  A    between atoms: C_22  and  C_24
REMARK    9  A    between atoms: C_30  and  C_32
REMARK                            x       y       z     vdW  Elec       q    Type
REMARK                         _______ _______ _______ _____ _____    ______ ____
ROOT
ATOM      1  C   UNL     1       0.780  -1.133   3.576  0.00  0.00    +0.100 C 
ATOM      2  C   UNL     1       1.189  -2.611   3.392  0.00  0.00    +0.121 C 
ATOM      3  N   UNL     1       1.007  -3.220   4.731  0.00  0.00    -0.299 N 
ATOM      4  C   UNL     1      -0.237  -2.602   5.250  0.00  0.00    +0.115 C 
ATOM      5  C   UNL     1      -0.156  -1.131   4.797  0.00  0.00    -0.004 C 
ATOM      6  C   UNL     1       0.429  -0.267   5.910  0.00  0.00    -0.010 C 
ATOM      7  C   UNL     1      -0.546  -0.235   7.090  0.00  0.00    -0.082 C 
ATOM      8  N   UNL     1      -1.836   0.308   6.647  0.00  0.00    +0.379 N 
ATOM      9  C   UNL     1      -2.435  -0.578   5.643  0.00  0.00    -0.082 C 
ATOM     10  C   UNL     1      -1.540  -0.625   4.401  0.00  0.00    -0.010 C 
ATOM     11  C   UNL     1       1.794  -4.130   5.338  0.00  0.00    +0.236 C 
ATOM     12  O   UNL     1       1.508  -4.536   6.445  0.00  0.00    -0.274 OA
ATOM     13  H   UNL     1      -2.457   0.385   7.439  0.00  0.00    -0.086 HD
ATOM     14  H   UNL     1      -1.694   1.223   6.245  0.00  0.00    -0.086 HD
ENDROOT
BRANCH  11  15
ATOM     15  C   UNL     1       3.028  -4.643   4.643  0.00  0.00    +0.162 C 
ATOM     16  C   UNL     1       2.640  -5.735   3.623  0.00  0.00    +0.033 C 
ATOM     17  C   UNL     1       3.795  -6.763   3.759  0.00  0.00    +0.021 C 
ATOM     18  C   UNL     1       4.104  -6.685   5.275  0.00  0.00    +0.109 C 
ATOM     19  N   UNL     1       3.935  -5.259   5.622  0.00  0.00    -0.283 N 
ATOM     20  C   UNL     1       4.514  -4.626   6.663  0.00  0.00    +0.320 C 
ATOM     21  O   UNL     1       4.300  -3.447   6.850  0.00  0.00    -0.266 OA
BRANCH  20  22
ATOM     22  C   UNL     1       5.426  -5.385   7.592  0.00  0.00    +0.470 C 
ATOM     23  F   UNL     1       5.901  -4.521   8.585  0.00  0.00    -0.162 F 
ATOM     24  F   UNL     1       4.718  -6.434   8.187  0.00  0.00    -0.162 F 
ATOM     25  F   UNL     1       6.505  -5.901   6.868  0.00  0.00    -0.162 F 
ENDBRANCH  20  22
ENDBRANCH  11  15
BRANCH   1  27
ATOM     26  N   UNL     1       0.108   0.671   2.023  0.00  0.00    -0.312 N 
ATOM     27  C   UNL     1       0.051  -0.633   2.355  0.00  0.00    +0.218 C 
ATOM     28  O   UNL     1      -0.587  -1.406   1.672  0.00  0.00    -0.275 OA
ATOM     29  H   UNL     1       0.619   1.289   2.570  0.00  0.00    +0.149 HD
BRANCH  26  31
ATOM     30  C   UNL     1      -2.054   1.464   1.200  0.00  0.00    +0.028 C 
ATOM     31  C   UNL     1      -0.600   1.157   0.836  0.00  0.00    +0.075 C 
BRANCH  31  32
ATOM     32  C   UNL     1       0.077   2.429   0.323  0.00  0.00    -0.020 C 
ATOM     33  C   UNL     1       0.040   3.502   1.413  0.00  0.00    +0.012 C 
ATOM     34  C   UNL     1       1.531   2.122  -0.041  0.00  0.00    +0.012 C 
ATOM     35  C   UNL     1      -0.663   2.936  -0.917  0.00  0.00    +0.012 C 
ENDBRANCH  31  32
ENDBRANCH  26  31
ENDBRANCH   1  27
TORSDOF 5
