REMARK  Name = ZINC64178634
REMARK  7 active torsions:
REMARK  status: ('A' for Active; 'I' for Inactive)
REMARK    1  A    between atoms: C_1  and  C_2
REMARK    2  A    between atoms: C_2  and  C_4
REMARK    3  A    between atoms: C_2  and  S_13
REMARK    4  A    between atoms: S_13  and  C_14
REMARK    5  A    between atoms: C_18  and  C_27
REMARK    6  A    between atoms: N_19  and  C_20
REMARK    7  A    between atoms: C_20  and  C_21
REMARK                            x       y       z     vdW  Elec       q    Type
REMARK                         _______ _______ _______ _____ _____    ______ ____
ROOT
ATOM      1  C   UNL     1      -0.070  -0.294  -2.767  0.00  0.00    +0.237 C 
ATOM      2  N   UNL     1      -0.023   1.161  -2.547  0.00  0.00    -0.237 N 
ATOM      3  N   UNL     1      -1.349   1.609  -2.571  0.00  0.00    -0.169 NA
ATOM      4  C   UNL     1      -2.180   0.621  -2.774  0.00  0.00    +0.147 C 
ATOM      5  N   UNL     1      -1.503  -0.597  -2.911  0.00  0.00    -0.283 N 
ATOM      6  H   UNL     1       0.770   1.702  -2.412  0.00  0.00    +0.171 HD
ENDROOT
BRANCH   4   7
ATOM      7  C   UNL     1      -3.575   0.763  -2.848  0.00  0.00    +0.022 C 
ATOM      8  C   UNL     1      -4.304   1.952  -2.827  0.00  0.00    +0.006 A 
ATOM      9  C   UNL     1      -3.917   3.306  -2.733  0.00  0.00    +0.010 A 
ATOM     10  C   UNL     1      -4.864   4.279  -2.737  0.00  0.00    +0.001 A 
ATOM     11  C   UNL     1      -6.224   3.975  -2.831  0.00  0.00    +0.002 A 
ATOM     12  C   UNL     1      -6.667   2.697  -2.924  0.00  0.00    +0.026 A 
ATOM     13  C   UNL     1      -5.736   1.627  -2.927  0.00  0.00    +0.043 A 
ATOM     14  N   UNL     1      -5.908   0.322  -3.006  0.00  0.00    -0.380 N 
ATOM     15  C   UNL     1      -4.601  -0.342  -2.973  0.00  0.00    +0.152 C 
ATOM     16  H   UNL     1      -6.764  -0.129  -3.080  0.00  0.00    +0.160 HD
ENDBRANCH   4   7
BRANCH   1  17
ATOM     17  S   UNL     1       0.624  -1.174  -1.340  0.00  0.00    -0.106 S 
BRANCH  17  19
ATOM     18  C   UNL     1      -0.136   0.902   0.272  0.00  0.00    +0.029 C 
ATOM     19  C   UNL     1      -0.374  -0.595   0.060  0.00  0.00    +0.133 C 
BRANCH  19  20
ATOM     20  C   UNL     1       0.022  -1.347   1.304  0.00  0.00    +0.232 C 
ATOM     21  O   UNL     1       1.130  -1.831   1.393  0.00  0.00    -0.274 OA
ATOM     22  N   UNL     1      -0.856  -1.483   2.318  0.00  0.00    -0.254 N 
ATOM     23  C   UNL     1      -0.492  -2.177   3.465  0.00  0.00    +0.221 A 
ATOM     24  N   UNL     1       0.725  -2.694   3.548  0.00  0.00    -0.223 NA
ATOM     25  C   UNL     1       1.104  -3.360   4.626  0.00  0.00    +0.116 A 
ATOM     26  C   UNL     1       0.211  -3.513   5.675  0.00  0.00    +0.039 A 
ATOM     27  C   UNL     1      -1.054  -2.959   5.554  0.00  0.00    +0.116 A 
ATOM     28  N   UNL     1      -1.367  -2.300   4.451  0.00  0.00    -0.223 NA
ATOM     29  H   UNL     1      -1.743  -1.096   2.246  0.00  0.00    +0.158 HD
ENDBRANCH  19  20
ENDBRANCH  17  19
ENDBRANCH   1  17
BRANCH   5  30
ATOM     30  C   UNL     1      -2.101  -1.913  -3.150  0.00  0.00    +0.140 C 
BRANCH  30  31
ATOM     31  C   UNL     1      -2.305  -2.115  -4.653  0.00  0.00    +0.136 C 
ATOM     32  C   UNL     1      -3.017  -3.461  -4.908  0.00  0.00    +0.035 C 
ATOM     33  C   UNL     1      -2.290  -3.982  -6.178  0.00  0.00    +0.031 C 
ATOM     34  C   UNL     1      -0.857  -3.445  -5.938  0.00  0.00    +0.160 C 
ATOM     35  O   UNL     1      -1.036  -2.162  -5.314  0.00  0.00    -0.375 OA
ENDBRANCH  30  31
ENDBRANCH   5  30
TORSDOF 6
