REMARK  Name = ZINC63296323
REMARK  7 active torsions:
REMARK  status: ('A' for Active; 'I' for Inactive)
REMARK    1  A    between atoms: C_1  and  C_2
REMARK    2  A    between atoms: C_2  and  C_31
REMARK    3  A    between atoms: C_4  and  N_10
REMARK    4  A    between atoms: C_6  and  C_8
REMARK    5  A    between atoms: C_6  and  C_9
REMARK    6  A    between atoms: C_11  and  C_13
REMARK    7  A    between atoms: C_13  and  N_14
REMARK                            x       y       z     vdW  Elec       q    Type
REMARK                         _______ _______ _______ _____ _____    ______ ____
ROOT
ATOM      1  N   UNL     1       5.564  -0.180  -4.750  0.00  0.00    -0.291 N 
ATOM      2  C   UNL     1       6.236  -0.498  -5.875  0.00  0.00    +0.303 C 
ATOM      3  O   UNL     1       5.849  -1.413  -6.575  0.00  0.00    -0.253 OA
ATOM      4  N   UNL     1       7.336   0.199  -6.222  0.00  0.00    -0.283 N 
ATOM      5  C   UNL     1       7.866   1.219  -5.312  0.00  0.00    +0.114 C 
ATOM      6  C   UNL     1       9.327   0.884  -4.961  0.00  0.00    +0.052 C 
ATOM      7  C   UNL     1      10.011   0.518  -6.255  0.00  0.00    -0.036 C 
ATOM      8  C   UNL     1      11.131   0.961  -6.812  0.00  0.00    -0.001 A 
ATOM      9  C   UNL     1      12.169   1.884  -6.324  0.00  0.00    +0.010 A 
ATOM     10  C   UNL     1      13.194   2.139  -7.180  0.00  0.00    +0.001 A 
ATOM     11  C   UNL     1      13.290   1.575  -8.456  0.00  0.00    +0.002 A 
ATOM     12  C   UNL     1      12.386   0.710  -8.982  0.00  0.00    +0.026 A 
ATOM     13  C   UNL     1      11.267   0.358  -8.173  0.00  0.00    +0.043 A 
ATOM     14  N   UNL     1      10.278  -0.452  -8.412  0.00  0.00    -0.376 N 
ATOM     15  C   UNL     1       9.432  -0.511  -7.219  0.00  0.00    +0.124 C 
ATOM     16  C   UNL     1       7.996  -0.078  -7.508  0.00  0.00    +0.138 C 
ATOM     17  H   UNL     1       5.912   0.502  -4.154  0.00  0.00    +0.151 HD
ATOM     18  H   UNL     1      10.126  -0.934  -9.240  0.00  0.00    +0.160 HD
ENDROOT
BRANCH   1  19
ATOM     19  C   UNL     1       4.309  -0.863  -4.429  0.00  0.00    +0.201 C 
BRANCH  19  21
ATOM     20  N   UNL     1       2.608  -0.811  -2.633  0.00  0.00    -0.311 N 
ATOM     21  C   UNL     1       3.764  -0.327  -3.130  0.00  0.00    +0.230 C 
ATOM     22  O   UNL     1       4.365   0.540  -2.532  0.00  0.00    -0.274 OA
ATOM     23  H   UNL     1       2.127  -1.504  -3.112  0.00  0.00    +0.149 HD
BRANCH  20  27
ATOM     24  C   UNL     1      -0.035   1.542  -0.012  0.00  0.00    -0.010 C 
ATOM     25  C   UNL     1      -0.012   0.010  -0.015  0.00  0.00    -0.072 C 
ATOM     26  C   UNL     1       0.563  -0.495  -1.334  0.00  0.00    +0.009 C 
ATOM     27  C   UNL     1       2.077  -0.289  -1.368  0.00  0.00    +0.070 C 
ATOM     28  C   UNL     1       2.690  -1.069  -0.204  0.00  0.00    +0.009 C 
ATOM     29  C   UNL     1       2.131  -0.569   1.124  0.00  0.00    -0.072 C 
ATOM     30  N   UNL     1       0.680  -0.509   1.151  0.00  0.00    +0.386 N 
ATOM     31  C   UNL     1       2.751   0.790   1.468  0.00  0.00    -0.010 C 
ATOM     32  C   UNL     1       2.582  -1.563   2.218  0.00  0.00    -0.010 C 
ATOM     33  C   UNL     1      -1.482  -0.465   0.061  0.00  0.00    -0.010 C 
ATOM     34  H   UNL     1       0.397   0.044   1.966  0.00  0.00    -0.084 HD
ATOM     35  H   UNL     1       0.325  -1.452   1.341  0.00  0.00    -0.084 HD
ENDBRANCH  20  27
ENDBRANCH  19  21
ENDBRANCH   1  19
TORSDOF 3
