REMARK  Name = ZINC39545450
REMARK  9 active torsions:
REMARK  status: ('A' for Active; 'I' for Inactive)
REMARK    1  A    between atoms: C_1  and  C_2
REMARK    2  A    between atoms: C_2  and  C_3
REMARK    3  A    between atoms: C_2  and  S_4
REMARK    4  A    between atoms: S_4  and  C_7
REMARK    5  A    between atoms: C_9  and  C_21
REMARK    6  A    between atoms: N_23  and  C_24
REMARK    7  A    between atoms: N_23  and  O_31
REMARK    8  A    between atoms: C_29  and  O_30
REMARK    9  A    between atoms: O_31  and  C_32
REMARK                            x       y       z     vdW  Elec       q    Type
REMARK                         _______ _______ _______ _____ _____    ______ ____
ROOT
ATOM      1  C   UNL     1      -1.600  -2.393   0.152  0.00  0.00    +0.102 C 
ATOM      2  C   UNL     1      -0.966  -3.289  -0.888  0.00  0.00    +0.088 C 
ATOM      3  C   UNL     1      -1.048  -4.698  -0.269  0.00  0.00    +0.152 C 
ATOM      4  N   UNL     1      -1.731  -4.484   1.017  0.00  0.00    -0.368 NA
ATOM      5  C   UNL     1      -1.983  -3.114   1.174  0.00  0.00    +0.096 C 
ATOM      6  N   UNL     1      -2.576  -2.629   2.353  0.00  0.00    -0.302 N 
ATOM      7  C   UNL     1      -2.193  -3.300   3.528  0.00  0.00    +0.037 A 
ATOM      8  C   UNL     1      -2.630  -2.837   4.761  0.00  0.00    +0.023 A 
ATOM      9  C   UNL     1      -2.260  -3.502   5.914  0.00  0.00    +0.002 A 
ATOM     10  C   UNL     1      -1.458  -4.626   5.833  0.00  0.00    +0.000 A 
ATOM     11  C   UNL     1      -1.021  -5.085   4.605  0.00  0.00    +0.007 A 
ATOM     12  C   UNL     1      -1.382  -4.422   3.443  0.00  0.00    -0.010 A 
ATOM     13  C   UNL     1      -0.880  -4.934   2.124  0.00  0.00    +0.124 C 
ATOM     14  H   UNL     1      -3.201  -1.887   2.356  0.00  0.00    +0.153 HD
ATOM     15  H   UNL     1      -2.602  -4.994   1.028  0.00  0.00    +0.129 HD
ENDROOT
BRANCH   1  16
ATOM     16  S   UNL     1      -1.787  -0.646   0.012  0.00  0.00    -0.002 S 
ATOM     17  O   UNL     1      -2.443  -0.255   1.210  0.00  0.00    -0.169 OA
ATOM     18  O   UNL     1      -2.406  -0.448  -1.252  0.00  0.00    -0.169 OA
BRANCH  16  20
ATOM     19  C   UNL     1      -0.134   1.533  -0.008  0.00  0.00    +0.032 C 
ATOM     20  C   UNL     1      -0.093   0.003  -0.014  0.00  0.00    +0.130 C 
ATOM     21  C   UNL     1       0.662  -0.491   1.222  0.00  0.00    +0.032 C 
ENDBRANCH  16  20
ENDBRANCH   1  16
BRANCH   3  22
ATOM     22  C   UNL     1       0.333  -5.260  -0.050  0.00  0.00    +0.262 C 
ATOM     23  O   UNL     1       1.278  -4.511   0.088  0.00  0.00    -0.271 OA
ATOM     24  N   UNL     1       0.519  -6.594  -0.006  0.00  0.00    -0.144 N 
BRANCH  24  25
ATOM     25  C   UNL     1       1.780  -7.116   0.308  0.00  0.00    +0.106 A 
ATOM     26  C   UNL     1       2.152  -7.286   1.634  0.00  0.00    +0.029 A 
ATOM     27  C   UNL     1       3.397  -7.801   1.941  0.00  0.00    +0.002 A 
ATOM     28  C   UNL     1       4.275  -8.148   0.930  0.00  0.00    +0.004 A 
ATOM     29  C   UNL     1       3.911  -7.982  -0.393  0.00  0.00    +0.047 A 
ATOM     30  C   UNL     1       2.663  -7.471  -0.710  0.00  0.00    +0.140 A 
BRANCH  30  31
ATOM     31  O   UNL     1       2.301  -7.312  -2.011  0.00  0.00    -0.505 OA
ATOM     32  H   UNL     1       2.533  -6.450  -2.381  0.00  0.00    +0.292 HD
ENDBRANCH  30  31
ENDBRANCH  24  25
BRANCH  24  33
ATOM     33  O   UNL     1      -0.562  -7.468  -0.278  0.00  0.00    -0.276 OA
ATOM     34  C   UNL     1      -0.625  -7.910  -1.635  0.00  0.00    +0.227 C 
ENDBRANCH  24  33
ENDBRANCH   3  22
TORSDOF 6
