REMARK  Name = ZINC57988036
REMARK  10 active torsions:
REMARK  status: ('A' for Active; 'I' for Inactive)
REMARK    1  A    between atoms: C_1  and  C_2
REMARK    2  A    between atoms: C_5  and  N_9
REMARK    3  A    between atoms: C_6  and  O_8
REMARK    4  A    between atoms: C_10  and  C_12
REMARK    5  A    between atoms: C_12  and  C_14
REMARK    6  A    between atoms: C_12  and  N_17
REMARK    7  A    between atoms: C_14  and  C_15
REMARK    8  A    between atoms: C_14  and  C_16
REMARK    9  A    between atoms: N_17  and  S_18
REMARK   10  A    between atoms: S_18  and  C_21
REMARK                            x       y       z     vdW  Elec       q    Type
REMARK                         _______ _______ _______ _____ _____    ______ ____
ROOT
ATOM      1  C   UNL     1      -0.239  -6.466  -1.218  0.00  0.00    +0.165 C 
ENDROOT
BRANCH   1   3
ATOM      2  N   UNL     1       0.346  -4.607   0.305  0.00  0.00    -0.281 N 
ATOM      3  C   UNL     1       0.052  -5.013  -0.946  0.00  0.00    +0.236 C 
ATOM      4  O   UNL     1       0.022  -4.208  -1.853  0.00  0.00    -0.274 OA
ATOM      5  H   UNL     1       0.395  -5.255   1.026  0.00  0.00    +0.155 HD
BRANCH   2  10
ATOM      6  C   UNL     1       1.290   0.893   1.354  0.00  0.00    +0.044 C 
ATOM      7  C   UNL     1       1.039  -0.567   1.078  0.00  0.00    -0.047 A 
ATOM      8  C   UNL     1       1.250  -1.076  -0.191  0.00  0.00    +0.005 A 
ATOM      9  C   UNL     1       1.021  -2.414  -0.449  0.00  0.00    +0.027 A 
ATOM     10  C   UNL     1       0.579  -3.250   0.565  0.00  0.00    +0.075 A 
ATOM     11  C   UNL     1       0.367  -2.737   1.843  0.00  0.00    +0.138 A 
ATOM     12  C   UNL     1       0.604  -1.396   2.095  0.00  0.00    +0.050 A 
BRANCH  11  13
ATOM     13  O   UNL     1      -0.067  -3.553   2.841  0.00  0.00    -0.505 OA
ATOM     14  H   UNL     1       0.645  -3.973   3.343  0.00  0.00    +0.292 HD
ENDBRANCH  11  13
ENDBRANCH   2  10
ENDBRANCH   1   3
BRANCH   1  15
ATOM     15  C   UNL     1      -1.659  -6.798  -0.754  0.00  0.00    +0.010 C 
ATOM     16  C   UNL     1      -2.666  -5.993  -1.579  0.00  0.00    +0.009 C 
ATOM     17  C   UNL     1      -1.922  -8.293  -0.945  0.00  0.00    +0.009 C 
ENDBRANCH   1  15
BRANCH   1  18
ATOM     18  N   UNL     1      -0.122  -6.727  -2.655  0.00  0.00    -0.178 NA
ATOM     19  H   UNL     1      -0.876  -6.559  -3.241  0.00  0.00    +0.149 HD
BRANCH  18  20
ATOM     20  S   UNL     1       1.299  -7.308  -3.278  0.00  0.00    +0.059 S 
ATOM     21  O   UNL     1       1.084  -7.500  -4.669  0.00  0.00    -0.153 OA
ATOM     22  O   UNL     1       2.334  -6.475  -2.775  0.00  0.00    -0.153 OA
BRANCH  20  23
ATOM     23  C   UNL     1       1.557  -8.907  -2.583  0.00  0.00    +0.109 A 
ATOM     24  C   UNL     1       2.197  -9.033  -1.364  0.00  0.00    +0.032 A 
ATOM     25  C   UNL     1       2.403 -10.285  -0.812  0.00  0.00    +0.051 A 
ATOM     26  C   UNL     1       1.964 -11.412  -1.485  0.00  0.00    +0.162 A 
ATOM     27  C   UNL     1       1.321 -11.285  -2.708  0.00  0.00    +0.164 A 
ATOM     28  C   UNL     1       1.113 -10.031  -3.256  0.00  0.00    +0.078 A 
ATOM     29  O   UNL     1       0.892 -12.403  -3.364  0.00  0.00    -0.488 OA
ATOM     30  C   UNL     1       1.915 -13.261  -3.872  0.00  0.00    +0.232 C 
ATOM     31  C   UNL     1       2.402 -14.216  -2.793  0.00  0.00    +0.082 C 
ATOM     32  C   UNL     1       3.086 -13.492  -1.644  0.00  0.00    +0.232 C 
ATOM     33  O   UNL     1       2.159 -12.653  -0.952  0.00  0.00    -0.488 OA
ENDBRANCH  20  23
ENDBRANCH  18  20
ENDBRANCH   1  18
TORSDOF 7
