REMARK  Name = ZINC39665010
REMARK  11 active torsions:
REMARK  status: ('A' for Active; 'I' for Inactive)
REMARK    1  A    between atoms: C_1  and  C_2
REMARK    2  A    between atoms: C_2  and  C_4
REMARK    3  A    between atoms: C_2  and  O_31
REMARK    4  A    between atoms: C_4  and  N_5
REMARK    5  A    between atoms: C_6  and  C_8
REMARK    6  A    between atoms: C_19  and  C_21
REMARK    7  A    between atoms: C_23  and  O_29
REMARK    8  A    between atoms: C_25  and  O_27
REMARK    9  A    between atoms: O_27  and  C_28
REMARK   10  A    between atoms: O_29  and  C_30
REMARK   11  A    between atoms: O_31  and  C_32
REMARK                            x       y       z     vdW  Elec       q    Type
REMARK                         _______ _______ _______ _____ _____    ______ ____
ROOT
ATOM      1  C   UNL     1       0.992  -4.176  -2.552  0.00  0.00    +0.100 C 
ATOM      2  C   UNL     1      -0.453  -4.626  -2.869  0.00  0.00    +0.121 C 
ATOM      3  N   UNL     1      -0.475  -4.804  -4.340  0.00  0.00    -0.296 N 
ATOM      4  C   UNL     1       0.837  -5.417  -4.657  0.00  0.00    +0.115 C 
ATOM      5  C   UNL     1       1.835  -4.701  -3.726  0.00  0.00    -0.004 C 
ATOM      6  C   UNL     1       2.499  -3.539  -4.460  0.00  0.00    -0.010 C 
ATOM      7  C   UNL     1       3.377  -4.090  -5.588  0.00  0.00    -0.082 C 
ATOM      8  N   UNL     1       4.394  -4.985  -5.025  0.00  0.00    +0.379 N 
ATOM      9  C   UNL     1       3.750  -6.147  -4.402  0.00  0.00    -0.082 C 
ATOM     10  C   UNL     1       2.888  -5.684  -3.224  0.00  0.00    -0.010 C 
ATOM     11  C   UNL     1      -1.465  -4.480  -5.196  0.00  0.00    +0.247 C 
ATOM     12  O   UNL     1      -2.443  -3.881  -4.795  0.00  0.00    -0.270 OA
ATOM     13  H   UNL     1       5.009  -5.298  -5.762  0.00  0.00    -0.086 HD
ATOM     14  H   UNL     1       4.932  -4.487  -4.331  0.00  0.00    -0.086 HD
ENDROOT
BRANCH  11  15
ATOM     15  C   UNL     1      -1.360  -4.855  -6.622  0.00  0.00    +0.044 A 
ATOM     16  C   UNL     1      -0.567  -5.937  -7.005  0.00  0.00    +0.059 A 
ATOM     17  C   UNL     1      -0.472  -6.285  -8.342  0.00  0.00    +0.124 A 
ATOM     18  C   UNL     1      -1.164  -5.560  -9.301  0.00  0.00    +0.091 A 
ATOM     19  C   UNL     1      -1.954  -4.483  -8.925  0.00  0.00    +0.124 A 
ATOM     20  C   UNL     1      -2.059  -4.132  -7.589  0.00  0.00    +0.059 A 
BRANCH  19  21
ATOM     21  O   UNL     1      -2.631  -3.776  -9.868  0.00  0.00    -0.495 OA
ATOM     22  C   UNL     1      -2.482  -4.196 -11.225  0.00  0.00    +0.277 C 
ENDBRANCH  19  21
BRANCH  17  23
ATOM     23  O   UNL     1       0.301  -7.339  -8.716  0.00  0.00    -0.495 OA
ATOM     24  C   UNL     1       0.353  -7.642 -10.111  0.00  0.00    +0.277 C 
ENDBRANCH  17  23
ENDBRANCH  11  15
BRANCH   1  26
ATOM     25  N   UNL     1       2.089  -2.082  -1.826  0.00  0.00    -0.312 N 
ATOM     26  C   UNL     1       1.069  -2.673  -2.480  0.00  0.00    +0.218 C 
ATOM     27  O   UNL     1       0.215  -1.996  -3.010  0.00  0.00    -0.275 OA
ATOM     28  H   UNL     1       2.772  -2.624  -1.402  0.00  0.00    +0.149 HD
BRANCH  25  29
ATOM     29  C   UNL     1       2.165  -0.621  -1.756  0.00  0.00    +0.148 C 
BRANCH  29  31
ATOM     30  C   UNL     1       3.421   1.308  -0.784  0.00  0.00    +0.053 C 
ATOM     31  C   UNL     1       3.408  -0.212  -0.964  0.00  0.00    +0.187 C 
BRANCH  31  32
ATOM     32  O   UNL     1       4.580  -0.617  -1.673  0.00  0.00    -0.488 OA
BRANCH  32  33
ATOM     33  C   UNL     1       5.707  -0.815  -0.941  0.00  0.00    +0.121 A 
ATOM     34  C   UNL     1       5.662  -0.725   0.443  0.00  0.00    +0.045 A 
ATOM     35  C   UNL     1       6.809  -0.927   1.185  0.00  0.00    +0.004 A 
ATOM     36  C   UNL     1       8.002  -1.217   0.550  0.00  0.00    +0.000 A 
ATOM     37  C   UNL     1       8.051  -1.306  -0.829  0.00  0.00    +0.004 A 
ATOM     38  C   UNL     1       6.905  -1.112  -1.575  0.00  0.00    +0.045 A 
ENDBRANCH  32  33
ENDBRANCH  31  32
ENDBRANCH  29  31
ENDBRANCH  25  29
ENDBRANCH   1  26
TORSDOF 8
