REMARK  Name = ZINC08994551
REMARK  5 active torsions:
REMARK  status: ('A' for Active; 'I' for Inactive)
REMARK    1  A    between atoms: C_16  and  C_18
REMARK    2  A    between atoms: C_18  and  C_19
REMARK    3  A    between atoms: C_22  and  O_25
REMARK    4  A    between atoms: N_28  and  C_31
REMARK    5  A    between atoms: C_31  and  C_32
REMARK                            x       y       z     vdW  Elec       q    Type
REMARK                         _______ _______ _______ _____ _____    ______ ____
ROOT
ATOM      1  C   UNL     1       3.099   3.731  -0.008  0.00  0.00    +0.002 A 
ATOM      2  C   UNL     1       1.760   4.085   0.008  0.00  0.00    +0.004 A 
ATOM      3  C   UNL     1       0.789   3.109   0.011  0.00  0.00    -0.026 A 
ATOM      4  C   UNL     1       1.137   1.761   0.001  0.00  0.00    +0.054 A 
ATOM      5  C   UNL     1       2.487   1.413  -0.015  0.00  0.00    +0.062 A 
ATOM      6  C   UNL     1       3.457   2.396  -0.019  0.00  0.00    +0.022 A 
ATOM      7 CL   UNL     1       2.949  -0.260  -0.029  0.00  0.00    -0.082 Cl
ATOM      8  N   UNL     1      -0.011   0.966   0.007  0.00  0.00    -0.285 N 
ATOM      9  C   UNL     1      -1.139   1.702   0.016  0.00  0.00    +0.211 C 
ATOM     10  O   UNL     1      -2.277   1.284   0.018  0.00  0.00    -0.277 OA
ATOM     11  C   UNL     1      -0.713   3.145   0.026  0.00  0.00    +0.050 C 
ATOM     12  C   UNL     1      -1.245   3.884   1.259  0.00  0.00    +0.088 C 
ATOM     13  C   UNL     1      -1.558   5.319   0.749  0.00  0.00    +0.073 C 
ATOM     14  C   UNL     1      -1.173   5.301  -0.746  0.00  0.00    -0.053 C 
ATOM     15  C   UNL     1      -3.061   5.415   0.877  0.00  0.00    +0.224 C 
ATOM     16  O   UNL     1      -3.729   6.381   0.576  0.00  0.00    -0.275 OA
ATOM     17  N   UNL     1      -3.539   4.268   1.373  0.00  0.00    -0.239 N 
ATOM     18  C   UNL     1      -2.608   3.341   1.626  0.00  0.00    +0.225 C 
ATOM     19  O   UNL     1      -2.824   2.238   2.079  0.00  0.00    -0.275 OA
ATOM     20  H   UNL     1       0.002  -0.004   0.002  0.00  0.00    +0.155 HD
ATOM     21  N   UNL     1      -1.234   3.884  -1.110  0.00  0.00    +0.394 N 
ATOM     22  H   UNL     1      -2.205   3.607  -1.298  0.00  0.00    -0.083 HD
ATOM     23  H   UNL     1      -0.661   3.706  -1.943  0.00  0.00    -0.083 HD
ENDROOT
BRANCH  14  24
ATOM     24  C   UNL     1      -2.167   6.130  -1.561  0.00  0.00    +0.020 C 
BRANCH  24  25
ATOM     25  C   UNL     1      -1.746   6.138  -3.008  0.00  0.00    -0.049 A 
ATOM     26  C   UNL     1      -0.900   7.127  -3.475  0.00  0.00    +0.007 A 
ATOM     27  C   UNL     1      -0.508   7.133  -4.800  0.00  0.00    +0.045 A 
ATOM     28  C   UNL     1      -0.974   6.153  -5.665  0.00  0.00    +0.117 A 
ATOM     29  C   UNL     1      -1.828   5.165  -5.194  0.00  0.00    +0.045 A 
ATOM     30  C   UNL     1      -2.212   5.160  -3.867  0.00  0.00    +0.007 A 
BRANCH  28  31
ATOM     31  O   UNL     1      -0.596   6.160  -6.970  0.00  0.00    -0.507 OA
ATOM     32  H   UNL     1      -1.182   6.669  -7.546  0.00  0.00    +0.292 HD
ENDBRANCH  28  31
ENDBRANCH  24  25
ENDBRANCH  14  24
BRANCH  17  33
ATOM     33  C   UNL     1      -4.966   4.046   1.621  0.00  0.00    +0.148 C 
BRANCH  33  34
ATOM     34  C   UNL     1      -5.614   3.452   0.369  0.00  0.00    +0.136 C 
ATOM     35  C   UNL     1      -7.141   3.325   0.562  0.00  0.00    +0.035 C 
ATOM     36  C   UNL     1      -7.502   2.003  -0.151  0.00  0.00    +0.031 C 
ATOM     37  C   UNL     1      -6.150   1.487  -0.691  0.00  0.00    +0.160 C 
ATOM     38  O   UNL     1      -5.155   2.099   0.159  0.00  0.00    -0.375 OA
ENDBRANCH  33  34
ENDBRANCH  17  33
TORSDOF 5
