REMARK  Name = ZINC51318334
REMARK  9 active torsions:
REMARK  status: ('A' for Active; 'I' for Inactive)
REMARK    1  A    between atoms: C_1  and  C_2
REMARK    2  A    between atoms: C_5  and  C_8
REMARK    3  A    between atoms: C_10  and  C_32
REMARK    4  A    between atoms: C_11  and  C_16
REMARK    5  A    between atoms: C_16  and  N_17
REMARK    6  A    between atoms: C_20  and  C_23
REMARK    7  A    between atoms: C_20  and  N_26
REMARK    8  A    between atoms: C_32  and  O_34
REMARK    9  A    between atoms: O_34  and  C_35
REMARK                            x       y       z     vdW  Elec       q    Type
REMARK                         _______ _______ _______ _____ _____    ______ ____
ROOT
ATOM      1  C   UNL     1      -0.580  -1.641   0.634  0.00  0.00    +0.144 C 
ATOM      2  C   UNL     1       0.722  -2.401   0.482  0.00  0.00    +0.079 C 
ATOM      3  C   UNL     1       0.892  -3.512   1.230  0.00  0.00    +0.038 C 
ATOM      4  N   UNL     1      -0.077  -3.935   2.095  0.00  0.00    -0.271 N 
ATOM      5  C   UNL     1      -1.244  -3.302   2.269  0.00  0.00    +0.304 C 
ATOM      6  O   UNL     1      -2.046  -3.755   3.063  0.00  0.00    -0.252 OA
ATOM      7  N   UNL     1      -1.558  -2.180   1.593  0.00  0.00    -0.288 N 
ATOM      8  H   UNL     1       0.089  -4.739   2.612  0.00  0.00    +0.156 HD
ATOM      9  H   UNL     1      -2.410  -1.737   1.736  0.00  0.00    +0.151 HD
ENDROOT
BRANCH   1  14
ATOM     10  C   UNL     1       0.689   3.765   2.235  0.00  0.00    +0.044 C 
ATOM     11  C   UNL     1       0.358   2.355   1.817  0.00  0.00    -0.050 A 
ATOM     12  C   UNL     1       0.135   2.063   0.485  0.00  0.00    +0.004 A 
ATOM     13  C   UNL     1      -0.169   0.770   0.102  0.00  0.00    +0.006 A 
ATOM     14  C   UNL     1      -0.248  -0.231   1.051  0.00  0.00    -0.022 A 
ATOM     15  C   UNL     1      -0.023   0.060   2.384  0.00  0.00    +0.006 A 
ATOM     16  C   UNL     1       0.285   1.353   2.766  0.00  0.00    +0.004 A 
ENDBRANCH   1  14
BRANCH   2  17
ATOM     17  C   UNL     1       1.725  -1.963  -0.414  0.00  0.00    +0.339 C 
ATOM     18  O   UNL     1       2.453  -1.038  -0.107  0.00  0.00    -0.245 OA
BRANCH  17  19
ATOM     19  O   UNL     1       1.873  -2.570  -1.610  0.00  0.00    -0.465 OA
ATOM     20  C   UNL     1       2.906  -2.076  -2.465  0.00  0.00    +0.280 C 
ENDBRANCH  17  19
ENDBRANCH   2  17
BRANCH   3  21
ATOM     21  C   UNL     1       2.172  -4.299   1.109  0.00  0.00    +0.135 C 
BRANCH  21  22
ATOM     22  N   UNL     1       2.902  -4.245   2.383  0.00  0.00    -0.297 NA
ATOM     23  C   UNL     1       3.352  -2.878   2.674  0.00  0.00    +0.084 C 
ATOM     24  C   UNL     1       3.978  -2.832   4.069  0.00  0.00    +0.013 C 
ATOM     25  C   UNL     1       5.162  -3.801   4.125  0.00  0.00    +0.015 C 
ATOM     26  C   UNL     1       4.675  -5.209   3.771  0.00  0.00    +0.013 C 
ATOM     27  C   UNL     1       4.029  -5.187   2.384  0.00  0.00    +0.084 C 
BRANCH  25  28
ATOM     28  N   UNL     1       5.731  -3.805   5.479  0.00  0.00    +0.389 N 
ATOM     29  C   UNL     1       6.204  -2.456   5.813  0.00  0.00    -0.077 C 
ATOM     30  C   UNL     1       6.723  -2.435   7.252  0.00  0.00    -0.019 C 
ATOM     31  C   UNL     1       7.879  -3.430   7.386  0.00  0.00    -0.004 C 
ATOM     32  C   UNL     1       7.395  -4.820   6.964  0.00  0.00    -0.019 C 
ATOM     33  C   UNL     1       6.850  -4.753   5.536  0.00  0.00    -0.077 C 
ATOM     34  H   UNL     1       5.022  -4.084   6.140  0.00  0.00    -0.080 HD
ENDBRANCH  25  28
BRANCH  25  35
ATOM     35  C   UNL     1       6.214  -3.369   3.136  0.00  0.00    +0.200 C 
ATOM     36  O   UNL     1       6.165  -2.262   2.644  0.00  0.00    -0.278 OA
ATOM     37  N   UNL     1       7.209  -4.213   2.799  0.00  0.00    -0.330 N 
ATOM     38  H   UNL     1       7.208  -5.123   3.134  0.00  0.00    +0.145 HD
ATOM     39  H   UNL     1       7.927  -3.910   2.221  0.00  0.00    +0.145 HD
ENDBRANCH  25  35
ENDBRANCH  21  22
ENDBRANCH   3  21
TORSDOF 7
