REMARK  Name = ZINC39982704
REMARK  7 active torsions:
REMARK  status: ('A' for Active; 'I' for Inactive)
REMARK    1  A    between atoms: C_1  and  C_2
REMARK    2  A    between atoms: C_2  and  C_4
REMARK    3  A    between atoms: C_2  and  S_19
REMARK    4  A    between atoms: C_16  and  C_17
REMARK    5  A    between atoms: C_16  and  C_18
REMARK    6  A    between atoms: S_19  and  C_20
REMARK    7  A    between atoms: C_24  and  C_26
REMARK                            x       y       z     vdW  Elec       q    Type
REMARK                         _______ _______ _______ _____ _____    ______ ____
ROOT
ATOM      1  C   UNL     1      -1.058   1.827   0.130  0.00  0.00    +0.029 C 
ATOM      2  C   UNL     1      -1.117   0.321   0.392  0.00  0.00    +0.135 C 
ENDROOT
BRANCH   2   3
ATOM      3  C   UNL     1      -0.110  -0.381  -0.483  0.00  0.00    +0.234 C 
ATOM      4  O   UNL     1       0.814  -0.985   0.019  0.00  0.00    -0.274 OA
ATOM      5  N   UNL     1      -0.237  -0.337  -1.824  0.00  0.00    -0.255 N 
ATOM      6  C   UNL     1       0.786  -0.805  -2.664  0.00  0.00    +0.059 A 
ATOM      7  C   UNL     1       2.111  -0.762  -2.268  0.00  0.00    +0.025 A 
ATOM      8  C   UNL     1       3.097  -1.228  -3.120  0.00  0.00    +0.002 A 
ATOM      9  C   UNL     1       2.761  -1.734  -4.362  0.00  0.00    +0.002 A 
ATOM     10  C   UNL     1       1.438  -1.781  -4.763  0.00  0.00    +0.025 A 
ATOM     11  C   UNL     1       0.444  -1.320  -3.916  0.00  0.00    +0.055 A 
ATOM     12  N   UNL     1      -0.902  -1.369  -4.297  0.00  0.00    -0.282 N 
ATOM     13  C   UNL     1      -1.836  -0.681  -3.614  0.00  0.00    +0.241 C 
ATOM     14  O   UNL     1      -3.002  -0.774  -3.935  0.00  0.00    -0.273 OA
ATOM     15  C   UNL     1      -1.453   0.197  -2.455  0.00  0.00    +0.113 C 
ATOM     16  C   UNL     1      -1.187   1.617  -2.960  0.00  0.00    +0.042 C 
ATOM     17  C   UNL     1      -2.592   0.220  -1.433  0.00  0.00    +0.042 C 
ATOM     18  H   UNL     1      -1.164  -1.905  -5.062  0.00  0.00    +0.155 HD
ENDBRANCH   2   3
BRANCH   2  19
ATOM     19  S   UNL     1      -0.734  -0.005   2.135  0.00  0.00    -0.084 S 
BRANCH  19  20
ATOM     20  C   UNL     1      -2.104   0.770   3.037  0.00  0.00    +0.340 C 
ATOM     21  N   UNL     1      -2.182   2.206   2.720  0.00  0.00    -0.219 N 
ATOM     22  N   UNL     1      -3.443   2.393   2.133  0.00  0.00    -0.145 NA
ATOM     23  C   UNL     1      -4.086   1.257   2.077  0.00  0.00    +0.238 C 
ATOM     24  O   UNL     1      -3.360   0.233   2.597  0.00  0.00    -0.443 OA
ATOM     25  H   UNL     1      -1.505   2.880   2.882  0.00  0.00    +0.173 HD
BRANCH  23  26
ATOM     26  C   UNL     1      -5.374   1.111   1.545  0.00  0.00    +0.043 C 
ATOM     27  C   UNL     1      -6.176   2.110   0.991  0.00  0.00    +0.008 A 
ATOM     28  C   UNL     1      -5.978   3.494   0.797  0.00  0.00    +0.010 A 
ATOM     29  C   UNL     1      -6.954   4.240   0.219  0.00  0.00    +0.001 A 
ATOM     30  C   UNL     1      -8.161   3.671  -0.193  0.00  0.00    +0.002 A 
ATOM     31  C   UNL     1      -8.419   2.349  -0.038  0.00  0.00    +0.026 A 
ATOM     32  C   UNL     1      -7.447   1.506   0.559  0.00  0.00    +0.043 A 
ATOM     33  N   UNL     1      -7.455   0.213   0.818  0.00  0.00    -0.380 N 
ATOM     34  C   UNL     1      -6.183  -0.163   1.443  0.00  0.00    +0.154 C 
ATOM     35  H   UNL     1      -8.185  -0.394   0.622  0.00  0.00    +0.160 HD
ENDBRANCH  23  26
ENDBRANCH  19  20
ENDBRANCH   2  19
TORSDOF 4
