REMARK  Name = ZINC13124049
REMARK  8 active torsions:
REMARK  status: ('A' for Active; 'I' for Inactive)
REMARK    1  A    between atoms: C_1  and  C_2
REMARK    2  A    between atoms: C_3  and  C_9
REMARK    3  A    between atoms: C_4  and  C_8
REMARK    4  A    between atoms: N_5  and  C_7
REMARK    5  A    between atoms: C_9  and  N_10
REMARK    6  A    between atoms: C_11  and  C_13
REMARK    7  A    between atoms: C_18  and  C_29
REMARK    8  A    between atoms: C_21  and  C_24
REMARK                            x       y       z     vdW  Elec       q    Type
REMARK                         _______ _______ _______ _____ _____    ______ ____
ROOT
ATOM      1  C   UNL     1       2.992   0.426  -4.770  0.00  0.00    +0.149 A 
ATOM      2  C   UNL     1       3.380   0.864  -6.056  0.00  0.00    +0.078 A 
ATOM      3  C   UNL     1       4.727   0.889  -6.089  0.00  0.00    +0.119 A 
ATOM      4  N   UNL     1       5.190   0.484  -4.869  0.00  0.00    -0.238 N 
ATOM      5  N   UNL     1       4.087   0.205  -4.063  0.00  0.00    -0.164 NA
ATOM      6  C   UNL     1       6.612   0.389  -4.530  0.00  0.00    +0.215 C 
ATOM      7  C   UNL     1       7.416   1.240  -5.520  0.00  0.00    +0.063 C 
ATOM      8  C   UNL     1       7.006   0.897  -6.956  0.00  0.00    +0.111 C 
ATOM      9  N   UNL     1       5.583   1.247  -7.135  0.00  0.00    -0.322 N 
ATOM     10  H   UNL     1       5.261   1.699  -7.930  0.00  0.00    +0.148 HD
ENDROOT
BRANCH   8  11
ATOM     11  C   UNL     1       7.202  -0.577  -7.201  0.00  0.00    +0.010 A 
ATOM     12  C   UNL     1       8.225  -1.210  -7.826  0.00  0.00    +0.013 A 
ATOM     13  C   UNL     1       8.195  -2.587  -7.935  0.00  0.00    +0.008 A 
ATOM     14  C   UNL     1       7.144  -3.265  -7.413  0.00  0.00    +0.045 A 
ATOM     15  S   UNL     1       6.153  -1.944  -6.734  0.00  0.00    -0.100 S 
ENDBRANCH   8  11
BRANCH   1  17
ATOM     16  N   UNL     1       1.370  -0.170  -3.036  0.00  0.00    -0.306 N 
ATOM     17  C   UNL     1       1.604   0.251  -4.295  0.00  0.00    +0.264 C 
ATOM     18  O   UNL     1       0.673   0.487  -5.040  0.00  0.00    -0.268 OA
ATOM     19  H   UNL     1       2.114  -0.358  -2.442  0.00  0.00    +0.149 HD
BRANCH  16  20
ATOM     20  C   UNL     1      -0.006  -0.343  -2.566  0.00  0.00    +0.143 C 
BRANCH  20  23
ATOM     21  C   UNL     1      -0.018   1.503   0.010  0.00  0.00    +0.068 C 
ATOM     22  C   UNL     1       0.002  -0.004   0.002  0.00  0.00    +0.065 A 
ATOM     23  C   UNL     1       0.008  -0.818  -1.135  0.00  0.00    +0.013 A 
ATOM     24  C   UNL     1       0.028  -2.107  -0.725  0.00  0.00    +0.041 A 
ATOM     25  N   UNL     1       0.034  -2.109   0.625  0.00  0.00    -0.271 N 
ATOM     26  N   UNL     1       0.023  -0.777   1.058  0.00  0.00    -0.176 NA
ATOM     27  C   UNL     1       0.055  -3.295   1.485  0.00  0.00    +0.172 C 
ATOM     28  C   UNL     1       0.040  -3.323  -1.615  0.00  0.00    +0.065 C 
ENDBRANCH  20  23
ENDBRANCH  16  20
ENDBRANCH   1  17
BRANCH   6  29
ATOM     29  C   UNL     1       6.836   0.906  -3.107  0.00  0.00    +0.412 C 
ATOM     30  F   UNL     1       6.091   0.134  -2.209  0.00  0.00    -0.168 F 
ATOM     31  F   UNL     1       8.194   0.814  -2.786  0.00  0.00    -0.168 F 
ATOM     32  F   UNL     1       6.426   2.241  -3.027  0.00  0.00    -0.168 F 
ENDBRANCH   6  29
TORSDOF 5
