REMARK  Name = ZINC07011252
REMARK  6 active torsions:
REMARK  status: ('A' for Active; 'I' for Inactive)
REMARK    1  A    between atoms: C_1  and  C_2
REMARK    2  A    between atoms: C_5  and  C_19
REMARK    3  A    between atoms: C_6  and  C_7
REMARK    4  A    between atoms: C_6  and  C_8
REMARK    5  A    between atoms: N_21  and  N_22
REMARK    6  A    between atoms: C_23  and  C_25
REMARK                            x       y       z     vdW  Elec       q    Type
REMARK                         _______ _______ _______ _____ _____    ______ ____
ROOT
ATOM      1  C   UNL     1      -0.019   1.526   0.010  0.00  0.00    +0.018 C 
ATOM      2  C   UNL     1       0.002  -0.004   0.002  0.00  0.00    +0.018 C 
ATOM      3  C   UNL     1      -1.388  -0.713   0.060  0.00  0.00    +0.015 C 
ATOM      4  C   UNL     1      -1.056  -2.158   0.502  0.00  0.00    +0.024 C 
ATOM      5  C   UNL     1       0.497  -2.159   0.660  0.00  0.00    +0.098 C 
ATOM      6  C   UNL     1       0.727  -0.704   1.210  0.00  0.00    -0.005 C 
ATOM      7  C   UNL     1      -0.005  -0.480   2.535  0.00  0.00    +0.013 C 
ATOM      8  C   UNL     1       2.206  -0.323   1.300  0.00  0.00    +0.013 C 
ATOM      9  C   UNL     1       1.024  -1.991  -0.767  0.00  0.00    +0.079 A 
ATOM     10  C   UNL     1       0.736  -0.664  -1.168  0.00  0.00    +0.071 A 
ATOM     11  N   UNL     1       1.072  -0.222  -2.351  0.00  0.00    -0.248 NA
ATOM     12  C   UNL     1       1.726  -1.030  -3.196  0.00  0.00    +0.090 A 
ATOM     13  C   UNL     1       2.104  -0.587  -4.475  0.00  0.00    +0.030 A 
ATOM     14  C   UNL     1       2.769  -1.429  -5.311  0.00  0.00    +0.002 A 
ATOM     15  C   UNL     1       3.083  -2.729  -4.919  0.00  0.00    +0.002 A 
ATOM     16  C   UNL     1       2.732  -3.194  -3.689  0.00  0.00    +0.030 A 
ATOM     17  C   UNL     1       2.043  -2.353  -2.797  0.00  0.00    +0.090 A 
ATOM     18  N   UNL     1       1.645  -2.812  -1.573  0.00  0.00    -0.247 NA
ENDROOT
BRANCH   5  19
ATOM     19  C   UNL     1       1.082  -3.286   1.473  0.00  0.00    +0.242 C 
ATOM     20  O   UNL     1       1.707  -3.044   2.484  0.00  0.00    -0.273 OA
ATOM     21  N   UNL     1       0.910  -4.563   1.077  0.00  0.00    -0.233 N 
ATOM     22  H   UNL     1       0.410  -4.756   0.269  0.00  0.00    +0.173 HD
BRANCH  21  23
ATOM     23  N   UNL     1       1.454  -5.610   1.832  0.00  0.00    -0.228 N 
ATOM     24  C   UNL     1       1.282  -6.886   1.436  0.00  0.00    +0.295 C 
ATOM     25  O   UNL     1       0.654  -7.130   0.422  0.00  0.00    -0.265 OA
ATOM     26  H   UNL     1       1.954  -5.416   2.640  0.00  0.00    +0.173 HD
BRANCH  24  27
ATOM     27  C   UNL     1       1.851  -7.983   2.227  0.00  0.00    +0.190 A 
ATOM     28  C   UNL     1       1.756  -9.314   1.937  0.00  0.00    +0.054 A 
ATOM     29  C   UNL     1       2.441  -9.997   2.955  0.00  0.00    +0.042 A 
ATOM     30  C   UNL     1       2.917  -9.065   3.810  0.00  0.00    +0.196 A 
ATOM     31  O   UNL     1       2.564  -7.852   3.365  0.00  0.00    -0.458 OA
ENDBRANCH  24  27
ENDBRANCH  21  23
ENDBRANCH   5  19
TORSDOF 3
