REMARK  Name = ZINC20082448
REMARK  10 active torsions:
REMARK  status: ('A' for Active; 'I' for Inactive)
REMARK    1  A    between atoms: C_1  and  C_2
REMARK    2  A    between atoms: C_2  and  C_3
REMARK    3  A    between atoms: C_10  and  C_15
REMARK    4  A    between atoms: C_15  and  C_17
REMARK    5  A    between atoms: C_15  and  N_27
REMARK    6  A    between atoms: N_21  and  C_22
REMARK    7  A    between atoms: N_27  and  C_28
REMARK    8  A    between atoms: N_27  and  C_34
REMARK    9  A    between atoms: C_28  and  C_29
REMARK   10  A    between atoms: C_34  and  C_35
REMARK                            x       y       z     vdW  Elec       q    Type
REMARK                         _______ _______ _______ _____ _____    ______ ____
ROOT
ATOM      1  C   UNL     1      -0.920  -0.636   0.604  0.00  0.00    +0.163 C 
ENDROOT
BRANCH   1   9
ATOM      2  C   UNL     1      -0.547  -6.806   0.307  0.00  0.00    -0.047 A 
ATOM      3  C   UNL     1       0.629  -6.926   1.035  0.00  0.00    +0.005 A 
ATOM      4  C   UNL     1       1.266  -5.809   1.532  0.00  0.00    +0.026 A 
ATOM      5  C   UNL     1       0.727  -4.548   1.302  0.00  0.00    +0.049 A 
ATOM      6  C   UNL     1      -0.466  -4.430   0.563  0.00  0.00    -0.001 A 
ATOM      7  C   UNL     1      -1.094  -5.577   0.069  0.00  0.00    +0.013 A 
ATOM      8  C   UNL     1      -1.028  -3.098   0.331  0.00  0.00    +0.021 A 
ATOM      9  C   UNL     1      -0.371  -2.022   0.830  0.00  0.00    +0.042 A 
ATOM     10  C   UNL     1       0.822  -2.194   1.564  0.00  0.00    +0.254 A 
ATOM     11  O   UNL     1       1.393  -1.214   2.009  0.00  0.00    -0.268 OA
ATOM     12  N   UNL     1       1.343  -3.414   1.787  0.00  0.00    -0.322 N 
ATOM     13  H   UNL     1       2.275  -3.499   2.365  0.00  0.00    +0.169 HD
BRANCH   2  15
ATOM     14  C   UNL     1      -0.689  -8.355  -1.625  0.00  0.00    +0.009 C 
ATOM     15  C   UNL     1      -1.225  -8.042  -0.226  0.00  0.00    +0.032 C 
ENDBRANCH   2  15
ENDBRANCH   1   9
BRANCH   1  16
ATOM     16  C   UNL     1      -1.326  -0.036   1.925  0.00  0.00    +0.173 A 
ATOM     17  N   UNL     1      -0.526   0.420   2.857  0.00  0.00    -0.111 NA
ATOM     18  N   UNL     1      -1.252   0.852   3.829  0.00  0.00    -0.023 NA
ATOM     19  N   UNL     1      -2.495   0.676   3.545  0.00  0.00    -0.044 NA
ATOM     20  N   UNL     1      -2.582   0.131   2.379  0.00  0.00    -0.224 N 
BRANCH  20  21
ATOM     21  C   UNL     1      -3.816  -0.238   1.681  0.00  0.00    +0.111 C 
ATOM     22  C   UNL     1      -4.724   1.000   1.522  0.00  0.00    +0.027 C 
ATOM     23  C   UNL     1      -6.157   0.447   1.715  0.00  0.00    +0.002 C 
ATOM     24  C   UNL     1      -5.970  -0.608   2.834  0.00  0.00    +0.002 C 
ATOM     25  C   UNL     1      -4.609  -1.260   2.514  0.00  0.00    +0.027 C 
ENDBRANCH  20  21
ENDBRANCH   1  16
BRANCH   1  26
ATOM     26  N   UNL     1       0.112   0.204  -0.019  0.00  0.00    -0.282 NA
BRANCH  26  27
ATOM     27  C   UNL     1       0.826  -0.532  -1.071  0.00  0.00    +0.128 C 
BRANCH  27  28
ATOM     28  C   UNL     1       2.037   0.255  -1.501  0.00  0.00    +0.004 A 
ATOM     29  C   UNL     1       3.311   0.179  -1.043  0.00  0.00    +0.012 A 
ATOM     30  C   UNL     1       4.271   1.007  -1.595  0.00  0.00    +0.008 A 
ATOM     31  C   UNL     1       3.908   1.876  -2.570  0.00  0.00    +0.045 A 
ATOM     32  S   UNL     1       2.165   1.533  -2.741  0.00  0.00    -0.100 S 
ENDBRANCH  27  28
ENDBRANCH  26  27
BRANCH  26  33
ATOM     33  C   UNL     1      -0.468   1.446  -0.546  0.00  0.00    +0.117 C 
BRANCH  33  34
ATOM     34  C   UNL     1      -0.711   2.424   0.605  0.00  0.00    +0.132 C 
ATOM     35  C   UNL     1      -1.249   3.768   0.064  0.00  0.00    +0.035 C 
ATOM     36  C   UNL     1      -0.579   4.830   0.964  0.00  0.00    +0.031 C 
ATOM     37  C   UNL     1       0.285   4.003   1.941  0.00  0.00    +0.160 C 
ATOM     38  O   UNL     1       0.537   2.760   1.251  0.00  0.00    -0.375 OA
ENDBRANCH  33  34
ENDBRANCH  26  33
ENDBRANCH   1  26
TORSDOF 9
