REMARK  Name = ZINC38984019
REMARK  8 active torsions:
REMARK  status: ('A' for Active; 'I' for Inactive)
REMARK    1  A    between atoms: C_1  and  O_2
REMARK    2  A    between atoms: O_2  and  C_3
REMARK    3  A    between atoms: C_8  and  C_9
REMARK    4  A    between atoms: C_13  and  C_15
REMARK    5  A    between atoms: C_18  and  O_22
REMARK    6  A    between atoms: C_20  and  O_21
REMARK    7  A    between atoms: O_22  and  C_23
REMARK    8  A    between atoms: C_23  and  C_24
REMARK                            x       y       z     vdW  Elec       q    Type
REMARK                         _______ _______ _______ _____ _____    ______ ____
ROOT
ATOM      1  C   UNL     1      -1.170  -4.689  -1.163  0.00  0.00    +0.022 A 
ATOM      2  C   UNL     1      -0.900  -5.998  -0.813  0.00  0.00    +0.013 A 
ATOM      3  C   UNL     1      -0.848  -6.978  -1.785  0.00  0.00    +0.046 A 
ATOM      4  C   UNL     1      -1.067  -6.650  -3.116  0.00  0.00    +0.124 A 
ATOM      5  C   UNL     1      -1.338  -5.338  -3.469  0.00  0.00    +0.091 A 
ATOM      6  C   UNL     1      -1.395  -4.356  -2.491  0.00  0.00    +0.126 A 
ENDROOT
BRANCH   1  11
ATOM      7  C   UNL     1       0.070  -2.829  -0.065  0.00  0.00    +0.011 C 
ATOM      8  C   UNL     1       0.547  -3.055   1.183  0.00  0.00    +0.139 C 
ATOM      9  N   UNL     1      -0.277  -3.861   1.863  0.00  0.00    -0.185 NA
ATOM     10  N   UNL     1      -1.276  -4.227   1.242  0.00  0.00    -0.297 N 
ATOM     11  C   UNL     1      -1.226  -3.622  -0.100  0.00  0.00    +0.164 C 
ATOM     12  H   UNL     1      -1.975  -4.809   1.578  0.00  0.00    +0.183 HD
BRANCH   7  18
ATOM     13  C   UNL     1       0.605  -0.606  -1.054  0.00  0.00    +0.128 A 
ATOM     14  C   UNL     1       1.172   0.159  -2.061  0.00  0.00    +0.046 A 
ATOM     15  C   UNL     1       1.786  -0.456  -3.136  0.00  0.00    +0.004 A 
ATOM     16  C   UNL     1       1.839  -1.838  -3.218  0.00  0.00    +0.001 A 
ATOM     17  C   UNL     1       1.281  -2.615  -2.227  0.00  0.00    +0.012 A 
ATOM     18  C   UNL     1       0.662  -2.007  -1.129  0.00  0.00    +0.024 A 
BRANCH  13  20
ATOM     19  C   UNL     1      -0.017   1.425   0.010  0.00  0.00    +0.277 C 
ATOM     20  O   UNL     1       0.002  -0.004   0.002  0.00  0.00    -0.495 OA
ENDBRANCH  13  20
ENDBRANCH   7  18
ENDBRANCH   1  11
BRANCH   6  21
ATOM     21  O   UNL     1      -1.667  -3.070  -2.834  0.00  0.00    -0.506 OA
ATOM     22  H   UNL     1      -0.882  -2.544  -3.041  0.00  0.00    +0.292 HD
ENDBRANCH   6  21
BRANCH   4  23
ATOM     23  O   UNL     1      -1.015  -7.615  -4.071  0.00  0.00    -0.487 OA
BRANCH  23  24
ATOM     24  C   UNL     1      -0.730  -8.946  -3.635  0.00  0.00    +0.264 C 
BRANCH  24  25
ATOM     25  C   UNL     1      -0.714  -9.871  -4.824  0.00  0.00    -0.009 A 
ATOM     26  C   UNL     1      -1.879 -10.496  -5.230  0.00  0.00    +0.007 A 
ATOM     27  C   UNL     1      -1.865 -11.345  -6.321  0.00  0.00    +0.002 A 
ATOM     28  C   UNL     1      -0.685 -11.571  -7.006  0.00  0.00    +0.020 A 
ATOM     29  C   UNL     1       0.480 -10.947  -6.600  0.00  0.00    +0.041 A 
ATOM     30  C   UNL     1       0.464 -10.092  -5.512  0.00  0.00    +0.027 A 
ATOM     31 CL   UNL     1       1.962 -11.230  -7.460  0.00  0.00    -0.084 Cl
ENDBRANCH  24  25
ENDBRANCH  23  24
ENDBRANCH   4  23
TORSDOF 7
