REMARK  Name = ZINC39943591
REMARK  7 active torsions:
REMARK  status: ('A' for Active; 'I' for Inactive)
REMARK    1  A    between atoms: C_4  and  C_7
REMARK    2  A    between atoms: C_8  and  C_9
REMARK    3  A    between atoms: C_10  and  C_11
REMARK    4  A    between atoms: C_10  and  N_24
REMARK    5  A    between atoms: N_13  and  N_14
REMARK    6  A    between atoms: N_14  and  C_15
REMARK    7  A    between atoms: C_25  and  C_27
REMARK                            x       y       z     vdW  Elec       q    Type
REMARK                         _______ _______ _______ _____ _____    ______ ____
ROOT
ATOM      1  C   UNL     1       5.091  -2.787  -0.070  0.00  0.00    +0.028 C 
ATOM      2  C   UNL     1       4.933  -4.139  -0.069  0.00  0.00    +0.098 C 
ENDROOT
BRANCH   2   3
ATOM      3  C   UNL     1       6.108  -5.015  -0.132  0.00  0.00    +0.274 C 
ATOM      4  O   UNL     1       6.686  -5.334   0.891  0.00  0.00    -0.267 OA
ATOM      5  N   UNL     1       6.548  -5.467  -1.323  0.00  0.00    -0.232 N 
ATOM      6  H   UNL     1       6.134  -5.156  -2.143  0.00  0.00    +0.173 HD
BRANCH   5   7
ATOM      7  N   UNL     1       7.604  -6.387  -1.377  0.00  0.00    -0.265 N 
ATOM      8  H   UNL     1       8.066  -6.643  -0.563  0.00  0.00    +0.170 HD
BRANCH   7   9
ATOM      9  C   UNL     1       7.980  -6.920  -2.568  0.00  0.00    +0.068 C 
ATOM     10  C   UNL     1       7.423  -6.509  -3.750  0.00  0.00    +0.154 C 
ATOM     11  N   UNL     1       7.791  -7.028  -4.905  0.00  0.00    -0.164 NA
ATOM     12  N   UNL     1       8.670  -7.938  -5.075  0.00  0.00    -0.079 NA
ATOM     13  C   UNL     1       9.351  -8.496  -4.063  0.00  0.00    +0.277 C 
ATOM     14  O   UNL     1      10.182  -9.360  -4.261  0.00  0.00    -0.270 OA
ATOM     15  C   UNL     1       9.046  -8.000  -2.660  0.00  0.00    +0.216 C 
ATOM     16 CL   UNL     1      10.568  -7.356  -1.938  0.00  0.00    -0.105 Cl
ENDBRANCH   7   9
ENDBRANCH   5   7
ENDBRANCH   2   3
BRANCH   2  17
ATOM     17  N   UNL     1       3.652  -4.692  -0.007  0.00  0.00    -0.277 N 
ATOM     18  C   UNL     1       3.498  -6.026   0.110  0.00  0.00    +0.248 C 
ATOM     19  O   UNL     1       4.471  -6.738   0.265  0.00  0.00    -0.270 OA
ATOM     20  H   UNL     1       2.872  -4.116  -0.048  0.00  0.00    +0.155 HD
BRANCH  18  21
ATOM     21  C   UNL     1       2.148  -6.623   0.049  0.00  0.00    +0.037 A 
ATOM     22  C   UNL     1       1.029  -5.808  -0.134  0.00  0.00    +0.013 A 
ATOM     23  C   UNL     1      -0.229  -6.372  -0.190  0.00  0.00    +0.001 A 
ATOM     24  C   UNL     1      -0.383  -7.741  -0.064  0.00  0.00    +0.000 A 
ATOM     25  C   UNL     1       0.721  -8.554   0.118  0.00  0.00    +0.001 A 
ATOM     26  C   UNL     1       1.985  -8.004   0.170  0.00  0.00    +0.013 A 
ENDBRANCH  18  21
ENDBRANCH   2  17
BRANCH   1  28
ATOM     27  C   UNL     1       4.118  -0.601  -0.010  0.00  0.00    +0.008 C 
ATOM     28  C   UNL     1       3.961  -1.945  -0.009  0.00  0.00    +0.003 C 
BRANCH  27  32
ATOM     29  C   UNL     1       0.722   1.932   0.172  0.00  0.00    +0.000 A 
ATOM     30  C   UNL     1       1.990   2.484   0.112  0.00  0.00    +0.001 A 
ATOM     31  C   UNL     1       3.099   1.667   0.053  0.00  0.00    +0.008 A 
ATOM     32  C   UNL     1       2.941   0.277   0.054  0.00  0.00    -0.025 A 
ATOM     33  C   UNL     1       1.656  -0.273   0.115  0.00  0.00    +0.008 A 
ATOM     34  C   UNL     1       0.556   0.557   0.174  0.00  0.00    +0.001 A 
ENDBRANCH  27  32
ENDBRANCH   1  28
TORSDOF 7
