REMARK  Name = ZINC01489678
REMARK  4 active torsions:
REMARK  status: ('A' for Active; 'I' for Inactive)
REMARK    1  A    between atoms: C_3  and  S_11
REMARK    2  A    between atoms: C_6  and  C_7
REMARK    3  A    between atoms: S_11  and  N_14
REMARK    4  A    between atoms: N_25  and  C_28
REMARK                            x       y       z     vdW  Elec       q    Type
REMARK                         _______ _______ _______ _____ _____    ______ ____
ROOT
ATOM      1  N   UNL     1       1.899  -3.850  -1.789  0.00  0.00    -0.174 NA
ATOM      2  C   UNL     1       0.721  -4.421  -2.458  0.00  0.00    +0.128 C 
ATOM      3  C   UNL     1       0.154  -3.368  -3.425  0.00  0.00    +0.126 C 
ATOM      4  N   UNL     1       1.255  -2.849  -4.250  0.00  0.00    -0.283 N 
ATOM      5  C   UNL     1       2.435  -2.283  -3.581  0.00  0.00    +0.126 C 
ATOM      6  C   UNL     1       2.999  -3.331  -2.614  0.00  0.00    +0.128 C 
ATOM      7  C   UNL     1       1.183  -2.891  -5.595  0.00  0.00    +0.305 C 
ATOM      8  O   UNL     1       2.169  -2.650  -6.264  0.00  0.00    -0.252 OA
ATOM      9  N   UNL     1       0.018  -3.201  -6.198  0.00  0.00    -0.282 N 
ATOM     10  C   UNL     1      -1.264  -3.018  -5.502  0.00  0.00    +0.128 C 
ATOM     11  C   UNL     1      -2.199  -2.211  -6.417  0.00  0.00    +0.124 C 
ATOM     12  N   UNL     1      -2.291  -2.876  -7.724  0.00  0.00    -0.326 N 
ATOM     13  C   UNL     1      -0.987  -2.905  -8.399  0.00  0.00    +0.124 C 
ATOM     14  C   UNL     1      -0.003  -3.736  -7.568  0.00  0.00    +0.128 C 
ENDROOT
BRANCH  12  15
ATOM     15  C   UNL     1      -3.255  -2.269  -8.525  0.00  0.00    +0.051 A 
ATOM     16  C   UNL     1      -3.107  -0.948  -8.946  0.00  0.00    +0.042 A 
ATOM     17  C   UNL     1      -4.082  -0.386  -9.744  0.00  0.00    +0.084 A 
ATOM     18  C   UNL     1      -5.327  -2.329  -9.718  0.00  0.00    +0.104 A 
ATOM     19  C   UNL     1      -4.396  -2.966  -8.924  0.00  0.00    +0.078 A 
ATOM     20 CL   UNL     1      -4.641  -4.612  -8.427  0.00  0.00    -0.080 Cl
ATOM     21  N   UNL     1      -5.204  -1.043 -10.146  0.00  0.00    -0.366 N 
ATOM     22  H   UNL     1      -5.914  -0.596 -10.737  0.00  0.00    +0.165 HD
ENDBRANCH  12  15
BRANCH   1  23
ATOM     23  S   UNL     1       1.987  -3.799  -0.137  0.00  0.00    +0.061 S 
ATOM     24  O   UNL     1       3.368  -3.751   0.195  0.00  0.00    -0.153 OA
ATOM     25  O   UNL     1       1.123  -4.818   0.348  0.00  0.00    -0.153 OA
BRANCH  23  28
ATOM     26  C   UNL     1      -0.605  -0.968   1.052  0.00  0.00    +0.014 A 
ATOM     27  C   UNL     1      -0.059  -2.173   0.650  0.00  0.00    +0.029 A 
ATOM     28  C   UNL     1       1.292  -2.263   0.375  0.00  0.00    +0.106 A 
ATOM     29  C   UNL     1       2.099  -1.148   0.503  0.00  0.00    +0.029 A 
ATOM     30  C   UNL     1       1.554   0.057   0.904  0.00  0.00    +0.014 A 
ATOM     31  C   UNL     1       0.202   0.147   1.180  0.00  0.00    +0.055 A 
BRANCH  31  32
ATOM     32  C   UNL     1      -0.392   1.460   1.619  0.00  0.00    +0.417 C 
ATOM     33  F   UNL     1      -0.342   1.553   3.014  0.00  0.00    -0.166 F 
ATOM     34  F   UNL     1       0.337   2.513   1.055  0.00  0.00    -0.166 F 
ATOM     35  F   UNL     1      -1.723   1.535   1.194  0.00  0.00    -0.166 F 
ENDBRANCH  31  32
ENDBRANCH  23  28
ENDBRANCH   1  23
TORSDOF 4
