REMARK  Name = ZINC64502993
REMARK  4 active torsions:
REMARK  status: ('A' for Active; 'I' for Inactive)
REMARK    1  A    between atoms: C_1  and  C_2
REMARK    2  A    between atoms: C_5  and  N_8
REMARK    3  A    between atoms: C_13  and  N_16
REMARK    4  A    between atoms: C_22  and  C_24
REMARK                            x       y       z     vdW  Elec       q    Type
REMARK                         _______ _______ _______ _____ _____    ______ ____
ROOT
ATOM      1  N   UNL     1       0.951  -6.804   2.289  0.00  0.00    -0.280 NA
ATOM      2  C   UNL     1       1.810  -7.994   2.224  0.00  0.00    +0.105 C 
ATOM      3  C   UNL     1       1.575  -8.859   3.467  0.00  0.00    +0.123 C 
ATOM      4  N   UNL     1       1.761  -8.022   4.662  0.00  0.00    -0.297 N 
ATOM      5  C   UNL     1       1.035  -6.744   4.736  0.00  0.00    +0.123 C 
ATOM      6  C   UNL     1       1.292  -5.962   3.444  0.00  0.00    +0.105 C 
ATOM      7  C   UNL     1       2.574  -8.414   5.662  0.00  0.00    +0.242 C 
ATOM      8  O   UNL     1       3.165  -9.471   5.584  0.00  0.00    -0.273 OA
ENDROOT
BRANCH   7   9
ATOM      9  C   UNL     1       2.751  -7.541   6.877  0.00  0.00    +0.190 C 
ATOM     10  C   UNL     1       3.364  -6.216   6.482  0.00  0.00    +0.016 C 
ATOM     11  C   UNL     1       4.538  -6.133   7.149  0.00  0.00    -0.002 A 
ATOM     12  C   UNL     1       5.587  -5.107   7.192  0.00  0.00    +0.029 A 
ATOM     13  C   UNL     1       6.673  -5.312   7.972  0.00  0.00    +0.042 A 
ATOM     14  C   UNL     1       6.822  -6.477   8.738  0.00  0.00    +0.022 A 
ATOM     15  C   UNL     1       5.901  -7.464   8.750  0.00  0.00    +0.027 A 
ATOM     16  C   UNL     1       4.719  -7.354   7.967  0.00  0.00    +0.043 A 
ATOM     17  N   UNL     1       3.695  -8.161   7.813  0.00  0.00    -0.370 N 
ATOM     18 CL   UNL     1       7.916  -4.101   8.025  0.00  0.00    -0.084 Cl
ATOM     19  H   UNL     1       3.582  -9.022   8.244  0.00  0.00    +0.161 HD
ENDBRANCH   7   9
BRANCH   1  25
ATOM     20  N   UNL     1       0.059  -4.169  -0.021  0.00  0.00    -0.200 N 
ATOM     21  C   UNL     1      -0.035  -4.830  -1.193  0.00  0.00    +0.257 C 
ATOM     22  O   UNL     1      -0.175  -4.221  -2.236  0.00  0.00    -0.269 OA
ATOM     23  C   UNL     1       0.034  -6.303  -1.187  0.00  0.00    +0.068 C 
ATOM     24  C   UNL     1       0.544  -6.898  -0.104  0.00  0.00    +0.014 C 
ATOM     25  C   UNL     1       1.019  -6.036   1.039  0.00  0.00    +0.166 C 
ATOM     26  N   UNL     1       0.177  -4.846   1.155  0.00  0.00    -0.212 NA
ATOM     27  H   UNL     1      -0.730  -5.084   1.528  0.00  0.00    +0.147 HD
BRANCH  20  32
ATOM     28  C   UNL     1      -0.018   1.503   0.009  0.00  0.00    +0.044 C 
ATOM     29  C   UNL     1       0.003  -0.004   0.001  0.00  0.00    -0.050 A 
ATOM     30  C   UNL     1       0.833  -0.678  -0.876  0.00  0.00    +0.005 A 
ATOM     31  C   UNL     1       0.854  -2.059  -0.885  0.00  0.00    +0.025 A 
ATOM     32  C   UNL     1       0.040  -2.771  -0.013  0.00  0.00    +0.053 A 
ATOM     33  C   UNL     1      -0.792  -2.091   0.866  0.00  0.00    +0.025 A 
ATOM     34  C   UNL     1      -0.805  -0.710   0.874  0.00  0.00    +0.005 A 
ENDBRANCH  20  32
ENDBRANCH   1  25
TORSDOF 3
