REMARK  Name = ZINC13117936
REMARK  8 active torsions:
REMARK  status: ('A' for Active; 'I' for Inactive)
REMARK    1  A    between atoms: C_4  and  C_7
REMARK    2  A    between atoms: C_7  and  N_8
REMARK    3  A    between atoms: C_9  and  N_35
REMARK    4  A    between atoms: C_10  and  N_17
REMARK    5  A    between atoms: N_17  and  C_18
REMARK    6  A    between atoms: C_18  and  C_19
REMARK    7  A    between atoms: C_24  and  C_26
REMARK    8  A    between atoms: C_26  and  C_27
REMARK                            x       y       z     vdW  Elec       q    Type
REMARK                         _______ _______ _______ _____ _____    ______ ____
ROOT
ATOM      1  N   UNL     1      -3.333   0.618  -4.049  0.00  0.00    -0.276 N 
ATOM      2  C   UNL     1      -2.353  -0.064  -3.365  0.00  0.00    +0.128 A 
ATOM      3  C   UNL     1      -2.615  -0.517  -2.088  0.00  0.00    +0.140 A 
ATOM      4  C   UNL     1      -3.875  -0.256  -1.520  0.00  0.00    +0.277 A 
ATOM      5  O   UNL     1      -4.131  -0.641  -0.391  0.00  0.00    -0.266 OA
ATOM      6  N   UNL     1      -4.798   0.421  -2.231  0.00  0.00    -0.273 N 
ATOM      7  H   UNL     1      -5.694   0.607  -1.828  0.00  0.00    +0.173 HD
ATOM      8  C   UNL     1      -4.527   0.850  -3.476  0.00  0.00    +0.331 A 
ATOM      9  O   UNL     1      -5.378   1.460  -4.096  0.00  0.00    -0.246 OA
ENDROOT
BRANCH   3  10
ATOM     10  N   UNL     1      -1.633  -1.224  -1.363  0.00  0.00    -0.257 N 
ATOM     11  C   UNL     1      -1.211  -2.430  -1.797  0.00  0.00    +0.225 C 
ATOM     12  O   UNL     1      -1.607  -2.865  -2.859  0.00  0.00    -0.275 OA
BRANCH  10  13
ATOM     13  C   UNL     1      -1.071  -0.650  -0.138  0.00  0.00    +0.188 C 
BRANCH  13  14
ATOM     14  C   UNL     1       0.121   0.205  -0.485  0.00  0.00    +0.122 A 
ATOM     15  C   UNL     1       0.089   1.518  -0.773  0.00  0.00    +0.046 A 
ATOM     16  C   UNL     1       1.422   1.912  -1.035  0.00  0.00    +0.041 A 
ATOM     17  C   UNL     1       2.188   0.816  -0.891  0.00  0.00    +0.195 A 
ATOM     18  O   UNL     1       1.394  -0.215  -0.557  0.00  0.00    -0.466 OA
ENDBRANCH  13  14
ENDBRANCH  10  13
BRANCH  11  19
ATOM     19  C   UNL     1      -0.248  -3.237  -0.965  0.00  0.00    +0.131 C 
BRANCH  19  20
ATOM     20  C   UNL     1       0.061  -4.533  -1.669  0.00  0.00    -0.037 A 
ATOM     21  C   UNL     1      -0.715  -5.652  -1.429  0.00  0.00    +0.005 A 
ATOM     22  C   UNL     1      -0.435  -6.840  -2.078  0.00  0.00    +0.022 A 
ATOM     23  C   UNL     1       0.628  -6.912  -2.960  0.00  0.00    +0.059 A 
ATOM     24  C   UNL     1       1.409  -5.793  -3.196  0.00  0.00    +0.060 A 
ATOM     25  C   UNL     1       1.124  -4.604  -2.549  0.00  0.00    +0.025 A 
ATOM     26 CL   UNL     1       2.744  -5.883  -4.302  0.00  0.00    -0.082 Cl
ATOM     27 CL   UNL     1       0.984  -8.405  -3.771  0.00  0.00    -0.082 Cl
ENDBRANCH  19  20
ENDBRANCH  11  19
ENDBRANCH   3  10
BRANCH   2  28
ATOM     28  N   UNL     1      -1.131  -0.297  -3.949  0.00  0.00    -0.343 N 
ATOM     29  H   UNL     1      -0.418  -0.706  -3.434  0.00  0.00    +0.144 HD
ATOM     30  H   UNL     1      -0.981  -0.051  -4.875  0.00  0.00    +0.144 HD
ENDBRANCH   2  28
BRANCH   1  31
ATOM     31  C   UNL     1      -3.071   1.101  -5.407  0.00  0.00    +0.163 C 
BRANCH  31  35
ATOM     32  C   UNL     1      -1.423   5.037  -5.228  0.00  0.00    +0.000 A 
ATOM     33  C   UNL     1      -0.587   3.937  -5.208  0.00  0.00    +0.000 A 
ATOM     34  C   UNL     1      -1.120   2.663  -5.266  0.00  0.00    +0.005 A 
ATOM     35  C   UNL     1      -2.489   2.490  -5.344  0.00  0.00    -0.028 A 
ATOM     36  C   UNL     1      -3.325   3.590  -5.368  0.00  0.00    +0.005 A 
ATOM     37  C   UNL     1      -2.792   4.864  -5.305  0.00  0.00    +0.000 A 
ENDBRANCH  31  35
ENDBRANCH   1  31
TORSDOF 8
