REMARK  Name = ZINC36737275
REMARK  10 active torsions:
REMARK  status: ('A' for Active; 'I' for Inactive)
REMARK    1  A    between atoms: C_1  and  C_2
REMARK    2  A    between atoms: C_2  and  C_4
REMARK    3  A    between atoms: C_2  and  C_17
REMARK    4  A    between atoms: C_4  and  C_5
REMARK    5  A    between atoms: N_7  and  C_8
REMARK    6  A    between atoms: C_9  and  N_16
REMARK    7  A    between atoms: C_17  and  C_18
REMARK    8  A    between atoms: C_18  and  C_19
REMARK    9  A    between atoms: C_18  and  C_20
REMARK   10  A    between atoms: C_18  and  C_21
REMARK                            x       y       z     vdW  Elec       q    Type
REMARK                         _______ _______ _______ _____ _____    ______ ____
ROOT
ATOM      1  C   UNL     1       2.739  -3.379   0.434  0.00  0.00    +0.218 C 
ATOM      2  O   UNL     1       2.435  -4.551   0.501  0.00  0.00    -0.275 OA
ATOM      3  N   UNL     1       3.139  -2.853  -0.741  0.00  0.00    -0.283 N 
ATOM      4  H   UNL     1       3.353  -1.909  -0.802  0.00  0.00    +0.155 HD
ENDROOT
BRANCH   3   5
ATOM      5  C   UNL     1       3.247  -3.671  -1.875  0.00  0.00    +0.068 A 
ATOM      6  C   UNL     1       4.483  -4.207  -2.236  0.00  0.00    +0.048 A 
ATOM      7  C   UNL     1       4.583  -5.016  -3.358  0.00  0.00    +0.040 A 
ATOM      8  C   UNL     1       3.458  -5.289  -4.116  0.00  0.00    +0.021 A 
ATOM      9  C   UNL     1       2.232  -4.757  -3.759  0.00  0.00    +0.032 A 
ATOM     10  C   UNL     1       2.123  -3.954  -2.637  0.00  0.00    +0.042 A 
ATOM     11 BR   UNL     1       0.443  -3.237  -2.148  0.00  0.00    -0.048 Br
ATOM     12 BR   UNL     1       3.597  -6.391  -5.646  0.00  0.00    -0.050 Br
BRANCH   6  13
ATOM     13  N   UNL     1       5.619  -3.929  -1.468  0.00  0.00    -0.356 N 
ATOM     14  H   UNL     1       5.548  -3.363  -0.684  0.00  0.00    +0.142 HD
ATOM     15  H   UNL     1       6.478  -4.303  -1.721  0.00  0.00    +0.142 HD
ENDBRANCH   6  13
ENDBRANCH   3   5
BRANCH   1  16
ATOM     16  C   UNL     1       2.671  -2.511   1.663  0.00  0.00    +0.099 C 
BRANCH  16  18
ATOM     17  C   UNL     1       3.232  -4.421   3.173  0.00  0.00    +0.008 C 
ATOM     18  C   UNL     1       2.191  -3.346   2.852  0.00  0.00    -0.005 C 
BRANCH  18  19
ATOM     19  C   UNL     1       2.002  -2.440   4.070  0.00  0.00    +0.010 C 
BRANCH  19  20
ATOM     20  C   UNL     1       0.546  -1.972   4.136  0.00  0.00    -0.037 C 
ATOM     21  C   UNL     1       0.357  -1.065   5.353  0.00  0.00    +0.010 C 
ATOM     22  C   UNL     1       0.202  -1.195   2.863  0.00  0.00    +0.010 C 
ATOM     23  C   UNL     1      -0.375  -3.187   4.257  0.00  0.00    +0.010 C 
ENDBRANCH  19  20
ENDBRANCH  18  19
ENDBRANCH  16  18
ENDBRANCH   1  16
TORSDOF 6
