REMARK  Name = ZINC38899345
REMARK  10 active torsions:
REMARK  status: ('A' for Active; 'I' for Inactive)
REMARK    1  A    between atoms: C_1  and  C_2
REMARK    2  A    between atoms: C_3  and  C_20
REMARK    3  A    between atoms: C_8  and  S_10
REMARK    4  A    between atoms: S_10  and  C_11
REMARK    5  A    between atoms: C_11  and  C_13
REMARK    6  A    between atoms: C_11  and  C_14
REMARK    7  A    between atoms: C_20  and  C_21
REMARK    8  A    between atoms: N_23  and  C_24
REMARK    9  A    between atoms: C_29  and  S_30
REMARK   10  A    between atoms: S_30  and  C_31
REMARK                            x       y       z     vdW  Elec       q    Type
REMARK                         _______ _______ _______ _____ _____    ______ ____
ROOT
ATOM      1  C   UNL     1      -0.021   1.477   0.028  0.00  0.00    +0.066 C 
ATOM      2  C   UNL     1      -0.006  -0.030   0.011  0.00  0.00    +0.050 A 
ATOM      3  C   UNL     1      -1.183  -0.723   0.004  0.00  0.00    +0.047 A 
ATOM      4  C   UNL     1      -1.144  -2.128  -0.013  0.00  0.00    +0.256 A 
ATOM      5  O   UNL     1      -2.176  -2.778  -0.019  0.00  0.00    -0.267 OA
ATOM      6  N   UNL     1       0.057  -2.744  -0.022  0.00  0.00    -0.302 N 
ATOM      7  H   UNL     1       0.108  -3.713  -0.034  0.00  0.00    +0.171 HD
ATOM      8  C   UNL     1       1.198  -2.001  -0.015  0.00  0.00    +0.170 A 
ATOM      9  N   UNL     1       1.153  -0.682  -0.004  0.00  0.00    -0.228 NA
ENDROOT
BRANCH   8  10
ATOM     10  S   UNL     1       2.762  -2.814  -0.026  0.00  0.00    -0.080 S 
BRANCH  10  11
ATOM     11  C   UNL     1       3.963  -1.454  -0.012  0.00  0.00    +0.081 C 
ATOM     12  C   UNL     1       3.842  -0.653  -1.310  0.00  0.00    +0.024 C 
BRANCH  11  13
ATOM     13  C   UNL     1       5.356  -2.017   0.103  0.00  0.00    -0.034 A 
ATOM     14  C   UNL     1       5.839  -2.873  -0.869  0.00  0.00    +0.005 A 
ATOM     15  C   UNL     1       7.117  -3.389  -0.763  0.00  0.00    +0.000 A 
ATOM     16  C   UNL     1       7.913  -3.048   0.315  0.00  0.00    +0.000 A 
ATOM     17  C   UNL     1       7.431  -2.191   1.286  0.00  0.00    +0.000 A 
ATOM     18  C   UNL     1       6.154  -1.672   1.178  0.00  0.00    +0.005 A 
ENDBRANCH  11  13
ENDBRANCH  10  11
ENDBRANCH   8  10
BRANCH   3  19
ATOM     19  C   UNL     1      -2.501   0.007   0.016  0.00  0.00    +0.138 C 
BRANCH  19  20
ATOM     20  C   UNL     1      -3.003   0.159  -1.397  0.00  0.00    +0.222 C 
ATOM     21  O   UNL     1      -2.354  -0.281  -2.322  0.00  0.00    -0.275 OA
ATOM     22  N   UNL     1      -4.173   0.785  -1.633  0.00  0.00    -0.284 N 
ATOM     23  H   UNL     1      -4.724   1.080  -0.890  0.00  0.00    +0.155 HD
BRANCH  22  24
ATOM     24  C   UNL     1      -4.595   1.010  -2.950  0.00  0.00    +0.047 A 
ATOM     25  C   UNL     1      -4.308   0.082  -3.940  0.00  0.00    +0.024 A 
ATOM     26  C   UNL     1      -4.725   0.306  -5.239  0.00  0.00    +0.002 A 
ATOM     27  C   UNL     1      -5.428   1.454  -5.556  0.00  0.00    +0.001 A 
ATOM     28  C   UNL     1      -5.719   2.384  -4.576  0.00  0.00    +0.016 A 
ATOM     29  C   UNL     1      -5.309   2.165  -3.268  0.00  0.00    +0.029 A 
BRANCH  29  30
ATOM     30  S   UNL     1      -5.684   3.346  -2.016  0.00  0.00    -0.127 S 
ATOM     31  C   UNL     1      -6.602   4.641  -2.894  0.00  0.00    +0.090 C 
ENDBRANCH  29  30
ENDBRANCH  22  24
ENDBRANCH  19  20
ENDBRANCH   3  19
TORSDOF 7
