REMARK  Name = ZINC09271560
REMARK  13 active torsions:
REMARK  status: ('A' for Active; 'I' for Inactive)
REMARK    1  A    between atoms: C_1  and  C_2
REMARK    2  A    between atoms: C_3  and  C_13
REMARK    3  A    between atoms: C_4  and  C_12
REMARK    4  A    between atoms: C_7  and  C_8
REMARK    5  A    between atoms: C_8  and  O_10
REMARK    6  A    between atoms: O_10  and  C_11
REMARK    7  A    between atoms: C_13  and  C_15
REMARK    8  A    between atoms: N_19  and  C_29
REMARK    9  A    between atoms: C_20  and  C_22
REMARK   10  A    between atoms: C_29  and  C_30
REMARK   11  A    between atoms: C_30  and  N_31
REMARK   12  A    between atoms: N_31  and  C_32
REMARK   13  A    between atoms: N_31  and  C_33
REMARK                            x       y       z     vdW  Elec       q    Type
REMARK                         _______ _______ _______ _____ _____    ______ ____
ROOT
ATOM      1  C   UNL     1      -0.330  -0.960  -4.086  0.00  0.00    +0.076 C 
ATOM      2  C   UNL     1      -0.096  -0.549  -5.354  0.00  0.00    +0.249 C 
ATOM      3  C   UNL     1      -0.197  -1.707  -6.266  0.00  0.00    +0.288 C 
ATOM      4  O   UNL     1      -0.038  -1.662  -7.470  0.00  0.00    -0.266 OA
ATOM      5  N   UNL     1      -0.490  -2.819  -5.567  0.00  0.00    -0.285 N 
ATOM      6  C   UNL     1      -0.592  -2.447  -4.151  0.00  0.00    +0.145 C 
ATOM      7  O   UNL     1       0.186   0.721  -5.726  0.00  0.00    -0.282 OA
ENDROOT
BRANCH   6   8
ATOM      8  C   UNL     1      -1.974  -2.753  -3.636  0.00  0.00    -0.022 A 
ATOM      9  C   UNL     1      -3.081  -2.455  -4.409  0.00  0.00    +0.007 A 
ATOM     10  C   UNL     1      -4.349  -2.736  -3.937  0.00  0.00    +0.015 A 
ATOM     11  C   UNL     1      -4.511  -3.314  -2.691  0.00  0.00    +0.018 A 
ATOM     12  C   UNL     1      -3.403  -3.612  -1.918  0.00  0.00    +0.015 A 
ATOM     13  C   UNL     1      -2.135  -3.336  -2.393  0.00  0.00    +0.007 A 
ATOM     14 BR   UNL     1      -6.246  -3.698  -2.044  0.00  0.00    -0.050 Br
ENDBRANCH   6   8
BRANCH   1  15
ATOM     15  C   UNL     1      -0.324  -0.125  -2.881  0.00  0.00    +0.197 C 
ATOM     16  O   UNL     1      -1.376   0.211  -2.368  0.00  0.00    -0.287 OA
BRANCH  15  19
ATOM     17  C   UNL     1       0.022   1.866  -0.418  0.00  0.00    +0.047 C 
ATOM     18  C   UNL     1       1.120   1.190  -1.198  0.00  0.00    -0.008 A 
ATOM     19  C   UNL     1       0.955   0.308  -2.290  0.00  0.00    +0.046 A 
ATOM     20  C   UNL     1       2.221  -0.072  -2.700  0.00  0.00    +0.025 A 
ATOM     21  N   UNL     1       3.122   0.536  -1.912  0.00  0.00    -0.352 N 
ATOM     22  H   UNL     1       4.085   0.442  -1.983  0.00  0.00    +0.166 HD
ATOM     23  C   UNL     1       2.462   1.319  -0.988  0.00  0.00    +0.128 A 
ATOM     24  C   UNL     1       2.535  -1.010  -3.837  0.00  0.00    +0.064 C 
BRANCH  23  25
ATOM     25  C   UNL     1       3.094   2.145   0.045  0.00  0.00    +0.356 C 
ATOM     26  O   UNL     1       2.407   2.795   0.809  0.00  0.00    -0.243 OA
BRANCH  25  27
ATOM     27  O   UNL     1       4.439   2.186   0.147  0.00  0.00    -0.463 OA
ATOM     28  C   UNL     1       4.986   3.012   1.177  0.00  0.00    +0.280 C 
ENDBRANCH  25  27
ENDBRANCH  23  25
ENDBRANCH  15  19
ENDBRANCH   1  15
BRANCH   5  29
ATOM     29  C   UNL     1      -0.671  -4.163  -6.121  0.00  0.00    +0.090 C 
BRANCH  29  30
ATOM     30  C   UNL     1       0.674  -4.893  -6.138  0.00  0.00    -0.060 C 
BRANCH  30  31
ATOM     31  N   UNL     1       0.493  -6.240  -6.694  0.00  0.00    +0.377 N 
ATOM     32  C   UNL     1       0.087  -6.139  -8.102  0.00  0.00    -0.097 C 
ATOM     33  C   UNL     1       1.757  -6.982  -6.600  0.00  0.00    -0.097 C 
ATOM     34  H   UNL     1      -0.221  -6.726  -6.172  0.00  0.00    -0.083 HD
ENDBRANCH  30  31
ENDBRANCH  29  30
ENDBRANCH   5  29
TORSDOF 8
