REMARK  Name = ZINC49192702
REMARK  9 active torsions:
REMARK  status: ('A' for Active; 'I' for Inactive)
REMARK    1  A    between atoms: C_1  and  C_2
REMARK    2  A    between atoms: C_2  and  C_3
REMARK    3  A    between atoms: C_3  and  N_4
REMARK    4  A    between atoms: C_5  and  C_7
REMARK    5  A    between atoms: C_7  and  C_9
REMARK    6  A    between atoms: C_7  and  N_10
REMARK    7  A    between atoms: N_10  and  S_11
REMARK    8  A    between atoms: S_11  and  C_14
REMARK    9  A    between atoms: C_15  and  N_22
REMARK                            x       y       z     vdW  Elec       q    Type
REMARK                         _______ _______ _______ _____ _____    ______ ____
ROOT
ATOM      1  S   UNL     1       1.332  -6.893  -4.664  0.00  0.00    +0.062 S 
ATOM      2  O   UNL     1       1.867  -7.351  -5.898  0.00  0.00    -0.153 OA
ATOM      3  O   UNL     1       1.066  -7.769  -3.577  0.00  0.00    -0.153 OA
ENDROOT
BRANCH   1   4
ATOM      4  C   UNL     1      -0.188  -6.085  -5.042  0.00  0.00    +0.140 A 
ATOM      5  C   UNL     1      -1.210  -6.052  -4.103  0.00  0.00    +0.053 A 
ATOM      6  C   UNL     1      -2.406  -5.413  -4.404  0.00  0.00    +0.040 A 
ATOM      7  C   UNL     1      -2.576  -4.814  -5.638  0.00  0.00    +0.021 A 
ATOM      8  C   UNL     1      -1.556  -4.849  -6.572  0.00  0.00    +0.032 A 
ATOM      9  C   UNL     1      -0.361  -5.480  -6.272  0.00  0.00    +0.047 A 
ATOM     10 BR   UNL     1       1.033  -5.518  -7.549  0.00  0.00    -0.048 Br
ATOM     11 BR   UNL     1      -4.204  -3.945  -6.050  0.00  0.00    -0.050 Br
BRANCH   5  12
ATOM     12  N   UNL     1      -1.036  -6.659  -2.857  0.00  0.00    -0.356 N 
ATOM     13  H   UNL     1      -0.145  -6.761  -2.487  0.00  0.00    +0.142 HD
ATOM     14  H   UNL     1      -1.806  -6.979  -2.361  0.00  0.00    +0.142 HD
ENDBRANCH   5  12
ENDBRANCH   1   4
BRANCH   1  15
ATOM     15  N   UNL     1       2.373  -5.737  -4.097  0.00  0.00    -0.178 NA
ATOM     16  H   UNL     1       3.174  -5.518  -4.598  0.00  0.00    +0.149 HD
BRANCH  15  17
ATOM     17  C   UNL     1       2.084  -5.045  -2.838  0.00  0.00    +0.159 C 
ATOM     18  C   UNL     1       2.817  -5.746  -1.692  0.00  0.00    +0.035 C 
BRANCH  17  20
ATOM     19  N   UNL     1       2.387  -2.783  -1.885  0.00  0.00    -0.314 N 
ATOM     20  C   UNL     1       2.551  -3.615  -2.932  0.00  0.00    +0.231 C 
ATOM     21  O   UNL     1       3.072  -3.213  -3.951  0.00  0.00    -0.274 OA
ATOM     22  H   UNL     1       1.970  -3.104  -1.071  0.00  0.00    +0.149 HD
BRANCH  19  23
ATOM     23  C   UNL     1       2.841  -1.393  -1.977  0.00  0.00    +0.104 C 
BRANCH  23  25
ATOM     24  C   UNL     1       3.012   0.782  -0.758  0.00  0.00    +0.005 C 
ATOM     25  C   UNL     1       2.539  -0.670  -0.662  0.00  0.00    +0.015 C 
ENDBRANCH  23  25
ENDBRANCH  19  23
ENDBRANCH  17  20
ENDBRANCH  15  17
ENDBRANCH   1  15
TORSDOF 7
