REMARK  Name = ZINC43275219
REMARK  8 active torsions:
REMARK  status: ('A' for Active; 'I' for Inactive)
REMARK    1  A    between atoms: C_1  and  C_2
REMARK    2  A    between atoms: C_4  and  C_26
REMARK    3  A    between atoms: C_5  and  N_9
REMARK    4  A    between atoms: C_6  and  C_8
REMARK    5  A    between atoms: C_10  and  C_12
REMARK    6  A    between atoms: C_12  and  N_13
REMARK    7  A    between atoms: N_13  and  C_14
REMARK    8  A    between atoms: N_17  and  C_18
REMARK                            x       y       z     vdW  Elec       q    Type
REMARK                         _______ _______ _______ _____ _____    ______ ____
ROOT
ATOM      1  C   UNL     1       0.417  -6.414   1.017  0.00  0.00    +0.205 C 
ENDROOT
BRANCH   1   2
ATOM      2  N   UNL     1       0.850  -6.978   2.298  0.00  0.00    -0.280 N 
ATOM      3  C   UNL     1      -0.141  -7.326   3.318  0.00  0.00    +0.134 C 
ATOM      4  C   UNL     1       2.162  -7.177   2.537  0.00  0.00    +0.307 C 
ATOM      5  O   UNL     1       2.985  -6.888   1.690  0.00  0.00    -0.252 OA
ATOM      6  N   UNL     1       2.561  -7.696   3.715  0.00  0.00    -0.267 N 
ATOM      7  H   UNL     1       1.912  -7.859   4.418  0.00  0.00    +0.156 HD
BRANCH   6   8
ATOM      8  C   UNL     1       3.913  -8.000   3.925  0.00  0.00    +0.070 A 
ATOM      9  C   UNL     1       4.900  -7.232   3.323  0.00  0.00    +0.027 A 
ATOM     10  C   UNL     1       6.232  -7.534   3.531  0.00  0.00    +0.022 A 
ATOM     11  C   UNL     1       6.583  -8.601   4.338  0.00  0.00    +0.044 A 
ATOM     12  C   UNL     1       5.603  -9.370   4.940  0.00  0.00    +0.060 A 
ATOM     13  C   UNL     1       4.268  -9.068   4.740  0.00  0.00    +0.146 A 
ATOM     14  F   UNL     1       3.310  -9.815   5.332  0.00  0.00    -0.203 F 
ATOM     15 CL   UNL     1       8.258  -8.977   4.596  0.00  0.00    -0.083 Cl
ENDBRANCH   6   8
ENDBRANCH   1   2
BRANCH   1  17
ATOM     16  N   UNL     1      -0.008  -4.174   0.057  0.00  0.00    -0.284 N 
ATOM     17  C   UNL     1       0.367  -4.911   1.121  0.00  0.00    +0.235 C 
ATOM     18  O   UNL     1       0.665  -4.365   2.162  0.00  0.00    -0.274 OA
ATOM     19  H   UNL     1      -0.324  -4.612  -0.749  0.00  0.00    +0.155 HD
BRANCH  16  24
ATOM     20  C   UNL     1       0.259   1.488   0.291  0.00  0.00    +0.044 C 
ATOM     21  C   UNL     1       0.188  -0.016   0.229  0.00  0.00    -0.050 A 
ATOM     22  C   UNL     1       0.866  -0.698  -0.765  0.00  0.00    +0.008 A 
ATOM     23  C   UNL     1       0.803  -2.076  -0.825  0.00  0.00    -0.029 A 
ATOM     24  C   UNL     1       0.059  -2.777   0.115  0.00  0.00    +0.039 A 
ATOM     25  C   UNL     1      -0.620  -2.090   1.112  0.00  0.00    -0.029 A 
ATOM     26  C   UNL     1      -0.549  -0.711   1.169  0.00  0.00    +0.008 A 
ATOM     27  C   UNL     1      -1.429  -2.846   2.134  0.00  0.00    +0.045 C 
ATOM     28  C   UNL     1       1.540  -2.819  -1.909  0.00  0.00    +0.045 C 
ENDBRANCH  16  24
ENDBRANCH   1  17
TORSDOF 4
