REMARK  Name = ZINC03427696
REMARK  9 active torsions:
REMARK  status: ('A' for Active; 'I' for Inactive)
REMARK    1  A    between atoms: C_1  and  O_2
REMARK    2  A    between atoms: O_2  and  C_3
REMARK    3  A    between atoms: C_3  and  C_4
REMARK    4  A    between atoms: C_4  and  N_5
REMARK    5  A    between atoms: C_6  and  N_34
REMARK    6  A    between atoms: C_7  and  N_14
REMARK    7  A    between atoms: N_14  and  C_15
REMARK    8  A    between atoms: C_15  and  C_16
REMARK    9  A    between atoms: C_22  and  C_24
REMARK                            x       y       z     vdW  Elec       q    Type
REMARK                         _______ _______ _______ _____ _____    ______ ____
ROOT
ATOM      1  N   UNL     1       0.758  -3.726  -3.740  0.00  0.00    -0.256 N 
ATOM      2  C   UNL     1      -0.319  -2.943  -3.948  0.00  0.00    +0.251 C 
ATOM      3  O   UNL     1      -0.606  -2.590  -5.075  0.00  0.00    -0.270 OA
ENDROOT
BRANCH   2   4
ATOM      4  C   UNL     1      -1.152  -2.514  -2.805  0.00  0.00    +0.038 A 
ATOM      5  C   UNL     1      -0.566  -2.349  -1.537  0.00  0.00    +0.013 A 
ATOM      6  C   UNL     1      -1.310  -1.956  -0.472  0.00  0.00    +0.009 A 
ATOM      7  C   UNL     1      -2.686  -1.707  -0.628  0.00  0.00    -0.018 A 
ATOM      8  C   UNL     1      -3.476  -1.299   0.459  0.00  0.00    +0.008 A 
ATOM      9  C   UNL     1      -4.805  -1.066   0.277  0.00  0.00    +0.001 A 
ATOM     10  C   UNL     1      -5.398  -1.227  -0.974  0.00  0.00    +0.001 A 
ATOM     11  C   UNL     1      -4.665  -1.621  -2.050  0.00  0.00    +0.008 A 
ATOM     12  C   UNL     1      -3.289  -1.871  -1.902  0.00  0.00    -0.017 A 
ATOM     13  C   UNL     1      -2.503  -2.273  -2.992  0.00  0.00    +0.021 A 
ENDBRANCH   2   4
BRANCH   1  16
ATOM     14  N   UNL     1       2.702  -3.986  -0.633  0.00  0.00    -0.278 N 
ATOM     15  C   UNL     1       2.356  -3.642  -1.919  0.00  0.00    +0.127 A 
ATOM     16  C   UNL     1       1.142  -4.063  -2.425  0.00  0.00    +0.140 A 
ATOM     17  C   UNL     1       0.295  -4.833  -1.607  0.00  0.00    +0.277 A 
ATOM     18  O   UNL     1      -0.783  -5.218  -2.029  0.00  0.00    -0.266 OA
ATOM     19  N   UNL     1       0.682  -5.143  -0.354  0.00  0.00    -0.273 N 
ATOM     20  H   UNL     1       0.099  -5.674   0.210  0.00  0.00    +0.173 HD
ATOM     21  C   UNL     1       1.870  -4.729   0.120  0.00  0.00    +0.331 A 
ATOM     22  O   UNL     1       2.197  -5.027   1.253  0.00  0.00    -0.246 OA
BRANCH  15  23
ATOM     23  N   UNL     1       3.207  -2.889  -2.690  0.00  0.00    -0.343 N 
ATOM     24  H   UNL     1       4.045  -2.570  -2.318  0.00  0.00    +0.144 HD
ATOM     25  H   UNL     1       2.971  -2.675  -3.607  0.00  0.00    +0.144 HD
ENDBRANCH  15  23
BRANCH  14  26
ATOM     26  C   UNL     1       3.986  -3.547  -0.082  0.00  0.00    +0.156 C 
BRANCH  26  27
ATOM     27  C   UNL     1       5.057  -4.597  -0.387  0.00  0.00    +0.181 C 
BRANCH  27  29
ATOM     28  C   UNL     1       6.245  -5.632  -2.193  0.00  0.00    +0.194 C 
ATOM     29  O   UNL     1       5.259  -4.676  -1.799  0.00  0.00    -0.381 OA
ENDBRANCH  27  29
ENDBRANCH  26  27
ENDBRANCH  14  26
ENDBRANCH   1  16
BRANCH   1  30
ATOM     30  C   UNL     1       1.531  -4.227  -4.880  0.00  0.00    +0.149 C 
BRANCH  30  31
ATOM     31  C   UNL     1       0.908  -5.502  -5.387  0.00  0.00    -0.030 A 
ATOM     32  C   UNL     1       1.216  -6.708  -4.785  0.00  0.00    +0.005 A 
ATOM     33  C   UNL     1       0.645  -7.878  -5.251  0.00  0.00    +0.000 A 
ATOM     34  C   UNL     1      -0.234  -7.841  -6.317  0.00  0.00    +0.000 A 
ATOM     35  C   UNL     1      -0.542  -6.635  -6.918  0.00  0.00    +0.000 A 
ATOM     36  C   UNL     1       0.026  -5.465  -6.450  0.00  0.00    +0.005 A 
ENDBRANCH  30  31
ENDBRANCH   1  30
TORSDOF 8
