REMARK  Name = ZINC40408573
REMARK  12 active torsions:
REMARK  status: ('A' for Active; 'I' for Inactive)
REMARK    1  A    between atoms: C_3  and  C_6
REMARK    2  A    between atoms: C_6  and  O_7
REMARK    3  A    between atoms: O_7  and  C_8
REMARK    4  A    between atoms: C_8  and  C_9
REMARK    5  A    between atoms: C_9  and  C_11
REMARK    6  A    between atoms: C_9  and  O_38
REMARK    7  A    between atoms: C_11  and  N_12
REMARK    8  A    between atoms: N_12  and  C_13
REMARK    9  A    between atoms: N_12  and  C_21
REMARK   10  A    between atoms: C_13  and  C_14
REMARK   11  A    between atoms: C_14  and  N_15
REMARK   12  A    between atoms: C_21  and  C_22
REMARK                            x       y       z     vdW  Elec       q    Type
REMARK                         _______ _______ _______ _____ _____    ______ ____
ROOT
ATOM      1  N   UNL     1       7.514   0.395   4.197  0.00  0.00    +0.387 N 
ATOM      2  H   UNL     1       6.982   1.097   4.689  0.00  0.00    -0.081 HD
ENDROOT
BRANCH   1   3
ATOM      3  C   UNL     1       7.372   0.598   2.749  0.00  0.00    -0.044 C 
BRANCH   3   4
ATOM      4  C   UNL     1       5.888   0.610   2.378  0.00  0.00    +0.124 C 
BRANCH   4   5
ATOM      5  O   UNL     1       5.256   1.740   2.982  0.00  0.00    -0.391 OA
ATOM      6  H   UNL     1       5.625   2.591   2.708  0.00  0.00    +0.210 HD
ENDBRANCH   4   5
BRANCH   4   7
ATOM      7  C   UNL     1       5.743   0.696   0.858  0.00  0.00    +0.189 C 
BRANCH   7   8
ATOM      8  O   UNL     1       4.362   0.590   0.504  0.00  0.00    -0.370 OA
BRANCH   8   9
ATOM      9  C   UNL     1       4.115   0.659  -0.901  0.00  0.00    +0.234 C 
BRANCH   9  12
ATOM     10  C   UNL     1       0.491   0.995  -1.479  0.00  0.00    +0.041 A 
ATOM     11  C   UNL     1       1.761   1.558  -1.221  0.00  0.00    +0.047 A 
ATOM     12  C   UNL     1       2.635   0.538  -1.158  0.00  0.00    +0.130 A 
ATOM     13  O   UNL     1       1.965  -0.608  -1.363  0.00  0.00    -0.465 OA
ATOM     14  C   UNL     1       0.664  -0.337  -1.558  0.00  0.00    +0.195 A 
ENDBRANCH   9  12
ENDBRANCH   8   9
ENDBRANCH   7   8
ENDBRANCH   4   7
ENDBRANCH   3   4
ENDBRANCH   1   3
BRANCH   1  15
ATOM     15  C   UNL     1       7.013  -0.939   4.556  0.00  0.00    -0.063 C 
BRANCH  15  16
ATOM     16  C   UNL     1       7.041  -1.102   6.077  0.00  0.00    +0.066 C 
BRANCH  16  17
ATOM     17  N   UNL     1       6.429  -2.386   6.443  0.00  0.00    -0.300 NA
ATOM     18  C   UNL     1       4.994  -2.396   6.124  0.00  0.00    +0.112 C 
ATOM     19  C   UNL     1       4.410  -3.769   6.465  0.00  0.00    +0.175 C 
ATOM     20  O   UNL     1       4.659  -4.059   7.843  0.00  0.00    -0.377 OA
ATOM     21  C   UNL     1       6.047  -4.058   8.189  0.00  0.00    +0.175 C 
ATOM     22  C   UNL     1       6.648  -2.688   7.865  0.00  0.00    +0.112 C 
ENDBRANCH  16  17
ENDBRANCH  15  16
ENDBRANCH   1  15
BRANCH   1  23
ATOM     23  C   UNL     1       8.931   0.502   4.571  0.00  0.00    -0.003 C 
BRANCH  23  24
ATOM     24  C   UNL     1       9.399   1.919   4.360  0.00  0.00    +0.094 A 
ATOM     25  N   UNL     1      10.714   2.218   4.526  0.00  0.00    -0.312 N 
ATOM     26  H   UNL     1      11.333   1.514   4.777  0.00  0.00    +0.170 HD
ATOM     27  C   UNL     1      11.175   3.470   4.348  0.00  0.00    +0.260 A 
ATOM     28  O   UNL     1      12.357   3.723   4.501  0.00  0.00    -0.267 OA
ATOM     29  C   UNL     1      10.251   4.501   3.977  0.00  0.00    +0.075 A 
ATOM     30  C   UNL     1      10.528   5.920   3.733  0.00  0.00    -0.023 A 
ATOM     31  C   UNL     1       9.475   6.694   3.398  0.00  0.00    -0.004 A 
ATOM     32  S   UNL     1       8.081   5.595   3.375  0.00  0.00    -0.073 S 
ATOM     33  C   UNL     1       8.916   4.097   3.829  0.00  0.00    +0.116 A 
ATOM     34  N   UNL     1       8.535   2.836   4.016  0.00  0.00    -0.229 NA
ATOM     35  C   UNL     1       9.468   8.164   3.115  0.00  0.00    +0.043 C 
ATOM     36  C   UNL     1      10.590   8.494   2.122  0.00  0.00    +0.005 C 
ATOM     37  C   UNL     1      11.858   8.802   2.912  0.00  0.00    +0.001 C 
ATOM     38  C   UNL     1      11.896   7.961   4.186  0.00  0.00    +0.005 C 
ATOM     39  C   UNL     1      11.944   6.476   3.846  0.00  0.00    +0.037 C 
ENDBRANCH  23  24
ENDBRANCH   1  23
TORSDOF 12
