REMARK  Name = ZINC39481650
REMARK  9 active torsions:
REMARK  status: ('A' for Active; 'I' for Inactive)
REMARK    1  A    between atoms: C_1  and  C_2
REMARK    2  A    between atoms: C_2  and  C_3
REMARK    3  A    between atoms: C_2  and  C_4
REMARK    4  A    between atoms: C_4  and  C_5
REMARK    5  A    between atoms: C_8  and  N_19
REMARK    6  A    between atoms: C_9  and  N_11
REMARK    7  A    between atoms: N_19  and  S_20
REMARK    8  A    between atoms: S_20  and  C_23
REMARK    9  A    between atoms: C_28  and  O_29
REMARK                            x       y       z     vdW  Elec       q    Type
REMARK                         _______ _______ _______ _____ _____    ______ ____
ROOT
ATOM      1  C   UNL     1       2.362   0.336  -0.001  0.00  0.00    -0.045 A 
ATOM      2  C   UNL     1       2.647   1.440  -0.782  0.00  0.00    +0.005 A 
ATOM      3  C   UNL     1       3.958   1.765  -1.077  0.00  0.00    +0.026 A 
ATOM      4  C   UNL     1       4.993   0.982  -0.588  0.00  0.00    +0.069 A 
ATOM      5  C   UNL     1       4.706  -0.132   0.201  0.00  0.00    +0.053 A 
ATOM      6  C   UNL     1       3.388  -0.448   0.495  0.00  0.00    +0.028 A 
ENDROOT
BRANCH   5   7
ATOM      7  N   UNL     1       5.746  -0.927   0.697  0.00  0.00    -0.330 N 
ATOM      8  C   UNL     1       6.359  -0.642   2.004  0.00  0.00    +0.086 C 
ATOM      9  C   UNL     1       7.880  -0.601   1.828  0.00  0.00    -0.060 C 
ATOM     10  N   UNL     1       8.334  -1.851   1.206  0.00  0.00    +0.400 N 
ATOM     11  C   UNL     1       7.783  -1.964  -0.150  0.00  0.00    +0.119 C 
ATOM     12  C   UNL     1       6.253  -2.076  -0.070  0.00  0.00    +0.120 C 
ATOM     13  O   UNL     1       8.312  -3.130  -0.785  0.00  0.00    -0.250 OA
ATOM     14  H   UNL     1       9.342  -1.855   1.159  0.00  0.00    -0.082 HD
ATOM     15  H   UNL     1       8.023  -2.634   1.760  0.00  0.00    -0.082 HD
ENDBRANCH   5   7
BRANCH   4  16
ATOM     16  N   UNL     1       6.321   1.308  -0.885  0.00  0.00    -0.214 N 
ATOM     17  H   UNL     1       6.975   0.605  -1.022  0.00  0.00    +0.174 HD
BRANCH  16  18
ATOM     18  S   UNL     1       6.777   2.896  -1.004  0.00  0.00    +0.076 S 
ATOM     19  O   UNL     1       6.218   3.564   0.119  0.00  0.00    -0.150 OA
ATOM     20  O   UNL     1       8.172   2.899  -1.275  0.00  0.00    -0.150 OA
BRANCH  18  21
ATOM     21  C   UNL     1       5.986   3.561  -2.430  0.00  0.00    +0.150 A 
ATOM     22  C   UNL     1       5.064   4.582  -2.298  0.00  0.00    +0.032 A 
ATOM     23  C   UNL     1       4.442   5.103  -3.417  0.00  0.00    +0.002 A 
ATOM     24  C   UNL     1       4.741   4.605  -4.672  0.00  0.00    +0.004 A 
ATOM     25  C   UNL     1       5.661   3.584  -4.810  0.00  0.00    +0.047 A 
ATOM     26  C   UNL     1       6.291   3.063  -3.689  0.00  0.00    +0.143 A 
BRANCH  26  27
ATOM     27  O   UNL     1       7.201   2.062  -3.823  0.00  0.00    -0.505 OA
ATOM     28  H   UNL     1       6.817   1.175  -3.800  0.00  0.00    +0.292 HD
ENDBRANCH  26  27
ENDBRANCH  18  21
ENDBRANCH  16  18
ENDBRANCH   4  16
BRANCH   1  29
ATOM     29  C   UNL     1       0.931  -0.012   0.317  0.00  0.00    +0.038 C 
BRANCH  29  31
ATOM     30  C   UNL     1       0.516   2.211   1.380  0.00  0.00    +0.007 C 
ATOM     31  C   UNL     1       0.507   0.697   1.604  0.00  0.00    -0.013 C 
ATOM     32  C   UNL     1      -0.903   0.248   1.994  0.00  0.00    +0.007 C 
ENDBRANCH  29  31
ENDBRANCH   1  29
TORSDOF 7
