REMARK  Name = ZINC39684148
REMARK  7 active torsions:
REMARK  status: ('A' for Active; 'I' for Inactive)
REMARK    1  A    between atoms: C_1  and  C_2
REMARK    2  A    between atoms: C_7  and  C_11
REMARK    3  A    between atoms: C_11  and  C_12
REMARK    4  A    between atoms: C_12  and  N_13
REMARK    5  A    between atoms: C_14  and  C_16
REMARK    6  A    between atoms: C_27  and  C_29
REMARK    7  A    between atoms: C_33  and  C_35
REMARK                            x       y       z     vdW  Elec       q    Type
REMARK                         _______ _______ _______ _____ _____    ______ ____
ROOT
ATOM      1  C   UNL     1      -9.141   2.157  -6.489  0.00  0.00    +0.100 C 
ATOM      2  C   UNL     1      -8.327   3.155  -7.344  0.00  0.00    +0.121 C 
ATOM      3  N   UNL     1      -7.938   2.385  -8.549  0.00  0.00    -0.296 N 
ATOM      4  C   UNL     1      -9.133   1.567  -8.866  0.00  0.00    +0.115 C 
ATOM      5  C   UNL     1      -9.671   1.119  -7.492  0.00  0.00    -0.004 C 
ATOM      6  C   UNL     1     -11.197   1.119  -7.497  0.00  0.00    -0.010 C 
ATOM      7  C   UNL     1     -11.700   0.039  -8.458  0.00  0.00    -0.082 C 
ATOM      8  N   UNL     1     -11.193  -1.272  -8.034  0.00  0.00    +0.379 N 
ATOM      9  C   UNL     1      -9.727  -1.293  -8.122  0.00  0.00    -0.082 C 
ATOM     10  C   UNL     1      -9.140  -0.269  -7.146  0.00  0.00    -0.010 C 
ATOM     11  C   UNL     1      -6.763   2.421  -9.208  0.00  0.00    +0.247 C 
ATOM     12  O   UNL     1      -5.830   3.052  -8.752  0.00  0.00    -0.270 OA
ATOM     13  H   UNL     1     -11.474  -1.447  -7.080  0.00  0.00    -0.086 HD
ATOM     14  H   UNL     1     -11.575  -1.988  -8.632  0.00  0.00    -0.086 HD
ENDROOT
BRANCH  11  15
ATOM     15  C   UNL     1      -6.610   1.694 -10.485  0.00  0.00    +0.037 A 
ATOM     16  C   UNL     1      -7.738   1.344 -11.232  0.00  0.00    +0.016 A 
ATOM     17  C   UNL     1      -7.589   0.666 -12.422  0.00  0.00    +0.039 A 
ATOM     18  C   UNL     1      -6.324   0.331 -12.879  0.00  0.00    +0.126 A 
ATOM     19  C   UNL     1      -5.201   0.677 -12.142  0.00  0.00    -0.015 A 
ATOM     20  C   UNL     1      -5.338   1.360 -10.953  0.00  0.00    +0.019 A 
ATOM     21  C   UNL     1      -3.829   0.309 -12.645  0.00  0.00    +0.047 C 
ATOM     22  F   UNL     1      -6.184  -0.334 -14.047  0.00  0.00    -0.205 F 
ENDBRANCH  11  15
BRANCH   1  24
ATOM     23  N   UNL     1      -8.786   0.978  -4.344  0.00  0.00    -0.315 N 
ATOM     24  C   UNL     1      -8.252   1.494  -5.469  0.00  0.00    +0.218 C 
ATOM     25  O   UNL     1      -7.056   1.426  -5.659  0.00  0.00    -0.275 OA
ATOM     26  H   UNL     1      -9.742   1.032  -4.192  0.00  0.00    +0.149 HD
BRANCH  23  27
ATOM     27  C   UNL     1      -7.922   0.333  -3.352  0.00  0.00    +0.109 C 
BRANCH  27  28
ATOM     28  C   UNL     1      -8.773  -0.164  -2.181  0.00  0.00    +0.056 C 
BRANCH  28  35
ATOM     29  C   UNL     1      -4.923  -1.922   2.446  0.00  0.00    +0.046 C 
ATOM     30  C   UNL     1      -5.662  -0.846   1.693  0.00  0.00    -0.027 A 
ATOM     31  C   UNL     1      -5.547   0.472   2.081  0.00  0.00    +0.005 A 
ATOM     32  C   UNL     1      -6.222   1.472   1.396  0.00  0.00    +0.001 A 
ATOM     33  C   UNL     1      -7.013   1.168   0.324  0.00  0.00    +0.010 A 
ATOM     34  C   UNL     1      -7.143  -0.160  -0.086  0.00  0.00    +0.003 A 
ATOM     35  C   UNL     1      -7.884  -0.826  -1.161  0.00  0.00    -0.021 A 
ATOM     36  C   UNL     1      -7.621  -2.139  -1.063  0.00  0.00    +0.087 A 
ATOM     37  N   UNL     1      -6.773  -2.368  -0.014  0.00  0.00    -0.360 N 
ATOM     38  C   UNL     1      -6.457  -1.178   0.601  0.00  0.00    +0.050 A 
ATOM     39  H   UNL     1      -6.441  -3.240   0.254  0.00  0.00    +0.165 HD
ENDBRANCH  28  35
ENDBRANCH  27  28
ENDBRANCH  23  27
ENDBRANCH   1  24
TORSDOF 5
