REMARK  Name = ZINC43209332
REMARK  8 active torsions:
REMARK  status: ('A' for Active; 'I' for Inactive)
REMARK    1  A    between atoms: C_4  and  N_7
REMARK    2  A    between atoms: C_12  and  C_28
REMARK    3  A    between atoms: C_15  and  C_20
REMARK    4  A    between atoms: C_15  and  C_25
REMARK    5  A    between atoms: C_20  and  C_21
REMARK    6  A    between atoms: C_21  and  C_22
REMARK    7  A    between atoms: C_22  and  C_23
REMARK    8  A    between atoms: C_23  and  N_24
REMARK                            x       y       z     vdW  Elec       q    Type
REMARK                         _______ _______ _______ _____ _____    ______ ____
ROOT
ATOM      1  N   UNL     1       3.624  -0.652  -0.037  0.00  0.00    -0.210 N 
ATOM      2  C   UNL     1       4.845  -0.025  -0.041  0.00  0.00    +0.229 C 
ATOM      3  O   UNL     1       5.077   1.143   0.187  0.00  0.00    -0.275 OA
ATOM      4  C   UNL     1       5.790  -1.060  -0.376  0.00  0.00    +0.077 C 
ATOM      5  C   UNL     1       7.227  -1.367  -0.267  0.00  0.00    -0.027 C 
ATOM      6  N   UNL     1       7.271  -2.814  -0.674  0.00  0.00    +0.395 N 
ATOM      7  C   UNL     1       5.916  -3.396  -0.440  0.00  0.00    +0.048 C 
ATOM      8  C   UNL     1       5.152  -2.316   0.340  0.00  0.00    +0.086 C 
ATOM      9  C   UNL     1       3.730  -2.014  -0.046  0.00  0.00    +0.229 C 
ATOM     10  O   UNL     1       2.860  -2.815  -0.312  0.00  0.00    -0.275 OA
ATOM     11  H   UNL     1       7.511  -2.888  -1.651  0.00  0.00    -0.083 HD
ATOM     12  H   UNL     1       7.954  -3.305  -0.116  0.00  0.00    -0.083 HD
ENDROOT
BRANCH   5  13
ATOM     13  C   UNL     1       8.032  -0.517  -1.216  0.00  0.00    -0.060 A 
ATOM     14  C   UNL     1       8.108  -0.857  -2.553  0.00  0.00    +0.005 A 
ATOM     15  C   UNL     1       8.846  -0.077  -3.424  0.00  0.00    +0.038 A 
ATOM     16  C   UNL     1       9.508   1.045  -2.956  0.00  0.00    +0.123 A 
ATOM     17  C   UNL     1       9.431   1.385  -1.616  0.00  0.00    +0.038 A 
ATOM     18  C   UNL     1       8.688   0.607  -0.748  0.00  0.00    +0.005 A 
ATOM     19  F   UNL     1      10.230   1.808  -3.807  0.00  0.00    -0.205 F 
ENDBRANCH   5  13
BRANCH   1  23
ATOM     20  C   UNL     1      -0.017   1.379   0.010  0.00  0.00    +0.000 A 
ATOM     21  C   UNL     1       1.170   2.089   0.002  0.00  0.00    +0.002 A 
ATOM     22  C   UNL     1       2.377   1.419  -0.013  0.00  0.00    +0.024 A 
ATOM     23  C   UNL     1       2.399   0.031  -0.021  0.00  0.00    +0.044 A 
ATOM     24  C   UNL     1       1.207  -0.680  -0.013  0.00  0.00    +0.024 A 
ATOM     25  C   UNL     1       0.002  -0.004   0.002  0.00  0.00    +0.002 A 
ENDBRANCH   1  23
BRANCH   7  26
ATOM     26  C   UNL     1       6.022  -4.648   0.392  0.00  0.00    +0.346 C 
ATOM     27  O   UNL     1       7.115  -5.054   0.746  0.00  0.00    -0.248 OA
ATOM     28  O   UNL     1       5.013  -5.255   0.712  0.00  0.00    -0.248 OA
ENDBRANCH   7  26
BRANCH   7  29
ATOM     29  C   UNL     1       5.234  -3.703  -1.775  0.00  0.00    -0.001 C 
BRANCH  29  30
ATOM     30  C   UNL     1       6.061  -4.733  -2.546  0.00  0.00    -0.003 C 
BRANCH  30  31
ATOM     31  C   UNL     1       5.379  -5.039  -3.881  0.00  0.00    -0.020 C 
BRANCH  31  32
ATOM     32  C   UNL     1       6.207  -6.070  -4.652  0.00  0.00    -0.086 C 
BRANCH  32  33
ATOM     33  N   UNL     1       5.552  -6.364  -5.934  0.00  0.00    +0.378 N 
ATOM     34  H   UNL     1       5.479  -5.516  -6.476  0.00  0.00    -0.090 HD
ATOM     35  H   UNL     1       6.098  -7.043  -6.442  0.00  0.00    -0.090 HD
ATOM     36  H   UNL     1       4.629  -6.734  -5.763  0.00  0.00    -0.090 HD
ENDBRANCH  32  33
ENDBRANCH  31  32
ENDBRANCH  30  31
ENDBRANCH  29  30
ENDBRANCH   7  29
TORSDOF 8
