REMARK  Name = ZINC26967563
REMARK  9 active torsions:
REMARK  status: ('A' for Active; 'I' for Inactive)
REMARK    1  A    between atoms: C_1  and  C_2
REMARK    2  A    between atoms: N_4  and  C_5
REMARK    3  A    between atoms: C_5  and  C_7
REMARK    4  A    between atoms: C_5  and  O_11
REMARK    5  A    between atoms: O_11  and  C_12
REMARK    6  A    between atoms: C_15  and  C_18
REMARK    7  A    between atoms: N_19  and  N_20
REMARK    8  A    between atoms: C_21  and  C_23
REMARK    9  A    between atoms: C_28  and  O_29
REMARK                            x       y       z     vdW  Elec       q    Type
REMARK                         _______ _______ _______ _____ _____    ______ ____
ROOT
ATOM      1  C   UNL     1       0.138   1.349   9.854  0.00  0.00    +0.123 A 
ATOM      2  C   UNL     1       0.215  -0.035   9.937  0.00  0.00    +0.046 A 
ATOM      3  C   UNL     1       0.093  -0.804   8.800  0.00  0.00    +0.013 A 
ATOM      4  C   UNL     1      -0.110  -0.190   7.562  0.00  0.00    -0.005 A 
ATOM      5  C   UNL     1      -0.181   1.204   7.482  0.00  0.00    +0.013 A 
ATOM      6  C   UNL     1      -0.063   1.964   8.625  0.00  0.00    +0.046 A 
ENDROOT
BRANCH   4   7
ATOM      7  C   UNL     1      -0.241  -1.008   6.343  0.00  0.00    +0.138 C 
ATOM      8  N   UNL     1      -0.429  -0.435   5.194  0.00  0.00    -0.187 NA
BRANCH   8   9
ATOM      9  N   UNL     1      -0.555  -1.213   4.035  0.00  0.00    -0.203 N 
ATOM     10  C   UNL     1      -0.750  -0.618   2.842  0.00  0.00    +0.267 C 
ATOM     11  O   UNL     1      -0.817   0.595   2.771  0.00  0.00    -0.268 OA
ATOM     12  H   UNL     1      -0.494  -2.309   4.100  0.00  0.00    +0.178 HD
BRANCH  10  13
ATOM     13  C   UNL     1      -0.882  -1.437   1.622  0.00  0.00    +0.080 A 
ATOM     14  C   UNL     1      -0.805  -2.829   1.699  0.00  0.00    +0.017 A 
ATOM     15  C   UNL     1      -0.928  -3.589   0.556  0.00  0.00    +0.001 A 
ATOM     16  C   UNL     1      -1.129  -2.977  -0.671  0.00  0.00    +0.004 A 
ATOM     17  C   UNL     1      -1.213  -1.602  -0.761  0.00  0.00    +0.046 A 
ATOM     18  C   UNL     1      -1.085  -0.822   0.379  0.00  0.00    +0.129 A 
BRANCH  18  19
ATOM     19  O   UNL     1      -1.161   0.530   0.291  0.00  0.00    -0.506 OA
ATOM     20  H   UNL     1      -1.321   1.009  -0.686  0.00  0.00    +0.292 HD
ENDBRANCH  18  19
ENDBRANCH  10  13
ENDBRANCH   8   9
ENDBRANCH   4   7
BRANCH   1  21
ATOM     21  O   UNL     1       0.258   2.103  10.977  0.00  0.00    -0.467 OA
BRANCH  21  22
ATOM     22  C   UNL     1       0.169   3.521  10.819  0.00  0.00    +0.313 C 
BRANCH  22  26
ATOM     23  C   UNL     1      -2.578   4.894  13.102  0.00  0.00    +0.109 C 
ATOM     24  C   UNL     1      -1.836   4.403  11.885  0.00  0.00    +0.213 C 
ATOM     25  O   UNL     1      -2.418   4.283  10.828  0.00  0.00    -0.276 OA
ATOM     26  N   UNL     1      -0.526   4.098  11.972  0.00  0.00    -0.277 N 
ATOM     27  H   UNL     1       0.020   4.281  12.909  0.00  0.00    +0.152 HD
ENDBRANCH  22  26
BRANCH  22  28
ATOM     28  C   UNL     1       1.577   4.113  10.725  0.00  0.00    +0.244 C 
ATOM     29 CL   UNL     1       2.433   3.403   9.306  0.00  0.00    -0.078 Cl
ATOM     30 CL   UNL     1       1.465   5.901  10.526  0.00  0.00    -0.078 Cl
ATOM     31 CL   UNL     1       2.492   3.732  12.231  0.00  0.00    -0.078 Cl
ENDBRANCH  22  28
ENDBRANCH  21  22
ENDBRANCH   1  21
TORSDOF 8
