REMARK  Name = ZINC21040613
REMARK  6 active torsions:
REMARK  status: ('A' for Active; 'I' for Inactive)
REMARK    1  A    between atoms: C_4  and  O_30
REMARK    2  A    between atoms: C_5  and  C_7
REMARK    3  A    between atoms: N_8  and  N_9
REMARK    4  A    between atoms: C_12  and  S_15
REMARK    5  A    between atoms: S_15  and  C_16
REMARK    6  A    between atoms: C_16  and  C_17
REMARK                            x       y       z     vdW  Elec       q    Type
REMARK                         _______ _______ _______ _____ _____    ______ ____
ROOT
ATOM      1  N   UNL     1      -3.598  -0.853   0.030  0.00  0.00    -0.205 N 
ATOM      2  C   UNL     1      -4.811  -0.180   0.045  0.00  0.00    +0.232 A 
ATOM      3  N   UNL     1      -6.051  -0.757   0.053  0.00  0.00    -0.186 NA
ATOM      4  C   UNL     1      -6.982   0.243   0.068  0.00  0.00    +0.211 A 
ATOM      5  N   UNL     1      -6.345   1.390   0.069  0.00  0.00    -0.144 NA
ATOM      6  N   UNL     1      -4.970   1.122   0.059  0.00  0.00    -0.245 N 
ATOM      7  H   UNL     1      -3.580  -1.953   0.025  0.00  0.00    +0.177 HD
ATOM      8  H   UNL     1      -4.091   1.783   0.062  0.00  0.00    +0.192 HD
ENDROOT
BRANCH   1  10
ATOM      9  C   UNL     1      -1.262  -0.762   0.009  0.00  0.00    +0.142 C 
ATOM     10  N   UNL     1      -2.397  -0.132   0.023  0.00  0.00    -0.187 NA
BRANCH   9  15
ATOM     11  C   UNL     1       2.404   0.038  -0.021  0.00  0.00    +0.001 A 
ATOM     12  C   UNL     1       2.381   1.422  -0.013  0.00  0.00    +0.004 A 
ATOM     13  C   UNL     1       1.176   2.100   0.002  0.00  0.00    +0.046 A 
ATOM     14  C   UNL     1      -0.017   1.397   0.010  0.00  0.00    +0.125 A 
ATOM     15  C   UNL     1       0.002  -0.004   0.002  0.00  0.00    +0.036 A 
ATOM     16  C   UNL     1       1.225  -0.678  -0.013  0.00  0.00    +0.013 A 
BRANCH  14  17
ATOM     17  O   UNL     1      -1.201   2.063   0.019  0.00  0.00    -0.506 OA
ATOM     18  H   UNL     1      -2.147   1.503   0.025  0.00  0.00    +0.292 HD
ENDBRANCH  14  17
ENDBRANCH   9  15
ENDBRANCH   1  10
BRANCH   4  19
ATOM     19  S   UNL     1      -8.731   0.029   0.082  0.00  0.00    -0.075 S 
BRANCH  19  20
ATOM     20  C   UNL     1      -9.380   1.723   0.098  0.00  0.00    +0.173 C 
BRANCH  20  21
ATOM     21  C   UNL     1     -10.886   1.683   0.112  0.00  0.00    +0.229 C 
ATOM     22  O   UNL     1     -11.465   0.618   0.111  0.00  0.00    -0.275 OA
ATOM     23  N   UNL     1     -11.590   2.833   0.125  0.00  0.00    -0.264 N 
ATOM     24  C   UNL     1     -12.975   2.796   0.137  0.00  0.00    +0.165 A 
ATOM     25  N   UNL     1     -13.825   3.797   0.151  0.00  0.00    -0.225 NA
ATOM     26  C   UNL     1     -15.163   3.613   0.161  0.00  0.00    +0.080 A 
ATOM     27  C   UNL     1     -16.179   4.596   0.176  0.00  0.00    +0.030 A 
ATOM     28  C   UNL     1     -17.501   4.236   0.185  0.00  0.00    +0.017 A 
ATOM     29  C   UNL     1     -17.891   2.904   0.180  0.00  0.00    +0.019 A 
ATOM     30  C   UNL     1     -16.923   1.916   0.166  0.00  0.00    +0.032 A 
ATOM     31  C   UNL     1     -15.596   2.267   0.157  0.00  0.00    +0.042 A 
ATOM     32  S   UNL     1     -14.059   1.375   0.131  0.00  0.00    -0.052 S 
ATOM     33 BR   UNL     1     -19.725   2.445   0.193  0.00  0.00    -0.050 Br
ATOM     34  H   UNL     1     -11.065   3.799   0.126  0.00  0.00    +0.157 HD
ENDBRANCH  20  21
ENDBRANCH  19  20
ENDBRANCH   4  19
TORSDOF 6
