REMARK  Name = ZINC16849205
REMARK  9 active torsions:
REMARK  status: ('A' for Active; 'I' for Inactive)
REMARK    1  A    between atoms: C_4  and  C_7
REMARK    2  A    between atoms: C_7  and  C_8
REMARK    3  A    between atoms: C_7  and  C_22
REMARK    4  A    between atoms: C_8  and  N_48
REMARK    5  A    between atoms: C_9  and  C_10
REMARK    6  A    between atoms: C_9  and  N_48
REMARK    7  A    between atoms: C_10  and  C_12
REMARK    8  A    between atoms: C_10  and  O_21
REMARK    9  A    between atoms: C_16  and  N_18
REMARK                            x       y       z     vdW  Elec       q    Type
REMARK                         _______ _______ _______ _____ _____    ______ ____
ROOT
ATOM      1  N   UNL     1       0.530   7.408  -1.601  0.00  0.00    +0.382 N 
ATOM      2  H   UNL     1      -0.301   7.381  -0.999  0.00  0.00    -0.086 HD
ATOM      3  H   UNL     1       1.247   8.002  -1.169  0.00  0.00    -0.086 HD
ENDROOT
BRANCH   1   4
ATOM      4  C   UNL     1       0.161   7.968  -2.915  0.00  0.00    -0.070 C 
BRANCH   4   5
ATOM      5  C   UNL     1      -0.386   9.384  -2.721  0.00  0.00    +0.032 C 
BRANCH   5   9
ATOM      6  C   UNL     1      -1.137  11.157  -6.534  0.00  0.00    +0.000 A 
ATOM      7  C   UNL     1      -1.661   9.914  -6.234  0.00  0.00    +0.000 A 
ATOM      8  C   UNL     1      -1.418   9.340  -5.000  0.00  0.00    +0.004 A 
ATOM      9  C   UNL     1      -0.651  10.009  -4.066  0.00  0.00    -0.042 A 
ATOM     10  C   UNL     1      -0.131  11.255  -4.363  0.00  0.00    +0.004 A 
ATOM     11  C   UNL     1      -0.369  11.827  -5.599  0.00  0.00    +0.000 A 
ENDBRANCH   5   9
BRANCH   5  12
ATOM     12  C   UNL     1      -1.670   9.323  -1.934  0.00  0.00    -0.042 A 
ATOM     13  C   UNL     1      -2.692   8.487  -2.343  0.00  0.00    +0.004 A 
ATOM     14  C   UNL     1      -3.868   8.428  -1.619  0.00  0.00    +0.000 A 
ATOM     15  C   UNL     1      -4.025   9.211  -0.491  0.00  0.00    +0.000 A 
ATOM     16  C   UNL     1      -3.005  10.050  -0.084  0.00  0.00    +0.000 A 
ATOM     17  C   UNL     1      -1.827  10.106  -0.806  0.00  0.00    +0.004 A 
ENDBRANCH   5  12
ENDBRANCH   4   5
ENDBRANCH   1   4
BRANCH   1  18
ATOM     18  C   UNL     1       1.062   6.041  -1.759  0.00  0.00    -0.046 C 
BRANCH  18  19
ATOM     19  C   UNL     1       1.435   5.487  -0.383  0.00  0.00    +0.128 C 
BRANCH  19  20
ATOM     20  C   UNL     1       2.092   4.140  -0.545  0.00  0.00    -0.019 A 
ATOM     21  C   UNL     1       1.318   3.014  -0.749  0.00  0.00    +0.006 A 
ATOM     22  C   UNL     1       1.920   1.779  -0.903  0.00  0.00    +0.003 A 
ATOM     23  C   UNL     1       3.297   1.670  -0.841  0.00  0.00    +0.033 A 
ATOM     24  C   UNL     1       4.071   2.796  -0.636  0.00  0.00    +0.127 A 
ATOM     25  C   UNL     1       3.469   4.032  -0.488  0.00  0.00    +0.038 A 
BRANCH  24  26
ATOM     26  N   UNL     1       5.546   2.680  -0.575  0.00  0.00    +0.056 N 
ATOM     27  O   UNL     1       6.077   1.592  -0.706  0.00  0.00    -0.126 OA
ATOM     28  O   UNL     1       6.228   3.673  -0.395  0.00  0.00    -0.126 OA
ENDBRANCH  24  26
ENDBRANCH  19  20
BRANCH  19  29
ATOM     29  O   UNL     1       0.255   5.349   0.412  0.00  0.00    -0.389 OA
ATOM     30  H   UNL     1      -0.406   4.752   0.034  0.00  0.00    +0.210 HD
ENDBRANCH  19  29
ENDBRANCH  18  19
ENDBRANCH   1  18
TORSDOF 9
