REMARK  Name = ZINC19445375
REMARK  8 active torsions:
REMARK  status: ('A' for Active; 'I' for Inactive)
REMARK    1  A    between atoms: C_1  and  C_2
REMARK    2  A    between atoms: C_2  and  C_3
REMARK    3  A    between atoms: C_2  and  C_4
REMARK    4  A    between atoms: C_4  and  C_6
REMARK    5  A    between atoms: C_4  and  N_22
REMARK    6  A    between atoms: C_13  and  C_15
REMARK    7  A    between atoms: N_22  and  C_23
REMARK    8  A    between atoms: C_23  and  C_24
REMARK                            x       y       z     vdW  Elec       q    Type
REMARK                         _______ _______ _______ _____ _____    ______ ____
ROOT
ATOM      1  C   UNL     1       0.645  -2.019  -0.992  0.00  0.00    +0.040 A 
ATOM      2  C   UNL     1       1.756  -2.779  -0.861  0.00  0.00    +0.095 A 
ATOM      3  C   UNL     1       1.638  -4.180  -0.757  0.00  0.00    +0.275 A 
ATOM      4  N   UNL     1       0.420  -4.755  -0.789  0.00  0.00    -0.180 N 
ATOM      5  C   UNL     1      -0.697  -3.981  -0.922  0.00  0.00    +0.138 A 
ATOM      6  N   UNL     1      -0.584  -2.607  -1.019  0.00  0.00    -0.342 N 
ATOM      7  C   UNL     1      -1.773  -4.817  -0.926  0.00  0.00    +0.071 A 
ATOM      8  C   UNL     1      -1.301  -6.124  -0.792  0.00  0.00    +0.069 A 
ATOM      9  N   UNL     1       0.006  -6.090  -0.711  0.00  0.00    -0.167 NA
ATOM     10  O   UNL     1       2.636  -4.869  -0.639  0.00  0.00    -0.266 OA
ATOM     11  H   UNL     1      -1.380  -2.061  -1.109  0.00  0.00    +0.167 HD
ENDROOT
BRANCH   8  12
ATOM     12  C   UNL     1      -2.153  -7.366  -0.749  0.00  0.00    +0.044 C 
ATOM     13  C   UNL     1      -3.368  -7.186  -1.665  0.00  0.00    +0.038 C 
ATOM     14  C   UNL     1      -4.268  -8.420  -1.554  0.00  0.00    +0.160 C 
ATOM     15  O   UNL     1      -4.658  -8.603  -0.192  0.00  0.00    -0.380 OA
ATOM     16  C   UNL     1      -3.566  -8.823   0.704  0.00  0.00    +0.160 C 
ATOM     17  C   UNL     1      -2.638  -7.605   0.684  0.00  0.00    +0.038 C 
ENDBRANCH   8  12
BRANCH   1  18
ATOM     18  C   UNL     1       0.766  -0.521  -1.102  0.00  0.00    +0.104 C 
BRANCH  18  20
ATOM     19  C   UNL     1      -0.858  -0.308   0.785  0.00  0.00    +0.009 C 
ATOM     20  C   UNL     1       0.519   0.113   0.268  0.00  0.00    +0.006 C 
ATOM     21  C   UNL     1       1.597  -0.355   1.248  0.00  0.00    +0.009 C 
ENDBRANCH  18  20
BRANCH  18  22
ATOM     22  N   UNL     1      -0.229  -0.018  -2.060  0.00  0.00    -0.304 NA
ATOM     23  H   UNL     1      -0.422  -0.705  -2.774  0.00  0.00    +0.123 HD
BRANCH  22  24
ATOM     24  C   UNL     1       0.208   1.252  -2.655  0.00  0.00    +0.117 C 
BRANCH  24  25
ATOM     25  C   UNL     1      -0.889   1.800  -3.531  0.00  0.00    -0.031 A 
ATOM     26  C   UNL     1      -0.943   1.452  -4.868  0.00  0.00    +0.008 A 
ATOM     27  C   UNL     1      -1.947   1.953  -5.674  0.00  0.00    +0.041 A 
ATOM     28  C   UNL     1      -2.902   2.803  -5.143  0.00  0.00    +0.158 A 
ATOM     29  C   UNL     1      -2.848   3.151  -3.802  0.00  0.00    +0.159 A 
ATOM     30  C   UNL     1      -1.843   2.644  -2.996  0.00  0.00    +0.046 A 
ATOM     31  F   UNL     1      -3.778   3.981  -3.281  0.00  0.00    -0.202 F 
ATOM     32  F   UNL     1      -3.884   3.293  -5.930  0.00  0.00    -0.202 F 
ENDBRANCH  24  25
ENDBRANCH  22  24
ENDBRANCH  18  22
ENDBRANCH   1  18
TORSDOF 6
