REMARK  Name = ZINC43221533
REMARK  11 active torsions:
REMARK  status: ('A' for Active; 'I' for Inactive)
REMARK    1  A    between atoms: C_1  and  C_2
REMARK    2  A    between atoms: C_2  and  C_3
REMARK    3  A    between atoms: C_7  and  C_40
REMARK    4  A    between atoms: C_8  and  N_9
REMARK    5  A    between atoms: C_14  and  C_31
REMARK    6  A    between atoms: C_17  and  C_22
REMARK    7  A    between atoms: C_17  and  C_28
REMARK    8  A    between atoms: C_34  and  N_37
REMARK    9  A    between atoms: N_37  and  C_38
REMARK   10  A    between atoms: N_37  and  C_39
REMARK   11  A    between atoms: C_40  and  C_41
REMARK                            x       y       z     vdW  Elec       q    Type
REMARK                         _______ _______ _______ _____ _____    ______ ____
ROOT
ATOM      1  N   UNL     1      -1.884   1.093  -3.142  0.00  0.00    -0.209 N 
ATOM      2  C   UNL     1      -1.915   2.231  -3.909  0.00  0.00    +0.229 C 
ATOM      3  O   UNL     1      -2.286   3.337  -3.579  0.00  0.00    -0.275 OA
ATOM      4  C   UNL     1      -1.408   1.817  -5.196  0.00  0.00    +0.078 C 
ATOM      5  C   UNL     1      -0.837   2.394  -6.422  0.00  0.00    -0.026 C 
ATOM      6  N   UNL     1      -0.150   1.239  -7.089  0.00  0.00    +0.398 N 
ATOM      7  C   UNL     1      -0.241   0.064  -6.163  0.00  0.00    +0.074 C 
ATOM      8  C   UNL     1      -0.321   0.747  -4.781  0.00  0.00    +0.090 C 
ATOM      9  C   UNL     1      -1.149   0.092  -3.711  0.00  0.00    +0.229 C 
ATOM     10  O   UNL     1      -1.164  -1.083  -3.415  0.00  0.00    -0.275 OA
ATOM     11  H   UNL     1      -0.609   1.024  -7.961  0.00  0.00    -0.083 HD
ATOM     12  H   UNL     1       0.819   1.468  -7.257  0.00  0.00    -0.083 HD
ENDROOT
BRANCH   1  18
ATOM     13  C   UNL     1      -1.834   1.208  -0.728  0.00  0.00    -0.026 A 
ATOM     14  C   UNL     1      -2.477   1.095   0.490  0.00  0.00    +0.005 A 
ATOM     15  C   UNL     1      -3.813   0.742   0.537  0.00  0.00    +0.001 A 
ATOM     16  C   UNL     1      -4.510   0.502  -0.632  0.00  0.00    +0.005 A 
ATOM     17  C   UNL     1      -3.873   0.615  -1.853  0.00  0.00    -0.026 A 
ATOM     18  C   UNL     1      -2.532   0.973  -1.904  0.00  0.00    +0.050 A 
BRANCH  13  20
ATOM     19  C   UNL     1      -0.256   3.104  -0.980  0.00  0.00    +0.009 C 
ATOM     20  C   UNL     1      -0.378   1.593  -0.779  0.00  0.00    +0.033 C 
ENDBRANCH  13  20
BRANCH  17  21
ATOM     21  C   UNL     1      -4.633   0.353  -3.127  0.00  0.00    +0.033 C 
ATOM     22  C   UNL     1      -4.453  -1.110  -3.538  0.00  0.00    +0.009 C 
ENDBRANCH  17  21
ENDBRANCH   1  18
BRANCH   7  23
ATOM     23  C   UNL     1      -1.475  -0.751  -6.455  0.00  0.00    -0.047 A 
ATOM     24  C   UNL     1      -2.440  -0.261  -7.314  0.00  0.00    +0.003 A 
ATOM     25  C   UNL     1      -3.571  -1.008  -7.582  0.00  0.00    +0.000 A 
ATOM     26  C   UNL     1      -3.738  -2.246  -6.990  0.00  0.00    +0.000 A 
ATOM     27  C   UNL     1      -2.772  -2.737  -6.131  0.00  0.00    +0.000 A 
ATOM     28  C   UNL     1      -1.639  -1.992  -5.867  0.00  0.00    +0.003 A 
ENDBRANCH   7  23
BRANCH   5  29
ATOM     29  C   UNL     1       0.154   3.477  -6.083  0.00  0.00    -0.060 A 
ATOM     30  C   UNL     1       1.441   3.140  -5.704  0.00  0.00    +0.004 A 
ATOM     31  C   UNL     1       2.352   4.130  -5.393  0.00  0.00    +0.023 A 
ATOM     32  C   UNL     1       1.975   5.466  -5.461  0.00  0.00    +0.029 A 
ATOM     33  C   UNL     1       0.681   5.800  -5.842  0.00  0.00    +0.023 A 
ATOM     34  C   UNL     1      -0.223   4.805  -6.157  0.00  0.00    +0.004 A 
BRANCH  32  35
ATOM     35  N   UNL     1       2.893   6.470  -5.147  0.00  0.00    -0.336 N 
ATOM     36  C   UNL     1       4.217   6.115  -4.628  0.00  0.00    +0.129 C 
ATOM     37  C   UNL     1       2.534   7.877  -5.337  0.00  0.00    +0.129 C 
ENDBRANCH  32  35
ENDBRANCH   5  29
BRANCH   7  38
ATOM     38  C   UNL     1       0.998  -0.788  -6.258  0.00  0.00    +0.350 C 
ATOM     39  O   UNL     1       1.886  -0.489  -7.038  0.00  0.00    -0.248 OA
ATOM     40  O   UNL     1       1.113  -1.778  -5.554  0.00  0.00    -0.248 OA
ENDBRANCH   7  38
TORSDOF 7
