REMARK  Name = ZINC04230857
REMARK  10 active torsions:
REMARK  status: ('A' for Active; 'I' for Inactive)
REMARK    1  A    between atoms: C_1  and  C_2
REMARK    2  A    between atoms: C_2  and  C_3
REMARK    3  A    between atoms: C_2  and  C_4
REMARK    4  A    between atoms: C_4  and  C_6
REMARK    5  A    between atoms: C_4  and  N_60
REMARK    6  A    between atoms: N_10  and  C_11
REMARK    7  A    between atoms: C_17  and  C_18
REMARK    8  A    between atoms: C_17  and  N_60
REMARK    9  A    between atoms: C_25  and  C_26
REMARK   10  A    between atoms: C_25  and  N_60
REMARK                            x       y       z     vdW  Elec       q    Type
REMARK                         _______ _______ _______ _____ _____    ______ ____
ROOT
ATOM      1  N   UNL     1       1.333  -2.737  -1.628  0.00  0.00    +0.394 N 
ATOM      2  H   UNL     1       2.089  -2.717  -2.323  0.00  0.00    -0.080 HD
ENDROOT
BRANCH   1   3
ATOM      3  C   UNL     1       0.953  -4.143  -1.373  0.00  0.00    +0.006 C 
BRANCH   3   4
ATOM      4  C   UNL     1       1.072  -4.915  -2.662  0.00  0.00    +0.139 A 
ATOM      5  N   UNL     1       0.673  -4.523  -3.848  0.00  0.00    -0.115 NA
ATOM      6  N   UNL     1       0.950  -5.459  -4.690  0.00  0.00    -0.023 NA
ATOM      7  N   UNL     1       1.514  -6.437  -4.071  0.00  0.00    -0.044 NA
ATOM      8  N   UNL     1       1.612  -6.137  -2.820  0.00  0.00    -0.228 N 
BRANCH   8   9
ATOM      9  C   UNL     1       2.198  -6.972  -1.768  0.00  0.00    +0.111 C 
ATOM     10  C   UNL     1       3.665  -7.253  -2.099  0.00  0.00    +0.027 C 
ATOM     11  C   UNL     1       4.277  -8.125  -1.000  0.00  0.00    +0.002 C 
ATOM     12  C   UNL     1       3.512  -9.447  -0.913  0.00  0.00    +0.000 C 
ATOM     13  C   UNL     1       2.045  -9.166  -0.583  0.00  0.00    +0.002 C 
ATOM     14  C   UNL     1       1.433  -8.294  -1.681  0.00  0.00    +0.027 C 
ENDBRANCH   8   9
ENDBRANCH   3   4
BRANCH   3  16
ATOM     15  C   UNL     1      -0.895  -5.690  -0.715  0.00  0.00    +0.006 C 
ATOM     16  C   UNL     1      -0.486  -4.223  -0.862  0.00  0.00    -0.024 C 
ATOM     17  C   UNL     1      -0.584  -3.528   0.498  0.00  0.00    +0.006 C 
ENDBRANCH   3  16
ENDBRANCH   1   3
BRANCH   1  18
ATOM     18  C   UNL     1       0.174  -1.989  -2.158  0.00  0.00    -0.041 C 
BRANCH  18  19
ATOM     19  C   UNL     1       0.674  -0.741  -2.838  0.00  0.00    -0.064 A 
ATOM     20  C   UNL     1       1.005  -0.771  -4.180  0.00  0.00    +0.003 A 
ATOM     21  C   UNL     1       1.464   0.374  -4.805  0.00  0.00    +0.020 A 
ATOM     22  C   UNL     1       1.593   1.549  -4.086  0.00  0.00    +0.041 A 
ATOM     23  C   UNL     1       1.262   1.578  -2.743  0.00  0.00    +0.020 A 
ATOM     24  C   UNL     1       0.803   0.433  -2.120  0.00  0.00    +0.003 A 
ATOM     25 CL   UNL     1       2.170   2.986  -4.870  0.00  0.00    -0.084 Cl
ENDBRANCH  18  19
ENDBRANCH   1  18
BRANCH   1  26
ATOM     26  C   UNL     1       1.812  -2.109  -0.379  0.00  0.00    -0.002 C 
BRANCH  26  27
ATOM     27  C   UNL     1       3.186  -2.643  -0.065  0.00  0.00    +0.089 A 
ATOM     28  C   UNL     1       4.344  -2.183  -0.572  0.00  0.00    +0.042 A 
ATOM     29  C   UNL     1       5.377  -2.969  -0.010  0.00  0.00    +0.041 A 
ATOM     30  C   UNL     1       4.789  -3.861   0.806  0.00  0.00    +0.195 A 
ATOM     31  O   UNL     1       3.462  -3.656   0.773  0.00  0.00    -0.470 OA
ENDBRANCH  26  27
ENDBRANCH   1  26
TORSDOF 8
