REMARK  Name = ZINC13069814
REMARK  5 active torsions:
REMARK  status: ('A' for Active; 'I' for Inactive)
REMARK    1  A    between atoms: C_6  and  N_11
REMARK    2  A    between atoms: C_12  and  C_14
REMARK    3  A    between atoms: C_14  and  C_15
REMARK    4  A    between atoms: N_21  and  C_22
REMARK    5  A    between atoms: C_27  and  C_28
REMARK                            x       y       z     vdW  Elec       q    Type
REMARK                         _______ _______ _______ _____ _____    ______ ____
ROOT
ATOM      1  C   UNL     1       5.922  -6.350   0.297  0.00  0.00    +0.149 C 
ATOM      2  C   UNL     1       7.064  -7.322   0.548  0.00  0.00    +0.232 C 
ATOM      3  O   UNL     1       7.659  -7.358   1.603  0.00  0.00    -0.274 OA
ATOM      4  N   UNL     1       7.367  -8.125  -0.458  0.00  0.00    -0.264 N 
ATOM      5  C   UNL     1       6.696  -8.091  -1.661  0.00  0.00    +0.161 C 
ATOM      6  N   UNL     1       6.902  -8.830  -2.726  0.00  0.00    -0.225 NA
ATOM      7  S   UNL     1       5.478  -6.802  -1.431  0.00  0.00    -0.077 S 
ATOM      8  H   UNL     1       8.090  -8.762  -0.344  0.00  0.00    +0.157 HD
ENDROOT
BRANCH   6   9
ATOM      9  C   UNL     1       7.965  -9.693  -2.765  0.00  0.00    +0.078 A 
ATOM     10  C   UNL     1       9.242  -9.247  -2.420  0.00  0.00    +0.028 A 
ATOM     11  C   UNL     1      10.308 -10.122  -2.461  0.00  0.00    +0.002 A 
ATOM     12  C   UNL     1      10.114 -11.437  -2.844  0.00  0.00    +0.001 A 
ATOM     13  C   UNL     1       8.851 -11.885  -3.187  0.00  0.00    +0.014 A 
ATOM     14  C   UNL     1       7.775 -11.023  -3.145  0.00  0.00    +0.080 A 
BRANCH  14  15
ATOM     15  C   UNL     1       6.398 -11.514  -3.514  0.00  0.00    +0.419 C 
ATOM     16  F   UNL     1       6.463 -12.869  -3.856  0.00  0.00    -0.166 F 
ATOM     17  F   UNL     1       5.537 -11.348  -2.424  0.00  0.00    -0.166 F 
ATOM     18  F   UNL     1       5.918 -10.780  -4.603  0.00  0.00    -0.166 F 
ENDBRANCH  14  15
ENDBRANCH   6   9
BRANCH   1  19
ATOM     19  C   UNL     1       6.399  -4.899   0.386  0.00  0.00    +0.120 C 
BRANCH  19  21
ATOM     20  N   UNL     1       5.416  -2.638   0.192  0.00  0.00    -0.285 N 
ATOM     21  C   UNL     1       5.232  -3.972   0.160  0.00  0.00    +0.219 C 
ATOM     22  O   UNL     1       4.128  -4.427  -0.051  0.00  0.00    -0.275 OA
ATOM     23  H   UNL     1       6.310  -2.273   0.290  0.00  0.00    +0.155 HD
BRANCH  20  29
ATOM     24  C   UNL     1       0.994   1.927   0.449  0.00  0.00    +0.001 A 
ATOM     25  C   UNL     1       2.053   2.274   1.287  0.00  0.00    +0.001 A 
ATOM     26  C   UNL     1       3.138   1.463   1.416  0.00  0.00    +0.008 A 
ATOM     27  C   UNL     1       3.195   0.257   0.696  0.00  0.00    -0.016 A 
ATOM     28  C   UNL     1       4.299  -0.604   0.806  0.00  0.00    +0.031 A 
ATOM     29  C   UNL     1       4.318  -1.778   0.086  0.00  0.00    +0.034 A 
ATOM     30  C   UNL     1       3.251  -2.118  -0.753  0.00  0.00    +0.024 A 
ATOM     31  C   UNL     1       2.171  -1.301  -0.877  0.00  0.00    +0.010 A 
ATOM     32  C   UNL     1       2.118  -0.096  -0.155  0.00  0.00    -0.018 A 
ATOM     33  C   UNL     1       1.015   0.767  -0.263  0.00  0.00    +0.008 A 
ENDBRANCH  20  29
ENDBRANCH  19  21
ENDBRANCH   1  19
TORSDOF 5
