REMARK  Name = ZINC36543532
REMARK  11 active torsions:
REMARK  status: ('A' for Active; 'I' for Inactive)
REMARK    1  A    between atoms: C_1  and  C_2
REMARK    2  A    between atoms: C_2  and  C_3
REMARK    3  A    between atoms: C_2  and  C_4
REMARK    4  A    between atoms: C_2  and  N_5
REMARK    5  A    between atoms: C_6  and  C_8
REMARK    6  A    between atoms: C_8  and  C_10
REMARK    7  A    between atoms: C_8  and  N_20
REMARK    8  A    between atoms: C_12  and  N_17
REMARK    9  A    between atoms: N_20  and  C_21
REMARK   10  A    between atoms: C_28  and  C_30
REMARK   11  A    between atoms: C_35  and  O_36
REMARK                            x       y       z     vdW  Elec       q    Type
REMARK                         _______ _______ _______ _____ _____    ______ ____
ROOT
ATOM      1  C   UNL     1       2.883  -0.710  -3.184  0.00  0.00    +0.199 C 
ENDROOT
BRANCH   1   2
ATOM      2  C   UNL     1       2.589   0.042  -4.456  0.00  0.00    +0.003 A 
ATOM      3  C   UNL     1       3.335   1.158  -4.788  0.00  0.00    +0.040 A 
ATOM      4  C   UNL     1       3.065   1.848  -5.955  0.00  0.00    +0.127 A 
ATOM      5  C   UNL     1       2.049   1.423  -6.791  0.00  0.00    +0.034 A 
ATOM      6  C   UNL     1       1.303   0.307  -6.460  0.00  0.00    +0.022 A 
ATOM      7  C   UNL     1       1.577  -0.387  -5.295  0.00  0.00    +0.047 A 
ATOM      8 CL   UNL     1       0.645  -1.793  -4.883  0.00  0.00    -0.083 Cl
BRANCH   4   9
ATOM      9  N   UNL     1       3.863   3.043  -6.309  0.00  0.00    +0.056 N 
ATOM     10  O   UNL     1       4.752   3.415  -5.578  0.00  0.00    -0.126 OA
ATOM     11  O   UNL     1       3.627   3.646  -7.330  0.00  0.00    -0.126 OA
ENDBRANCH   4   9
ENDBRANCH   1   2
BRANCH   1  13
ATOM     12  N   UNL     1       0.655  -0.159  -2.261  0.00  0.00    -0.309 N 
ATOM     13  C   UNL     1       1.990  -0.201  -2.082  0.00  0.00    +0.239 C 
ATOM     14  O   UNL     1       2.474   0.172  -1.033  0.00  0.00    -0.273 OA
ATOM     15  H   UNL     1       0.274  -0.393  -3.121  0.00  0.00    +0.149 HD
BRANCH  12  17
ATOM     16  C   UNL     1       0.137   1.659  -0.709  0.00  0.00    +0.031 C 
ATOM     17  C   UNL     1      -0.220   0.240  -1.156  0.00  0.00    +0.026 C 
ATOM     18  C   UNL     1      -0.034  -0.726   0.016  0.00  0.00    +0.031 C 
ATOM     19  C   UNL     1      -1.677   0.203  -1.621  0.00  0.00    +0.031 C 
ENDBRANCH  12  17
ENDBRANCH   1  13
BRANCH   1  20
ATOM     20  N   UNL     1       4.285  -0.507  -2.810  0.00  0.00    -0.250 N 
ATOM     21  C   UNL     1       4.707   0.709  -2.410  0.00  0.00    +0.255 C 
ATOM     22  O   UNL     1       3.906   1.612  -2.263  0.00  0.00    -0.269 OA
BRANCH  20  23
ATOM     23  C   UNL     1       5.186  -1.576  -2.867  0.00  0.00    +0.056 A 
ATOM     24  C   UNL     1       5.785  -1.918  -4.072  0.00  0.00    +0.025 A 
ATOM     25  C   UNL     1       6.674  -2.973  -4.126  0.00  0.00    +0.002 A 
ATOM     26  C   UNL     1       6.968  -3.691  -2.981  0.00  0.00    +0.002 A 
ATOM     27  C   UNL     1       6.374  -3.354  -1.778  0.00  0.00    +0.022 A 
ATOM     28  C   UNL     1       5.487  -2.296  -1.717  0.00  0.00    +0.062 A 
ATOM     29 CL   UNL     1       4.746  -1.869  -0.206  0.00  0.00    -0.082 Cl
ENDBRANCH  20  23
BRANCH  21  30
ATOM     30  C   UNL     1       6.140   0.944  -2.152  0.00  0.00    +0.079 A 
ATOM     31  C   UNL     1       7.096   0.560  -3.095  0.00  0.00    +0.017 A 
ATOM     32  C   UNL     1       8.433   0.783  -2.848  0.00  0.00    +0.001 A 
ATOM     33  C   UNL     1       8.835   1.387  -1.668  0.00  0.00    +0.004 A 
ATOM     34  C   UNL     1       7.901   1.771  -0.727  0.00  0.00    +0.046 A 
ATOM     35  C   UNL     1       6.550   1.560  -0.962  0.00  0.00    +0.129 A 
BRANCH  35  36
ATOM     36  O   UNL     1       5.630   1.942  -0.041  0.00  0.00    -0.506 OA
ATOM     37  H   UNL     1       5.423   1.262   0.615  0.00  0.00    +0.292 HD
ENDBRANCH  35  36
ENDBRANCH  21  30
ENDBRANCH   1  20
TORSDOF 8
