REMARK  Name = ZINC20518366
REMARK  6 active torsions:
REMARK  status: ('A' for Active; 'I' for Inactive)
REMARK    1  A    between atoms: C_1  and  C_2
REMARK    2  A    between atoms: C_2  and  C_3
REMARK    3  A    between atoms: C_6  and  N_9
REMARK    4  A    between atoms: C_14  and  C_32
REMARK    5  A    between atoms: C_32  and  C_33
REMARK    6  A    between atoms: C_36  and  O_39
REMARK                            x       y       z     vdW  Elec       q    Type
REMARK                         _______ _______ _______ _____ _____    ______ ____
ROOT
ATOM      1  N   UNL     1       2.659  -1.835  -4.668  0.00  0.00    -0.210 N 
ATOM      2  C   UNL     1       2.007  -2.161  -5.790  0.00  0.00    +0.232 C 
ATOM      3  O   UNL     1       0.805  -2.113  -5.941  0.00  0.00    -0.274 OA
ATOM      4  C   UNL     1       3.002  -2.601  -6.839  0.00  0.00    +0.108 C 
ATOM      5  C   UNL     1       2.814  -4.106  -7.123  0.00  0.00    +0.072 C 
ATOM      6  N   UNL     1       3.655  -4.794  -6.108  0.00  0.00    -0.295 NA
ATOM      7  C   UNL     1       4.860  -3.950  -6.003  0.00  0.00    +0.136 C 
ATOM      8  C   UNL     1       4.369  -2.484  -6.108  0.00  0.00    +0.123 C 
ATOM      9  C   UNL     1       3.988  -1.970  -4.738  0.00  0.00    +0.233 C 
ATOM     10  O   UNL     1       4.766  -1.721  -3.842  0.00  0.00    -0.274 OA
ATOM     11  C   UNL     1       5.595  -4.196  -4.717  0.00  0.00    +0.006 A 
ATOM     12  C   UNL     1       5.245  -4.086  -3.389  0.00  0.00    +0.046 A 
ATOM     13  C   UNL     1       6.167  -4.395  -2.402  0.00  0.00    +0.124 A 
ATOM     14  C   UNL     1       7.439  -4.813  -2.755  0.00  0.00    +0.040 A 
ATOM     15  C   UNL     1       7.792  -4.923  -4.084  0.00  0.00    +0.026 A 
ATOM     16  C   UNL     1       6.871  -4.615  -5.082  0.00  0.00    +0.039 A 
ATOM     17  N   UNL     1       6.989  -4.646  -6.474  0.00  0.00    -0.283 N 
ATOM     18  C   UNL     1       5.851  -4.269  -7.089  0.00  0.00    +0.243 C 
ATOM     19  O   UNL     1       5.662  -4.201  -8.285  0.00  0.00    -0.273 OA
ATOM     20  F   UNL     1       5.826  -4.288  -1.099  0.00  0.00    -0.205 F 
ATOM     21  H   UNL     1       3.177  -4.853  -5.221  0.00  0.00    +0.124 HD
ATOM     22  H   UNL     1       7.796  -4.909  -6.944  0.00  0.00    +0.155 HD
ENDROOT
BRANCH   1  26
ATOM     23  C   UNL     1       0.709  -0.489  -1.238  0.00  0.00    -0.048 A 
ATOM     24  C   UNL     1       0.537  -1.794  -1.662  0.00  0.00    +0.005 A 
ATOM     25  C   UNL     1       1.181  -2.242  -2.798  0.00  0.00    +0.024 A 
ATOM     26  C   UNL     1       2.002  -1.382  -3.514  0.00  0.00    +0.044 A 
ATOM     27  C   UNL     1       2.173  -0.072  -3.086  0.00  0.00    +0.024 A 
ATOM     28  C   UNL     1       1.522   0.372  -1.952  0.00  0.00    +0.005 A 
BRANCH  23  30
ATOM     29  C   UNL     1      -1.365   0.565  -0.378  0.00  0.00    +0.009 C 
ATOM     30  C   UNL     1       0.004  -0.003   0.003  0.00  0.00    +0.032 C 
ENDBRANCH  23  30
ENDBRANCH   1  26
BRANCH   5  31
ATOM     31  C   UNL     1       1.345  -4.500  -6.955  0.00  0.00    +0.054 C 
BRANCH  31  32
ATOM     32  C   UNL     1       1.163  -5.941  -7.355  0.00  0.00    -0.046 A 
ATOM     33  C   UNL     1       0.866  -6.261  -8.667  0.00  0.00    +0.007 A 
ATOM     34  C   UNL     1       0.697  -7.582  -9.036  0.00  0.00    +0.045 A 
ATOM     35  C   UNL     1       0.828  -8.587  -8.089  0.00  0.00    +0.117 A 
ATOM     36  C   UNL     1       1.127  -8.264  -6.774  0.00  0.00    +0.045 A 
ATOM     37  C   UNL     1       1.299  -6.942  -6.411  0.00  0.00    +0.007 A 
BRANCH  35  38
ATOM     38  O   UNL     1       0.662  -9.887  -8.449  0.00  0.00    -0.507 OA
ATOM     39  H   UNL     1       1.477 -10.323  -8.735  0.00  0.00    +0.292 HD
ENDBRANCH  35  38
ENDBRANCH  31  32
ENDBRANCH   5  31
TORSDOF 5
