REMARK  Name = ZINC63270483
REMARK  7 active torsions:
REMARK  status: ('A' for Active; 'I' for Inactive)
REMARK    1  A    between atoms: C_1  and  O_2
REMARK    2  A    between atoms: O_2  and  C_3
REMARK    3  A    between atoms: C_3  and  C_4
REMARK    4  A    between atoms: C_4  and  C_5
REMARK    5  A    between atoms: C_5  and  N_6
REMARK    6  A    between atoms: C_11  and  C_28
REMARK    7  A    between atoms: C_28  and  C_29
REMARK                            x       y       z     vdW  Elec       q    Type
REMARK                         _______ _______ _______ _____ _____    ______ ____
ROOT
ATOM      1  N   UNL     1       1.272  -4.165  -2.169  0.00  0.00    -0.241 N 
ATOM      2  C   UNL     1       2.240  -4.908  -1.556  0.00  0.00    +0.227 C 
ATOM      3  O   UNL     1       3.088  -4.513  -0.785  0.00  0.00    -0.275 OA
ATOM      4  C   UNL     1       2.036  -6.319  -2.037  0.00  0.00    +0.107 C 
ATOM      5  C   UNL     1       2.134  -7.474  -1.032  0.00  0.00    +0.072 C 
ATOM      6  N   UNL     1       1.109  -8.444  -1.544  0.00  0.00    -0.295 NA
ATOM      7  C   UNL     1       0.072  -7.651  -2.276  0.00  0.00    +0.136 C 
ATOM      8  C   UNL     1       0.458  -6.241  -2.103  0.00  0.00    +0.122 C 
ATOM      9  C   UNL     1       0.257  -4.933  -2.683  0.00  0.00    +0.228 C 
ATOM     10  O   UNL     1      -0.613  -4.592  -3.454  0.00  0.00    -0.275 OA
ATOM     11  C   UNL     1       0.034  -8.086  -3.718  0.00  0.00    +0.003 A 
ATOM     12  C   UNL     1       0.954  -8.042  -4.741  0.00  0.00    +0.008 A 
ATOM     13  C   UNL     1       0.621  -8.529  -5.993  0.00  0.00    +0.000 A 
ATOM     14  C   UNL     1      -0.637  -9.060  -6.212  0.00  0.00    +0.002 A 
ATOM     15  C   UNL     1      -1.561  -9.108  -5.189  0.00  0.00    +0.023 A 
ATOM     16  C   UNL     1      -1.233  -8.619  -3.926  0.00  0.00    +0.039 A 
ATOM     17  N   UNL     1      -1.982  -8.558  -2.750  0.00  0.00    -0.283 N 
ATOM     18  C   UNL     1      -1.292  -8.006  -1.736  0.00  0.00    +0.243 C 
ATOM     19  O   UNL     1      -1.690  -7.827  -0.604  0.00  0.00    -0.273 OA
ATOM     20  H   UNL     1       1.533  -9.131  -2.150  0.00  0.00    +0.124 HD
ATOM     21  H   UNL     1      -2.896  -8.877  -2.673  0.00  0.00    +0.155 HD
ENDROOT
BRANCH   1  22
ATOM     22  C   UNL     1       1.309  -2.703  -2.261  0.00  0.00    +0.118 C 
BRANCH  22  23
ATOM     23  C   UNL     1       0.613  -2.097  -1.041  0.00  0.00    +0.047 C 
BRANCH  23  24
ATOM     24  C   UNL     1       0.652  -0.570  -1.138  0.00  0.00    +0.161 C 
BRANCH  24  26
ATOM     25  C   UNL     1      -0.017   1.425   0.010  0.00  0.00    +0.193 C 
ATOM     26  O   UNL     1       0.002  -0.004   0.002  0.00  0.00    -0.383 OA
ENDBRANCH  24  26
ENDBRANCH  23  24
ENDBRANCH  22  23
ENDBRANCH   1  22
BRANCH   5  27
ATOM     27  C   UNL     1       3.532  -8.095  -1.053  0.00  0.00    +0.052 C 
BRANCH  27  28
ATOM     28  C   UNL     1       3.633  -9.141   0.027  0.00  0.00    -0.040 C 
ATOM     29  C   UNL     1       3.439 -10.473  -0.110  0.00  0.00    -0.001 A 
ATOM     30  C   UNL     1       3.089 -11.313  -1.262  0.00  0.00    +0.010 A 
ATOM     31  C   UNL     1       2.961 -12.648  -1.085  0.00  0.00    +0.001 A 
ATOM     32  C   UNL     1       3.154 -13.247   0.168  0.00  0.00    +0.002 A 
ATOM     33  C   UNL     1       3.478 -12.541   1.272  0.00  0.00    +0.026 A 
ATOM     34  C   UNL     1       3.638 -11.130   1.201  0.00  0.00    +0.043 A 
ATOM     35  N   UNL     1       3.943 -10.239   2.114  0.00  0.00    -0.380 N 
ATOM     36  C   UNL     1       3.978  -8.915   1.482  0.00  0.00    +0.144 C 
ATOM     37  H   UNL     1       4.120 -10.425   3.049  0.00  0.00    +0.160 HD
ENDBRANCH  27  28
ENDBRANCH   5  27
TORSDOF 6
