REMARK  Name = ZINC64155887
REMARK  7 active torsions:
REMARK  status: ('A' for Active; 'I' for Inactive)
REMARK    1  A    between atoms: C_1  and  C_2
REMARK    2  A    between atoms: N_4  and  C_5
REMARK    3  A    between atoms: C_5  and  C_7
REMARK    4  A    between atoms: C_5  and  C_17
REMARK    5  A    between atoms: C_7  and  C_8
REMARK    6  A    between atoms: N_19  and  C_20
REMARK    7  A    between atoms: C_23  and  N_26
REMARK                            x       y       z     vdW  Elec       q    Type
REMARK                         _______ _______ _______ _____ _____    ______ ____
ROOT
ATOM      1  C   UNL     1      -1.196  -2.660  -0.456  0.00  0.00    +0.238 C 
ATOM      2  O   UNL     1      -1.793  -1.946   0.321  0.00  0.00    -0.273 OA
ATOM      3  N   UNL     1      -1.615  -3.923  -0.671  0.00  0.00    -0.284 N 
ATOM      4  H   UNL     1      -1.178  -4.471  -1.342  0.00  0.00    +0.155 HD
ENDROOT
BRANCH   3   5
ATOM      5  C   UNL     1      -2.681  -4.443   0.073  0.00  0.00    +0.034 A 
ATOM      6  C   UNL     1      -2.683  -5.782   0.441  0.00  0.00    +0.025 A 
ATOM      7  C   UNL     1      -3.733  -6.295   1.175  0.00  0.00    +0.028 A 
ATOM      8  C   UNL     1      -4.788  -5.471   1.546  0.00  0.00    +0.048 A 
ATOM      9  C   UNL     1      -4.787  -4.133   1.178  0.00  0.00    +0.028 A 
ATOM     10  C   UNL     1      -3.733  -3.618   0.449  0.00  0.00    +0.025 A 
BRANCH   8  11
ATOM     11  N   UNL     1      -5.856  -5.992   2.291  0.00  0.00    -0.299 N 
ATOM     12  C   UNL     1      -6.560  -7.125   2.012  0.00  0.00    +0.205 A 
ATOM     13  N   UNL     1      -7.481  -7.312   2.912  0.00  0.00    -0.235 NA
ATOM     14  C   UNL     1      -7.432  -6.313   3.831  0.00  0.00    +0.089 A 
ATOM     15  C   UNL     1      -6.385  -5.456   3.450  0.00  0.00    +0.073 A 
ATOM     16  C   UNL     1      -6.093  -4.337   4.216  0.00  0.00    +0.028 A 
ATOM     17  C   UNL     1      -6.830  -4.071   5.351  0.00  0.00    +0.002 A 
ATOM     18  C   UNL     1      -7.862  -4.916   5.734  0.00  0.00    +0.002 A 
ATOM     19  C   UNL     1      -8.171  -6.026   4.981  0.00  0.00    +0.030 A 
ENDBRANCH   8  11
ENDBRANCH   3   5
BRANCH   1  20
ATOM     20  C   UNL     1       0.016  -2.135  -1.182  0.00  0.00    +0.163 C 
BRANCH  20  24
ATOM     21  C   UNL     1      -0.015   1.501   0.017  0.00  0.00    +0.109 C 
ATOM     22  C   UNL     1       0.006  -0.006   0.004  0.00  0.00    +0.211 C 
ATOM     23  O   UNL     1       0.032  -0.621   1.049  0.00  0.00    -0.276 OA
ATOM     24  N   UNL     1      -0.004  -0.670  -1.169  0.00  0.00    -0.304 N 
ATOM     25  H   UNL     1      -0.024  -0.177  -2.005  0.00  0.00    +0.149 HD
ENDBRANCH  20  24
BRANCH  20  26
ATOM     26  C   UNL     1       1.284  -2.633  -0.486  0.00  0.00    +0.065 C 
BRANCH  26  27
ATOM     27  C   UNL     1       2.493  -2.211  -1.280  0.00  0.00    -0.039 C 
ATOM     28  C   UNL     1       3.255  -1.112  -1.079  0.00  0.00    -0.001 A 
ATOM     29  C   UNL     1       3.189  -0.022  -0.098  0.00  0.00    +0.010 A 
ATOM     30  C   UNL     1       4.114   0.963  -0.148  0.00  0.00    +0.001 A 
ATOM     31  C   UNL     1       5.132   0.970  -1.112  0.00  0.00    +0.002 A 
ATOM     32  C   UNL     1       5.258   0.003  -2.046  0.00  0.00    +0.026 A 
ATOM     33  C   UNL     1       4.340  -1.082  -2.086  0.00  0.00    +0.043 A 
ATOM     34  N   UNL     1       4.252  -2.122  -2.879  0.00  0.00    -0.380 N 
ATOM     35  C   UNL     1       3.103  -2.934  -2.461  0.00  0.00    +0.144 C 
ATOM     36  H   UNL     1       4.848  -2.324  -3.616  0.00  0.00    +0.160 HD
ENDBRANCH  26  27
ENDBRANCH  20  26
ENDBRANCH   1  20
TORSDOF 6
