REMARK  Name = ZINC39967915
REMARK  13 active torsions:
REMARK  status: ('A' for Active; 'I' for Inactive)
REMARK    1  A    between atoms: C_1  and  C_2
REMARK    2  A    between atoms: C_2  and  N_3
REMARK    3  A    between atoms: C_4  and  C_24
REMARK    4  A    between atoms: C_7  and  S_8
REMARK    5  A    between atoms: S_8  and  C_9
REMARK    6  A    between atoms: C_9  and  C_10
REMARK    7  A    between atoms: N_12  and  C_13
REMARK    8  A    between atoms: C_14  and  C_22
REMARK    9  A    between atoms: C_15  and  C_21
REMARK   10  A    between atoms: C_16  and  C_18
REMARK   11  A    between atoms: C_24  and  O_25
REMARK   12  A    between atoms: O_25  and  C_26
REMARK   13  A    between atoms: C_31  and  C_32
REMARK                            x       y       z     vdW  Elec       q    Type
REMARK                         _______ _______ _______ _____ _____    ______ ____
ROOT
ATOM      1  S   UNL     1       3.261  -0.556  -0.107  0.00  0.00    -0.077 S 
ENDROOT
BRANCH   1   6
ATOM      2  N   UNL     1       0.688  -0.476  -1.203  0.00  0.00    -0.303 N 
ATOM      3  C   UNL     1       0.126  -0.748  -2.420  0.00  0.00    +0.172 A 
ATOM      4  N   UNL     1       1.084  -1.140  -3.211  0.00  0.00    -0.130 NA
ATOM      5  N   UNL     1       2.205  -1.136  -2.582  0.00  0.00    -0.122 NA
ATOM      6  C   UNL     1       2.021  -0.732  -1.347  0.00  0.00    +0.192 A 
BRANCH   2   8
ATOM      7  C   UNL     1      -0.019   1.526   0.010  0.00  0.00    +0.027 C 
ATOM      8  C   UNL     1       0.002  -0.004   0.002  0.00  0.00    +0.122 C 
ENDBRANCH   2   8
BRANCH   3   9
ATOM      9  C   UNL     1      -1.332  -0.617  -2.780  0.00  0.00    +0.305 C 
BRANCH   9  10
ATOM     10  O   UNL     1      -1.584   0.700  -3.274  0.00  0.00    -0.484 OA
BRANCH  10  11
ATOM     11  C   UNL     1      -2.860   0.986  -3.646  0.00  0.00    +0.124 A 
ATOM     12  C   UNL     1      -3.849   0.020  -3.532  0.00  0.00    +0.047 A 
ATOM     13  C   UNL     1      -5.145   0.312  -3.911  0.00  0.00    +0.023 A 
ATOM     14  C   UNL     1      -5.457   1.567  -4.404  0.00  0.00    +0.041 A 
ATOM     15  C   UNL     1      -4.471   2.531  -4.518  0.00  0.00    +0.027 A 
ATOM     16  C   UNL     1      -3.175   2.245  -4.134  0.00  0.00    -0.007 A 
ATOM     17  C   UNL     1      -2.104   3.298  -4.253  0.00  0.00    +0.047 C 
ATOM     18 CL   UNL     1      -7.086   1.932  -4.879  0.00  0.00    -0.084 Cl
ENDBRANCH  10  11
ENDBRANCH   9  10
ENDBRANCH   3   9
ENDBRANCH   1   6
BRANCH   1  19
ATOM     19  C   UNL     1       4.792  -1.052  -0.943  0.00  0.00    +0.173 C 
BRANCH  19  20
ATOM     20  C   UNL     1       5.947  -0.946   0.019  0.00  0.00    +0.228 C 
ATOM     21  O   UNL     1       5.756  -0.573   1.157  0.00  0.00    -0.275 OA
ATOM     22  N   UNL     1       7.192  -1.266  -0.386  0.00  0.00    -0.278 N 
ATOM     23  H   UNL     1       7.345  -1.565  -1.296  0.00  0.00    +0.155 HD
BRANCH  22  24
ATOM     24  C   UNL     1       8.252  -1.169   0.497  0.00  0.00    +0.090 A 
ATOM     25  C   UNL     1       9.598  -1.449   0.260  0.00  0.00    +0.084 A 
ATOM     26  C   UNL     1      10.487  -1.276   1.310  0.00  0.00    -0.012 A 
ATOM     27  C   UNL     1       9.951  -0.841   2.494  0.00  0.00    +0.080 A 
ATOM     28  S   UNL     1       8.220  -0.680   2.104  0.00  0.00    -0.067 S 
ATOM     29  C   UNL     1      11.961  -1.551   1.158  0.00  0.00    +0.046 C 
BRANCH  27  30
ATOM     30  C   UNL     1      10.632  -0.571   3.761  0.00  0.00    +0.248 C 
ATOM     31  O   UNL     1      11.835  -0.732   3.852  0.00  0.00    -0.270 OA
ATOM     32  N   UNL     1       9.926  -0.145   4.827  0.00  0.00    -0.325 N 
ATOM     33  H   UNL     1       8.967  -0.017   4.755  0.00  0.00    +0.145 HD
ATOM     34  H   UNL     1      10.377   0.034   5.667  0.00  0.00    +0.145 HD
ENDBRANCH  27  30
BRANCH  25  35
ATOM     35  C   UNL     1      10.046  -1.900  -1.024  0.00  0.00    +0.102 C 
ATOM     36  N   UNL     1      10.401  -2.258  -2.042  0.00  0.00    -0.191 NA
ENDBRANCH  25  35
ENDBRANCH  22  24
ENDBRANCH  19  20
ENDBRANCH   1  19
TORSDOF 10
