REMARK  Name = ZINC39630620
REMARK  10 active torsions:
REMARK  status: ('A' for Active; 'I' for Inactive)
REMARK    1  A    between atoms: C_1  and  C_2
REMARK    2  A    between atoms: C_2  and  C_3
REMARK    3  A    between atoms: C_2  and  C_4
REMARK    4  A    between atoms: C_2  and  C_35
REMARK    5  A    between atoms: C_4  and  N_5
REMARK    6  A    between atoms: C_6  and  C_8
REMARK    7  A    between atoms: C_19  and  C_21
REMARK    8  A    between atoms: C_35  and  N_36
REMARK    9  A    between atoms: N_36  and  C_37
REMARK   10  A    between atoms: N_36  and  C_38
REMARK                            x       y       z     vdW  Elec       q    Type
REMARK                         _______ _______ _______ _____ _____    ______ ____
ROOT
ATOM      1  C   UNL     1      -6.994  -1.247   2.858  0.00  0.00    +0.100 C 
ATOM      2  C   UNL     1      -6.936  -1.751   4.318  0.00  0.00    +0.121 C 
ATOM      3  N   UNL     1      -8.329  -2.146   4.633  0.00  0.00    -0.296 N 
ATOM      4  C   UNL     1      -8.820  -2.789   3.391  0.00  0.00    +0.115 C 
ATOM      5  C   UNL     1      -8.231  -1.931   2.253  0.00  0.00    -0.004 C 
ATOM      6  C   UNL     1      -9.246  -0.885   1.802  0.00  0.00    -0.010 C 
ATOM      7  C   UNL     1     -10.441  -1.588   1.153  0.00  0.00    -0.082 C 
ATOM      8  N   UNL     1      -9.982  -2.380   0.005  0.00  0.00    +0.379 N 
ATOM      9  C   UNL     1      -9.077  -3.443   0.461  0.00  0.00    -0.082 C 
ATOM     10  C   UNL     1      -7.824  -2.819   1.081  0.00  0.00    -0.010 C 
ATOM     11  C   UNL     1      -8.999  -1.962   5.788  0.00  0.00    +0.247 C 
ATOM     12  O   UNL     1     -10.174  -2.262   5.864  0.00  0.00    -0.270 OA
ATOM     13  H   UNL     1     -10.778  -2.793  -0.457  0.00  0.00    -0.086 HD
ATOM     14  H   UNL     1      -9.493  -1.780  -0.642  0.00  0.00    -0.086 HD
ENDROOT
BRANCH  11  15
ATOM     15  C   UNL     1      -8.304  -1.396   6.963  0.00  0.00    +0.045 A 
ATOM     16  C   UNL     1      -7.068  -1.914   7.366  0.00  0.00    +0.014 A 
ATOM     17  C   UNL     1      -6.418  -1.387   8.460  0.00  0.00    +0.001 A 
ATOM     18  C   UNL     1      -6.979  -0.340   9.174  0.00  0.00    +0.012 A 
ATOM     19  C   UNL     1      -8.206   0.189   8.791  0.00  0.00    +0.031 A 
ATOM     20  C   UNL     1      -8.877  -0.334   7.675  0.00  0.00    +0.006 A 
ATOM     21  C   UNL     1     -10.146   0.413   7.489  0.00  0.00    -0.006 A 
ATOM     22  C   UNL     1     -11.163   0.293   6.551  0.00  0.00    +0.009 A 
ATOM     23  C   UNL     1     -12.261   1.138   6.606  0.00  0.00    +0.001 A 
ATOM     24  C   UNL     1     -12.353   2.101   7.592  0.00  0.00    +0.001 A 
ATOM     25  C   UNL     1     -11.347   2.234   8.535  0.00  0.00    +0.012 A 
ATOM     26  C   UNL     1     -10.241   1.394   8.491  0.00  0.00    +0.030 A 
ATOM     27  C   UNL     1      -9.037   1.283   9.348  0.00  0.00    +0.194 C 
ATOM     28  O   UNL     1      -8.773   1.969  10.315  0.00  0.00    -0.287 OA
ENDBRANCH  11  15
BRANCH   1  30
ATOM     29  N   UNL     1      -5.288  -0.894   1.103  0.00  0.00    -0.315 N 
ATOM     30  C   UNL     1      -5.750  -1.657   2.113  0.00  0.00    +0.218 C 
ATOM     31  O   UNL     1      -5.165  -2.674   2.421  0.00  0.00    -0.275 OA
ATOM     32  H   UNL     1      -5.756  -0.081   0.856  0.00  0.00    +0.149 HD
BRANCH  29  33
ATOM     33  C   UNL     1      -4.079  -1.292   0.377  0.00  0.00    +0.108 C 
BRANCH  33  35
ATOM     34  C   UNL     1      -4.951  -0.185  -1.685  0.00  0.00    +0.010 C 
ATOM     35  C   UNL     1      -3.774  -0.261  -0.711  0.00  0.00    -0.034 C 
ATOM     36  C   UNL     1      -3.555   1.110  -0.068  0.00  0.00    +0.010 C 
BRANCH  35  37
ATOM     37  C   UNL     1      -2.511  -0.677  -1.468  0.00  0.00    -0.072 C 
BRANCH  37  38
ATOM     38  N   UNL     1      -2.152   0.370  -2.434  0.00  0.00    +0.376 N 
ATOM     39  C   UNL     1      -1.349   1.400  -1.763  0.00  0.00    -0.097 C 
ATOM     40  C   UNL     1      -1.374  -0.222  -3.531  0.00  0.00    -0.097 C 
ATOM     41  H   UNL     1      -2.993   0.787  -2.806  0.00  0.00    -0.083 HD
ENDBRANCH  37  38
ENDBRANCH  35  37
ENDBRANCH  33  35
ENDBRANCH  29  33
ENDBRANCH   1  30
TORSDOF 6
