REMARK  Name = ZINC59310647
REMARK  10 active torsions:
REMARK  status: ('A' for Active; 'I' for Inactive)
REMARK    1  A    between atoms: C_1  and  C_2
REMARK    2  A    between atoms: C_2  and  O_3
REMARK    3  A    between atoms: O_3  and  C_4
REMARK    4  A    between atoms: C_7  and  N_10
REMARK    5  A    between atoms: C_11  and  C_13
REMARK    6  A    between atoms: C_13  and  S_14
REMARK    7  A    between atoms: S_14  and  C_15
REMARK    8  A    between atoms: N_20  and  N_21
REMARK    9  A    between atoms: C_22  and  C_23
REMARK   10  A    between atoms: C_22  and  C_24
REMARK                            x       y       z     vdW  Elec       q    Type
REMARK                         _______ _______ _______ _____ _____    ______ ____
ROOT
ATOM      1  C   UNL     1       2.371 -10.044  -4.913  0.00  0.00    +0.211 A 
ATOM      2  N   UNL     1       2.840 -10.770  -5.933  0.00  0.00    -0.186 NA
ATOM      3  C   UNL     1       2.635 -12.049  -5.698  0.00  0.00    +0.232 A 
ATOM      4  N   UNL     1       2.021 -12.160  -4.501  0.00  0.00    -0.245 N 
ATOM      5  N   UNL     1       1.865 -10.853  -4.012  0.00  0.00    -0.144 NA
ATOM      6  N   UNL     1       2.987 -13.096  -6.531  0.00  0.00    -0.205 N 
ATOM      7  H   UNL     1       2.793 -14.010  -6.271  0.00  0.00    +0.177 HD
ATOM      8  H   UNL     1       1.744 -12.980  -4.064  0.00  0.00    +0.192 HD
ENDROOT
BRANCH   6   9
ATOM      9  N   UNL     1       3.623 -12.836  -7.752  0.00  0.00    -0.189 NA
ATOM     10  C   UNL     1       3.949 -13.804  -8.523  0.00  0.00    +0.040 C 
ATOM     11  C   UNL     1       3.648 -15.224  -8.118  0.00  0.00    +0.063 C 
BRANCH  10  12
ATOM     12  C   UNL     1       4.634 -13.525  -9.836  0.00  0.00    +0.011 C 
ATOM     13  C   UNL     1       3.776 -14.062 -10.983  0.00  0.00    +0.016 C 
ATOM     14  C   UNL     1       4.471 -13.779 -12.317  0.00  0.00    -0.010 C 
ATOM     15  C   UNL     1       4.657 -12.269 -12.483  0.00  0.00    +0.007 C 
ATOM     16  C   UNL     1       5.515 -11.731 -11.336  0.00  0.00    -0.010 C 
ATOM     17  C   UNL     1       4.820 -12.015 -10.003  0.00  0.00    +0.016 C 
ATOM     18  C   UNL     1       6.881 -12.419 -11.356  0.00  0.00    +0.007 C 
ATOM     19  C   UNL     1       6.695 -13.928 -11.189  0.00  0.00    -0.010 C 
ATOM     20  C   UNL     1       5.838 -14.466 -12.336  0.00  0.00    +0.007 C 
ATOM     21  C   UNL     1       6.000 -14.212  -9.856  0.00  0.00    +0.016 C 
ENDBRANCH  10  12
ENDBRANCH   6   9
BRANCH   1  22
ATOM     22  S   UNL     1       2.429  -8.287  -4.794  0.00  0.00    -0.075 S 
BRANCH  22  23
ATOM     23  C   UNL     1       1.651  -7.929  -3.195  0.00  0.00    +0.173 C 
BRANCH  23  25
ATOM     24  N   UNL     1       1.102  -5.938  -1.834  0.00  0.00    -0.285 N 
ATOM     25  C   UNL     1       1.635  -6.440  -2.966  0.00  0.00    +0.227 C 
ATOM     26  O   UNL     1       2.103  -5.694  -3.799  0.00  0.00    -0.275 OA
ATOM     27  H   UNL     1       0.797  -6.536  -1.135  0.00  0.00    +0.155 HD
BRANCH  24  31
ATOM     28  C   UNL     1       0.759  -1.811  -1.344  0.00  0.00    +0.121 A 
ATOM     29  C   UNL     1       0.629  -2.373  -2.606  0.00  0.00    +0.047 A 
ATOM     30  C   UNL     1       0.743  -3.739  -2.769  0.00  0.00    +0.027 A 
ATOM     31  C   UNL     1       0.987  -4.551  -1.670  0.00  0.00    +0.034 A 
ATOM     32  C   UNL     1       1.117  -3.989  -0.407  0.00  0.00    +0.027 A 
ATOM     33  C   UNL     1       1.009  -2.622  -0.246  0.00  0.00    +0.047 A 
BRANCH  28  34
ATOM     34  O   UNL     1       0.648  -0.466  -1.184  0.00  0.00    -0.492 OA
BRANCH  34  36
ATOM     35  C   UNL     1       0.297   1.788  -1.982  0.00  0.00    +0.048 C 
ATOM     36  C   UNL     1       0.390   0.308  -2.357  0.00  0.00    +0.225 C 
ENDBRANCH  34  36
ENDBRANCH  28  34
ENDBRANCH  24  31
ENDBRANCH  23  25
ENDBRANCH  22  23
ENDBRANCH   1  22
TORSDOF 8
