REMARK  Name = ZINC13582232
REMARK  7 active torsions:
REMARK  status: ('A' for Active; 'I' for Inactive)
REMARK    1  A    between atoms: C_1  and  C_2
REMARK    2  A    between atoms: C_5  and  C_8
REMARK    3  A    between atoms: C_8  and  C_10
REMARK    4  A    between atoms: C_12  and  C_24
REMARK    5  A    between atoms: C_18  and  C_19
REMARK    6  A    between atoms: C_18  and  O_23
REMARK    7  A    between atoms: C_28  and  N_30
REMARK                            x       y       z     vdW  Elec       q    Type
REMARK                         _______ _______ _______ _____ _____    ______ ____
ROOT
ATOM      1  C   UNL     1      -4.018   2.317   0.119  0.00  0.00    +0.144 C 
ATOM      2  C   UNL     1      -4.988   1.275  -0.447  0.00  0.00    +0.120 C 
ATOM      3  N   UNL     1      -4.768  -0.004   0.231  0.00  0.00    -0.292 N 
ATOM      4  C   UNL     1      -4.314  -0.056   1.492  0.00  0.00    +0.302 C 
ATOM      5  O   UNL     1      -4.159  -1.144   2.012  0.00  0.00    -0.253 OA
ATOM      6  N   UNL     1      -4.026   1.044   2.203  0.00  0.00    -0.264 N 
ATOM      7  C   UNL     1      -4.204   2.383   1.639  0.00  0.00    +0.243 C 
ATOM      8  H   UNL     1      -4.953  -0.831  -0.242  0.00  0.00    +0.151 HD
ATOM      9  H   UNL     1      -3.692   0.951   3.109  0.00  0.00    +0.153 HD
ENDROOT
BRANCH   2  10
ATOM     10  C   UNL     1      -4.745   1.110  -1.925  0.00  0.00    -0.024 A 
ATOM     11  C   UNL     1      -3.772   0.236  -2.372  0.00  0.00    +0.005 A 
ATOM     12  C   UNL     1      -3.553   0.081  -3.728  0.00  0.00    +0.003 A 
ATOM     13  C   UNL     1      -4.300   0.808  -4.636  0.00  0.00    +0.033 A 
ATOM     14  C   UNL     1      -5.269   1.686  -4.189  0.00  0.00    +0.127 A 
ATOM     15  C   UNL     1      -5.492   1.837  -2.833  0.00  0.00    +0.038 A 
BRANCH  14  16
ATOM     16  N   UNL     1      -6.069   2.465  -5.161  0.00  0.00    +0.056 N 
ATOM     17  O   UNL     1      -6.923   3.238  -4.767  0.00  0.00    -0.126 OA
ATOM     18  O   UNL     1      -5.872   2.332  -6.356  0.00  0.00    -0.126 OA
ENDBRANCH  14  16
ENDBRANCH   2  10
BRANCH   7  19
ATOM     19  C   UNL     1      -3.167   3.334   2.240  0.00  0.00    +0.436 C 
ATOM     20  F   UNL     1      -3.245   4.575   1.600  0.00  0.00    -0.166 F 
ATOM     21  F   UNL     1      -3.420   3.497   3.606  0.00  0.00    -0.166 F 
ATOM     22  F   UNL     1      -1.886   2.798   2.064  0.00  0.00    -0.166 F 
ENDBRANCH   7  19
BRANCH   1  23
ATOM     23  C   UNL     1      -2.601   1.916  -0.201  0.00  0.00    +0.173 C 
ATOM     24  O   UNL     1      -2.151   0.878   0.238  0.00  0.00    -0.292 OA
BRANCH  23  29
ATOM     25  C   UNL     1       0.669   5.295  -3.507  0.00  0.00    +0.044 C 
ATOM     26  C   UNL     1      -0.187   4.410  -2.638  0.00  0.00    -0.050 A 
ATOM     27  C   UNL     1       0.363   3.289  -2.043  0.00  0.00    +0.004 A 
ATOM     28  C   UNL     1      -0.414   2.475  -1.246  0.00  0.00    +0.011 A 
ATOM     29  C   UNL     1      -1.763   2.782  -1.045  0.00  0.00    +0.018 A 
ATOM     30  C   UNL     1      -2.311   3.920  -1.645  0.00  0.00    +0.011 A 
ATOM     31  C   UNL     1      -1.521   4.724  -2.440  0.00  0.00    +0.004 A 
ENDBRANCH  23  29
ENDBRANCH   1  23
BRANCH   7  32
ATOM     32  O   UNL     1      -5.518   2.857   1.939  0.00  0.00    -0.364 OA
ATOM     33  H   UNL     1      -5.705   2.924   2.885  0.00  0.00    +0.212 HD
ENDBRANCH   7  32
TORSDOF 6
