REMARK  Name = ZINC25182425
REMARK  12 active torsions:
REMARK  status: ('A' for Active; 'I' for Inactive)
REMARK    1  A    between atoms: C_1  and  C_2
REMARK    2  A    between atoms: C_5  and  S_8
REMARK    3  A    between atoms: S_8  and  N_11
REMARK    4  A    between atoms: N_11  and  C_12
REMARK    5  A    between atoms: N_11  and  C_13
REMARK    6  A    between atoms: C_16  and  O_19
REMARK    7  A    between atoms: O_19  and  C_20
REMARK    8  A    between atoms: C_20  and  C_21
REMARK    9  A    between atoms: N_23  and  C_24
REMARK   10  A    between atoms: C_24  and  C_25
REMARK   11  A    between atoms: C_25  and  C_27
REMARK   12  A    between atoms: C_25  and  N_32
REMARK                            x       y       z     vdW  Elec       q    Type
REMARK                         _______ _______ _______ _____ _____    ______ ____
ROOT
ATOM      1  O   UNL     1      -5.091   2.391   7.430  0.00  0.00    -0.483 OA
ENDROOT
BRANCH   1   5
ATOM      2  C   UNL     1      -8.051  -0.347   8.319  0.00  0.00    +0.051 A 
ATOM      3  C   UNL     1      -8.022   0.881   8.968  0.00  0.00    +0.028 A 
ATOM      4  C   UNL     1      -7.032   1.796   8.670  0.00  0.00    +0.047 A 
ATOM      5  C   UNL     1      -6.066   1.489   7.723  0.00  0.00    +0.121 A 
ATOM      6  C   UNL     1      -6.097   0.266   7.071  0.00  0.00    +0.047 A 
ATOM      7  C   UNL     1      -7.084  -0.652   7.371  0.00  0.00    +0.028 A 
BRANCH   2   8
ATOM      8  N   UNL     1      -9.055  -1.274   8.620  0.00  0.00    -0.206 N 
ATOM      9  C   UNL     1      -9.700  -1.255   9.935  0.00  0.00    +0.157 C 
BRANCH   8  10
ATOM     10  S   UNL     1      -9.513  -2.394   7.489  0.00  0.00    +0.074 S 
ATOM     11  O   UNL     1     -10.854  -2.754   7.795  0.00  0.00    -0.150 OA
ATOM     12  O   UNL     1      -9.135  -1.871   6.223  0.00  0.00    -0.150 OA
BRANCH  10  17
ATOM     13  C   UNL     1      -6.154  -7.324   8.395  0.00  0.00    +0.044 C 
ATOM     14  C   UNL     1      -6.993  -6.092   8.169  0.00  0.00    -0.050 A 
ATOM     15  C   UNL     1      -8.137  -5.888   8.918  0.00  0.00    +0.005 A 
ATOM     16  C   UNL     1      -8.906  -4.759   8.710  0.00  0.00    +0.029 A 
ATOM     17  C   UNL     1      -8.532  -3.833   7.754  0.00  0.00    +0.109 A 
ATOM     18  C   UNL     1      -7.391  -4.040   7.001  0.00  0.00    +0.029 A 
ATOM     19  C   UNL     1      -6.619  -5.167   7.212  0.00  0.00    +0.005 A 
ENDBRANCH  10  17
ENDBRANCH   8  10
ENDBRANCH   2   8
ENDBRANCH   1   5
BRANCH   1  20
ATOM     20  C   UNL     1      -4.129   2.009   6.445  0.00  0.00    +0.324 C 
BRANCH  20  21
ATOM     21  C   UNL     1      -3.135   3.126   6.255  0.00  0.00    +0.251 C 
ATOM     22  O   UNL     1      -3.240   4.148   6.899  0.00  0.00    -0.272 OA
ATOM     23  N   UNL     1      -2.129   2.988   5.368  0.00  0.00    -0.314 N 
ATOM     24  H   UNL     1      -2.033   2.061   4.784  0.00  0.00    +0.149 HD
BRANCH  23  25
ATOM     25  C   UNL     1      -1.162   4.074   5.183  0.00  0.00    +0.096 C 
BRANCH  25  26
ATOM     26  C   UNL     1      -0.132   3.665   4.128  0.00  0.00    +0.016 C 
BRANCH  26  27
ATOM     27  N   UNL     1      -0.825   3.279   2.891  0.00  0.00    +0.387 N 
ATOM     28  C   UNL     1       0.133   3.125   1.774  0.00  0.00    -0.078 C 
ATOM     29  C   UNL     1      -0.586   3.583   0.491  0.00  0.00    -0.020 C 
ATOM     30  C   UNL     1      -1.991   4.032   0.954  0.00  0.00    -0.020 C 
ATOM     31  C   UNL     1      -1.780   4.335   2.458  0.00  0.00    -0.078 C 
ATOM     32  H   UNL     1      -1.335   2.333   3.121  0.00  0.00    -0.081 HD
ENDBRANCH  26  27
BRANCH  26  33
ATOM     33  C   UNL     1       0.788   4.825   3.848  0.00  0.00    +0.093 A 
ATOM     34  C   UNL     1       2.068   4.928   4.247  0.00  0.00    +0.043 A 
ATOM     35  C   UNL     1       2.549   6.168   3.767  0.00  0.00    +0.041 A 
ATOM     36  C   UNL     1       1.531   6.753   3.111  0.00  0.00    +0.195 A 
ATOM     37  O   UNL     1       0.467   5.935   3.163  0.00  0.00    -0.469 OA
ENDBRANCH  26  33
ENDBRANCH  25  26
ENDBRANCH  23  25
ENDBRANCH  20  21
ENDBRANCH   1  20
TORSDOF 10
