REMARK  Name = ZINC59383319
REMARK  5 active torsions:
REMARK  status: ('A' for Active; 'I' for Inactive)
REMARK    1  A    between atoms: C_3  and  S_8
REMARK    2  A    between atoms: C_6  and  N_7
REMARK    3  A    between atoms: S_8  and  C_11
REMARK    4  A    between atoms: C_14  and  N_17
REMARK    5  A    between atoms: C_23  and  N_28
REMARK                            x       y       z     vdW  Elec       q    Type
REMARK                         _______ _______ _______ _____ _____    ______ ____
ROOT
ATOM      1  C   UNL     1       4.354   2.577   1.656  0.00  0.00    +0.094 A 
ATOM      2  C   UNL     1       3.917   3.705   2.327  0.00  0.00    +0.029 A 
ATOM      3  C   UNL     1       4.279   3.910   3.643  0.00  0.00    +0.026 A 
ATOM      4  C   UNL     1       5.083   2.984   4.294  0.00  0.00    +0.045 A 
ATOM      5  C   UNL     1       5.521   1.853   3.617  0.00  0.00    +0.026 A 
ATOM      6  C   UNL     1       5.151   1.650   2.302  0.00  0.00    +0.029 A 
ENDROOT
BRANCH   4   7
ATOM      7  N   UNL     1       5.453   3.190   5.630  0.00  0.00    -0.202 N 
ATOM      8  C   UNL     1       5.076   4.248   6.369  0.00  0.00    +0.258 C 
ATOM      9  O   UNL     1       4.372   5.163   5.989  0.00  0.00    -0.269 OA
ATOM     10  C   UNL     1       5.658   4.114   7.717  0.00  0.00    +0.050 A 
ATOM     11  C   UNL     1       5.613   4.884   8.871  0.00  0.00    +0.015 A 
ATOM     12  C   UNL     1       6.289   4.468  10.003  0.00  0.00    +0.023 A 
ATOM     13  C   UNL     1       7.015   3.282   9.992  0.00  0.00    +0.025 A 
ATOM     14  C   UNL     1       7.067   2.499   8.838  0.00  0.00    +0.036 A 
ATOM     15  C   UNL     1       6.394   2.909   7.702  0.00  0.00    +0.051 A 
ATOM     16  C   UNL     1       6.227   2.352   6.343  0.00  0.00    +0.258 C 
ATOM     17  O   UNL     1       6.709   1.313   5.938  0.00  0.00    -0.269 OA
BRANCH  13  18
ATOM     18  N   UNL     1       7.691   2.873  11.136  0.00  0.00    -0.358 N 
ATOM     19  H   UNL     1       7.656   3.416  11.940  0.00  0.00    +0.142 HD
ATOM     20  H   UNL     1       8.198   2.046  11.131  0.00  0.00    +0.142 HD
ENDBRANCH  13  18
ENDBRANCH   4   7
BRANCH   1  21
ATOM     21  S   UNL     1       3.890   2.319  -0.024  0.00  0.00    +0.025 S 
ATOM     22  O   UNL     1       4.872   1.461  -0.589  0.00  0.00    -0.164 OA
ATOM     23  O   UNL     1       3.595   3.599  -0.566  0.00  0.00    -0.164 OA
BRANCH  21  26
ATOM     24  C   UNL     1      -0.017   1.385   0.010  0.00  0.00    +0.024 A 
ATOM     25  C   UNL     1       1.171   2.090   0.002  0.00  0.00    +0.029 A 
ATOM     26  C   UNL     1       2.377   1.415  -0.013  0.00  0.00    +0.094 A 
ATOM     27  C   UNL     1       2.400   0.032  -0.021  0.00  0.00    +0.029 A 
ATOM     28  C   UNL     1       1.216  -0.679  -0.014  0.00  0.00    +0.024 A 
ATOM     29  C   UNL     1       0.002  -0.004   0.002  0.00  0.00    +0.025 A 
BRANCH  29  30
ATOM     30  N   UNL     1      -1.197  -0.720   0.010  0.00  0.00    -0.358 N 
ATOM     31  H   UNL     1      -2.044  -0.248   0.021  0.00  0.00    +0.142 HD
ATOM     32  H   UNL     1      -1.183  -1.690   0.005  0.00  0.00    +0.142 HD
ENDBRANCH  29  30
ENDBRANCH  21  26
ENDBRANCH   1  21
TORSDOF 5
