REMARK  Name = ZINC38556474
REMARK  5 active torsions:
REMARK  status: ('A' for Active; 'I' for Inactive)
REMARK    1  A    between atoms: C_1  and  O_2
REMARK    2  A    between atoms: O_2  and  C_3
REMARK    3  A    between atoms: C_6  and  C_9
REMARK    4  A    between atoms: C_11  and  C_15
REMARK    5  A    between atoms: C_23  and  C_25
REMARK                            x       y       z     vdW  Elec       q    Type
REMARK                         _______ _______ _______ _____ _____    ______ ____
ROOT
ATOM      1  C   UNL     1      -7.083  -4.879   1.310  0.00  0.00    +0.206 C 
ATOM      2  N   UNL     1      -6.861  -4.034   2.507  0.00  0.00    -0.231 NA
ATOM      3  N   UNL     1      -8.165  -3.912   3.182  0.00  0.00    -0.224 NA
ATOM      4  C   UNL     1      -8.886  -5.117   2.726  0.00  0.00    +0.240 C 
ATOM      5  N   UNL     1      -8.541  -5.130   1.266  0.00  0.00    -0.206 N 
ATOM      6  N   UNL     1      -9.636  -5.269   0.440  0.00  0.00    -0.178 NA
ATOM      7  C   UNL     1     -10.853  -5.121   0.846  0.00  0.00    +0.098 C 
ATOM      8  S   UNL     1     -10.692  -4.830   2.635  0.00  0.00    -0.067 S 
ATOM      9  H   UNL     1      -6.174  -4.447   3.120  0.00  0.00    +0.143 HD
ATOM     10  H   UNL     1      -8.644  -3.072   2.893  0.00  0.00    +0.144 HD
ENDROOT
BRANCH   7  11
ATOM     11  C   UNL     1     -12.118  -5.185   0.029  0.00  0.00    +0.046 C 
ATOM     12  C   UNL     1     -12.704  -6.596   0.104  0.00  0.00    +0.010 C 
ATOM     13  C   UNL     1     -13.988  -6.661  -0.725  0.00  0.00    +0.001 C 
ATOM     14  C   UNL     1     -13.672  -6.317  -2.182  0.00  0.00    +0.000 C 
ATOM     15  C   UNL     1     -13.086  -4.905  -2.257  0.00  0.00    +0.001 C 
ATOM     16  C   UNL     1     -11.802  -4.841  -1.428  0.00  0.00    +0.010 C 
ENDBRANCH   7  11
BRANCH   1  19
ATOM     17  C   UNL     1      -4.963  -2.620   0.035  0.00  0.00    +0.091 C 
ATOM     18  C   UNL     1      -5.128  -3.957   0.039  0.00  0.00    +0.034 C 
ATOM     19  C   UNL     1      -6.635  -4.138   0.048  0.00  0.00    +0.190 C 
ATOM     20  N   UNL     1      -7.139  -2.755   0.047  0.00  0.00    -0.176 NA
ATOM     21  N   UNL     1      -6.170  -1.994   0.045  0.00  0.00    -0.154 NA
BRANCH  17  25
ATOM     22  C   UNL     1      -1.200  -0.637   0.010  0.00  0.00    +0.120 A 
ATOM     23  C   UNL     1      -2.374   0.104   0.019  0.00  0.00    +0.046 A 
ATOM     24  C   UNL     1      -3.595  -0.536   0.027  0.00  0.00    +0.013 A 
ATOM     25  C   UNL     1      -3.651  -1.928   0.026  0.00  0.00    +0.002 A 
ATOM     26  C   UNL     1      -2.471  -2.670   0.016  0.00  0.00    +0.013 A 
ATOM     27  C   UNL     1      -1.252  -2.025   0.003  0.00  0.00    +0.046 A 
BRANCH  22  29
ATOM     28  C   UNL     1      -0.017   1.425   0.010  0.00  0.00    +0.277 C 
ATOM     29  O   UNL     1       0.002  -0.004   0.002  0.00  0.00    -0.495 OA
ENDBRANCH  22  29
ENDBRANCH  17  25
ENDBRANCH   1  19
TORSDOF 4
