REMARK  Name = ZINC02054002
REMARK  10 active torsions:
REMARK  status: ('A' for Active; 'I' for Inactive)
REMARK    1  A    between atoms: C_1  and  C_2
REMARK    2  A    between atoms: C_5  and  N_8
REMARK    3  A    between atoms: C_9  and  C_31
REMARK    4  A    between atoms: C_11  and  C_14
REMARK    5  A    between atoms: C_12  and  C_13
REMARK    6  A    between atoms: N_15  and  N_16
REMARK    7  A    between atoms: C_17  and  C_19
REMARK    8  A    between atoms: N_21  and  C_22
REMARK    9  A    between atoms: C_27  and  O_28
REMARK   10  A    between atoms: O_28  and  C_29
REMARK                            x       y       z     vdW  Elec       q    Type
REMARK                         _______ _______ _______ _____ _____    ______ ____
ROOT
ATOM      1  N   UNL     1       3.493  -8.395   1.504  0.00  0.00    -0.199 N 
ATOM      2  C   UNL     1       4.702  -8.231   2.078  0.00  0.00    +0.318 C 
ATOM      3  O   UNL     1       5.129  -7.114   2.286  0.00  0.00    -0.263 OA
ATOM      4  H   UNL     1       3.151  -9.287   1.338  0.00  0.00    +0.178 HD
ENDROOT
BRANCH   2   5
ATOM      5  C   UNL     1       5.514  -9.422   2.456  0.00  0.00    +0.305 C 
ATOM      6  O   UNL     1       5.086 -10.540   2.248  0.00  0.00    -0.265 OA
ATOM      7  N   UNL     1       6.722  -9.259   3.030  0.00  0.00    -0.275 N 
ATOM      8  H   UNL     1       7.092  -8.369   3.137  0.00  0.00    +0.155 HD
BRANCH   7   9
ATOM      9  C   UNL     1       7.444 -10.374   3.470  0.00  0.00    +0.077 A 
ATOM     10  C   UNL     1       7.371 -11.570   2.770  0.00  0.00    +0.047 A 
ATOM     11  C   UNL     1       8.085 -12.671   3.208  0.00  0.00    +0.043 A 
ATOM     12  C   UNL     1       8.873 -12.582   4.343  0.00  0.00    +0.024 A 
ATOM     13  C   UNL     1       8.949 -11.393   5.045  0.00  0.00    +0.049 A 
ATOM     14  C   UNL     1       8.242 -10.284   4.609  0.00  0.00    +0.141 A 
ATOM     15 CL   UNL     1       7.994 -14.166   2.332  0.00  0.00    -0.083 Cl
BRANCH  14  16
ATOM     16  O   UNL     1       8.321  -9.113   5.295  0.00  0.00    -0.493 OA
ATOM     17  C   UNL     1       9.158  -9.095   6.453  0.00  0.00    +0.277 C 
ENDBRANCH  14  16
ENDBRANCH   7   9
ENDBRANCH   2   5
BRANCH   1  19
ATOM     18  C   UNL     1       1.564  -7.432   0.596  0.00  0.00    +0.140 C 
ATOM     19  N   UNL     1       2.729  -7.275   1.149  0.00  0.00    -0.187 NA
BRANCH  18  23
ATOM     20  N   UNL     1       0.087  -4.174  -0.086  0.00  0.00    -0.317 N 
ATOM     21  C   UNL     1      -0.916  -4.969  -0.565  0.00  0.00    +0.022 A 
ATOM     22  C   UNL     1      -0.564  -6.258  -0.406  0.00  0.00    +0.032 A 
ATOM     23  C   UNL     1       0.761  -6.255   0.222  0.00  0.00    +0.016 A 
ATOM     24  C   UNL     1       1.105  -4.943   0.385  0.00  0.00    +0.030 A 
ATOM     25  C   UNL     1       2.389  -4.435   0.987  0.00  0.00    +0.064 C 
ATOM     26  C   UNL     1      -2.206  -4.481  -1.172  0.00  0.00    +0.064 C 
BRANCH  20  31
ATOM     27  C   UNL     1       0.022   1.500  -0.085  0.00  0.00    +0.044 C 
ATOM     28  C   UNL     1       0.039  -0.006  -0.086  0.00  0.00    -0.050 A 
ATOM     29  C   UNL     1       0.048  -0.696  -1.284  0.00  0.00    +0.005 A 
ATOM     30  C   UNL     1       0.064  -2.077  -1.287  0.00  0.00    +0.026 A 
ATOM     31  C   UNL     1       0.071  -2.773  -0.086  0.00  0.00    +0.047 A 
ATOM     32  C   UNL     1       0.062  -2.078   1.116  0.00  0.00    +0.026 A 
ATOM     33  C   UNL     1       0.051  -0.696   1.113  0.00  0.00    +0.005 A 
ENDBRANCH  20  31
ENDBRANCH  18  23
ENDBRANCH   1  19
TORSDOF 6
