REMARK  Name = ZINC20092367
REMARK  6 active torsions:
REMARK  status: ('A' for Active; 'I' for Inactive)
REMARK    1  A    between atoms: C_1  and  C_2
REMARK    2  A    between atoms: C_7  and  N_12
REMARK    3  A    between atoms: C_9  and  C_11
REMARK    4  A    between atoms: N_12  and  C_13
REMARK    5  A    between atoms: C_13  and  C_15
REMARK    6  A    between atoms: C_13  and  C_16
REMARK                            x       y       z     vdW  Elec       q    Type
REMARK                         _______ _______ _______ _____ _____    ______ ____
ROOT
ATOM      1  C   UNL     1      -0.533   0.936   2.447  0.00  0.00    -0.044 C 
ATOM      2  C   UNL     1       0.719   1.370   3.212  0.00  0.00    -0.009 C 
ENDROOT
BRANCH   1   3
ATOM      3  C   UNL     1      -1.732   1.025   3.357  0.00  0.00    -0.060 A 
ATOM      4  C   UNL     1      -2.332   2.251   3.589  0.00  0.00    +0.004 A 
ATOM      5  C   UNL     1      -3.434   2.341   4.416  0.00  0.00    +0.028 A 
ATOM      6  C   UNL     1      -3.935   1.201   5.026  0.00  0.00    +0.067 A 
ATOM      7  C   UNL     1      -3.327  -0.035   4.796  0.00  0.00    +0.067 A 
ATOM      8  C   UNL     1      -2.224  -0.116   3.959  0.00  0.00    +0.029 A 
ATOM      9  N   UNL     1      -4.040  -0.978   5.531  0.00  0.00    -0.306 N 
ATOM     10  H   UNL     1      -3.741  -2.036   5.506  0.00  0.00    +0.170 HD
ATOM     11  C   UNL     1      -5.037  -0.345   6.179  0.00  0.00    +0.325 A 
ATOM     12  O   UNL     1      -5.848  -0.881   6.910  0.00  0.00    -0.247 OA
ATOM     13  N   UNL     1      -4.999   0.970   5.894  0.00  0.00    -0.306 N 
ATOM     14  H   UNL     1      -5.633   1.807   6.221  0.00  0.00    +0.170 HD
ENDBRANCH   1   3
BRANCH   1  15
ATOM     15  N   UNL     1      -0.731   1.819   1.290  0.00  0.00    +0.385 N 
ATOM     16  H   UNL     1      -0.421   2.837   1.566  0.00  0.00    -0.085 HD
ATOM     17  H   UNL     1      -1.798   1.819   1.024  0.00  0.00    -0.085 HD
BRANCH  15  23
ATOM     18  C   UNL     1       0.989  -0.785  -1.625  0.00  0.00    +0.008 C 
ATOM     19  C   UNL     1      -0.045   0.241  -2.092  0.00  0.00    -0.013 C 
ATOM     20  C   UNL     1       0.672   1.436  -2.725  0.00  0.00    +0.003 C 
ATOM     21  C   UNL     1       1.600   2.079  -1.693  0.00  0.00    -0.001 C 
ATOM     22  C   UNL     1       0.777   2.555  -0.494  0.00  0.00    -0.015 C 
ATOM     23  C   UNL     1       0.060   1.361   0.139  0.00  0.00    -0.068 C 
ATOM     24  C   UNL     1      -0.868   0.718  -0.894  0.00  0.00    -0.025 C 
ATOM     25  C   UNL     1      -1.585  -0.476  -0.261  0.00  0.00    +0.006 C 
ENDBRANCH  15  23
ENDBRANCH   1  15
TORSDOF 3
