REMARK  Name = ZINC54615357
REMARK  10 active torsions:
REMARK  status: ('A' for Active; 'I' for Inactive)
REMARK    1  A    between atoms: C_1  and  C_2
REMARK    2  A    between atoms: C_5  and  C_8
REMARK    3  A    between atoms: C_8  and  O_9
REMARK    4  A    between atoms: O_9  and  C_10
REMARK    5  A    between atoms: C_13  and  C_16
REMARK    6  A    between atoms: C_18  and  C_27
REMARK    7  A    between atoms: C_19  and  C_26
REMARK    8  A    between atoms: N_29  and  C_30
REMARK    9  A    between atoms: C_34  and  C_37
REMARK   10  A    between atoms: C_35  and  C_36
REMARK                            x       y       z     vdW  Elec       q    Type
REMARK                         _______ _______ _______ _____ _____    ______ ____
ROOT
ATOM      1  C   UNL     1       2.185 -10.427  -0.072  0.00  0.00    +0.177 C 
ATOM      2  C   UNL     1       2.967 -10.741  -1.320  0.00  0.00    +0.060 C 
ATOM      3  C   UNL     1       4.258 -11.101  -1.303  0.00  0.00    +0.018 C 
ATOM      4  N   UNL     1       4.969 -11.223  -0.134  0.00  0.00    -0.287 N 
ATOM      5  C   UNL     1       4.251 -11.219   1.054  0.00  0.00    +0.218 A 
ATOM      6  N   UNL     1       2.945 -10.854   1.099  0.00  0.00    -0.221 N 
ATOM      7  N   UNL     1       2.545 -10.974   2.429  0.00  0.00    -0.156 NA
ATOM      8  C   UNL     1       3.591 -11.386   3.102  0.00  0.00    +0.247 A 
ATOM      9  N   UNL     1       4.623 -11.533   2.264  0.00  0.00    -0.201 NA
ATOM     10  C   UNL     1       4.953 -11.382  -2.610  0.00  0.00    +0.061 C 
ATOM     11  H   UNL     1       5.935 -11.308  -0.138  0.00  0.00    +0.155 HD
ENDROOT
BRANCH   1  15
ATOM     12  C   UNL     1       1.478  -6.218   0.145  0.00  0.00    +0.121 A 
ATOM     13  C   UNL     1       0.409  -7.100   0.101  0.00  0.00    +0.046 A 
ATOM     14  C   UNL     1       0.640  -8.460   0.030  0.00  0.00    +0.009 A 
ATOM     15  C   UNL     1       1.936  -8.942   0.004  0.00  0.00    -0.018 A 
ATOM     16  C   UNL     1       3.003  -8.065   0.049  0.00  0.00    +0.009 A 
ATOM     17  C   UNL     1       2.777  -6.703   0.113  0.00  0.00    +0.046 A 
BRANCH  12  18
ATOM     18  O   UNL     1       1.254  -4.879   0.214  0.00  0.00    -0.487 OA
BRANCH  18  19
ATOM     19  C   UNL     1      -0.109  -4.451   0.243  0.00  0.00    +0.264 C 
BRANCH  19  24
ATOM     20  C   UNL     1      -0.313   1.317   0.536  0.00  0.00    +0.044 C 
ATOM     21  C   UNL     1      -0.259  -0.187   0.460  0.00  0.00    -0.050 A 
ATOM     22  C   UNL     1      -0.241  -0.816  -0.771  0.00  0.00    +0.004 A 
ATOM     23  C   UNL     1      -0.192  -2.196  -0.841  0.00  0.00    +0.007 A 
ATOM     24  C   UNL     1      -0.161  -2.946   0.320  0.00  0.00    -0.010 A 
ATOM     25  C   UNL     1      -0.179  -2.317   1.550  0.00  0.00    +0.007 A 
ATOM     26  C   UNL     1      -0.224  -0.937   1.621  0.00  0.00    +0.004 A 
ENDBRANCH  19  24
ENDBRANCH  18  19
ENDBRANCH  12  18
ENDBRANCH   1  15
BRANCH   2  27
ATOM     27  C   UNL     1       2.308 -10.652  -2.568  0.00  0.00    +0.248 C 
ATOM     28  O   UNL     1       1.589 -11.561  -2.943  0.00  0.00    -0.270 OA
ATOM     29  N   UNL     1       2.475  -9.562  -3.343  0.00  0.00    -0.281 N 
ATOM     30  H   UNL     1       3.097  -8.867  -3.075  0.00  0.00    +0.155 HD
BRANCH  29  31
ATOM     31  C   UNL     1       1.753  -9.432  -4.533  0.00  0.00    +0.037 A 
ATOM     32  C   UNL     1       1.458 -10.556  -5.295  0.00  0.00    +0.023 A 
ATOM     33  C   UNL     1       0.745 -10.424  -6.470  0.00  0.00    +0.002 A 
ATOM     34  C   UNL     1       0.324  -9.175  -6.888  0.00  0.00    +0.004 A 
ATOM     35  C   UNL     1       0.616  -8.054  -6.133  0.00  0.00    -0.046 A 
ATOM     36  C   UNL     1       1.324  -8.180  -4.954  0.00  0.00    -0.026 A 
ATOM     37  C   UNL     1       1.636  -6.959  -4.127  0.00  0.00    +0.046 C 
ATOM     38  C   UNL     1       0.157  -6.695  -6.594  0.00  0.00    +0.044 C 
ENDBRANCH  29  31
ENDBRANCH   2  27
TORSDOF 6
