REMARK  Name = ZINC21759179
REMARK  9 active torsions:
REMARK  status: ('A' for Active; 'I' for Inactive)
REMARK    1  A    between atoms: C_1  and  C_2
REMARK    2  A    between atoms: C_4  and  C_7
REMARK    3  A    between atoms: C_10  and  C_12
REMARK    4  A    between atoms: C_12  and  N_13
REMARK    5  A    between atoms: C_14  and  C_16
REMARK    6  A    between atoms: C_16  and  N_17
REMARK    7  A    between atoms: C_22  and  C_29
REMARK    8  A    between atoms: C_25  and  C_27
REMARK    9  A    between atoms: C_25  and  C_28
REMARK                            x       y       z     vdW  Elec       q    Type
REMARK                         _______ _______ _______ _____ _____    ______ ____
ROOT
ATOM      1  C   UNL     1      -0.512  -2.210   2.939  0.00  0.00    +0.213 C 
ENDROOT
BRANCH   1   2
ATOM      2  N   UNL     1      -0.567  -1.373   1.738  0.00  0.00    -0.215 N 
ATOM      3  C   UNL     1       0.423  -0.541   1.348  0.00  0.00    +0.247 C 
ATOM      4  O   UNL     1       1.424  -0.278   1.981  0.00  0.00    -0.273 OA
ATOM      5  C   UNL     1       0.002  -0.004   0.002  0.00  0.00    +0.113 C 
ATOM      6  C   UNL     1      -0.019   1.518   0.010  0.00  0.00    +0.038 C 
ATOM      7  C   UNL     1       1.412   2.059  -0.000  0.00  0.00    -0.011 C 
ATOM      8  C   UNL     1       2.095   1.607  -1.290  0.00  0.00    +0.009 C 
ATOM      9  C   UNL     1       2.176   0.086  -1.359  0.00  0.00    -0.032 C 
ATOM     10  C   UNL     1       0.831  -0.580  -1.128  0.00  0.00    +0.041 C 
ATOM     11  C   UNL     1       3.218  -0.432  -0.364  0.00  0.00    +0.011 C 
ATOM     12  C   UNL     1       2.661  -0.294  -2.776  0.00  0.00    +0.011 C 
ATOM     13  C   UNL     1       1.373   3.590   0.043  0.00  0.00    +0.007 C 
ATOM     14  N   UNL     1      -1.387  -0.496  -0.138  0.00  0.00    -0.285 N 
ATOM     15  C   UNL     1      -1.601  -1.335   0.891  0.00  0.00    +0.310 C 
ATOM     16  O   UNL     1      -2.618  -1.986   1.035  0.00  0.00    -0.252 OA
ATOM     17  H   UNL     1      -2.011  -0.153  -0.977  0.00  0.00    +0.151 HD
ENDBRANCH   1   2
BRANCH   1  19
ATOM     18  N   UNL     1       0.241  -4.486   3.547  0.00  0.00    -0.307 N 
ATOM     19  C   UNL     1       0.090  -3.547   2.592  0.00  0.00    +0.231 C 
ATOM     20  O   UNL     1       0.440  -3.778   1.454  0.00  0.00    -0.274 OA
ATOM     21  H   UNL     1      -0.076  -4.277   4.579  0.00  0.00    +0.149 HD
BRANCH  18  22
ATOM     22  C   UNL     1       0.827  -5.786   3.209  0.00  0.00    +0.178 C 
BRANCH  22  26
ATOM     23  C   UNL     1       1.612  -7.579   6.295  0.00  0.00    +0.154 A 
ATOM     24  C   UNL     1       0.376  -8.090   6.050  0.00  0.00    +0.052 A 
ATOM     25  C   UNL     1      -0.084  -7.487   4.861  0.00  0.00    +0.047 A 
ATOM     26  C   UNL     1       0.883  -6.647   4.445  0.00  0.00    +0.123 A 
ATOM     27  O   UNL     1       1.909  -6.710   5.311  0.00  0.00    -0.457 OA
BRANCH  23  31
ATOM     28  C   UNL     1       2.585 -10.076  10.497  0.00  0.00    +0.073 C 
ATOM     29  C   UNL     1       2.858  -9.111   9.373  0.00  0.00    +0.076 A 
ATOM     30  N   UNL     1       2.093  -8.800   8.355  0.00  0.00    -0.241 NA
ATOM     31  C   UNL     1       2.481  -7.923   7.440  0.00  0.00    +0.113 A 
ATOM     32  C   UNL     1       3.717  -7.349   7.588  0.00  0.00    +0.078 A 
ATOM     33  S   UNL     1       4.264  -8.130   9.100  0.00  0.00    -0.080 S 
ENDBRANCH  23  31
ENDBRANCH  22  26
ENDBRANCH  18  22
ENDBRANCH   1  19
TORSDOF 5
