REMARK  Name = ZINC44877855
REMARK  10 active torsions:
REMARK  status: ('A' for Active; 'I' for Inactive)
REMARK    1  A    between atoms: C_1  and  C_2
REMARK    2  A    between atoms: N_7  and  C_9
REMARK    3  A    between atoms: C_9  and  C_10
REMARK    4  A    between atoms: C_13  and  C_16
REMARK    5  A    between atoms: C_16  and  N_17
REMARK    6  A    between atoms: C_18  and  C_20
REMARK    7  A    between atoms: C_20  and  N_21
REMARK    8  A    between atoms: N_21  and  C_22
REMARK    9  A    between atoms: N_21  and  S_29
REMARK   10  A    between atoms: S_29  and  C_32
REMARK                            x       y       z     vdW  Elec       q    Type
REMARK                         _______ _______ _______ _____ _____    ______ ____
ROOT
ATOM      1  N   UNL     1       2.009  -9.438   1.690  0.00  0.00    -0.310 N 
ATOM      2  C   UNL     1       1.713 -10.604   1.083  0.00  0.00    +0.232 C 
ATOM      3  O   UNL     1       2.044 -11.654   1.593  0.00  0.00    -0.274 OA
ATOM      4  H   UNL     1       1.744  -8.598   1.282  0.00  0.00    +0.149 HD
ENDROOT
BRANCH   1   5
ATOM      5  C   UNL     1       2.729  -9.438   2.965  0.00  0.00    +0.139 C 
BRANCH   5   9
ATOM      6  C   UNL     1       3.306  -5.413   4.277  0.00  0.00    -0.064 A 
ATOM      7  C   UNL     1       2.171  -6.107   4.652  0.00  0.00    +0.002 A 
ATOM      8  C   UNL     1       1.984  -7.409   4.228  0.00  0.00    +0.005 A 
ATOM      9  C   UNL     1       2.933  -8.018   3.427  0.00  0.00    -0.030 A 
ATOM     10  C   UNL     1       4.068  -7.324   3.051  0.00  0.00    +0.005 A 
ATOM     11  C   UNL     1       4.252  -6.021   3.472  0.00  0.00    +0.002 A 
BRANCH   6  12
ATOM     12  C   UNL     1       3.510  -3.994   4.740  0.00  0.00    -0.043 C 
BRANCH  12  18
ATOM     13  C   UNL     1       2.999   0.714   3.497  0.00  0.00    +0.005 C 
ATOM     14  C   UNL     1       2.677  -0.726   3.093  0.00  0.00    -0.031 C 
ATOM     15  C   UNL     1       1.159  -0.901   2.990  0.00  0.00    -0.001 C 
ATOM     16  C   UNL     1       0.844  -2.363   2.661  0.00  0.00    -0.018 C 
ATOM     17  C   UNL     1       1.460  -3.265   3.733  0.00  0.00    -0.078 C 
ATOM     18  N   UNL     1       2.915  -3.071   3.764  0.00  0.00    +0.383 N 
ATOM     19  C   UNL     1       3.226  -1.688   4.148  0.00  0.00    -0.075 C 
ATOM     20  H   UNL     1       3.298  -3.258   2.850  0.00  0.00    -0.081 HD
ENDBRANCH  12  18
ENDBRANCH   6  12
ENDBRANCH   5   9
ENDBRANCH   1   5
BRANCH   2  21
ATOM     21  C   UNL     1       0.972 -10.604  -0.229  0.00  0.00    +0.226 C 
BRANCH  21  22
ATOM     22  N   UNL     1       0.774 -11.985  -0.678  0.00  0.00    -0.199 N 
BRANCH  22  23
ATOM     23  C   UNL     1      -0.319 -12.721  -0.214  0.00  0.00    +0.051 A 
ATOM     24  C   UNL     1      -0.115 -13.918   0.462  0.00  0.00    +0.026 A 
ATOM     25  C   UNL     1      -1.198 -14.643   0.920  0.00  0.00    +0.017 A 
ATOM     26  C   UNL     1      -2.483 -14.179   0.706  0.00  0.00    +0.018 A 
ATOM     27  C   UNL     1      -2.689 -12.988   0.033  0.00  0.00    +0.017 A 
ATOM     28  C   UNL     1      -1.611 -12.255  -0.422  0.00  0.00    +0.026 A 
ATOM     29 BR   UNL     1      -3.963 -15.176   1.333  0.00  0.00    -0.050 Br
ENDBRANCH  22  23
BRANCH  22  30
ATOM     30  S   UNL     1       1.847 -12.673  -1.736  0.00  0.00    +0.043 S 
ATOM     31  O   UNL     1       1.137 -13.759  -2.317  0.00  0.00    -0.155 OA
ATOM     32  O   UNL     1       2.305 -11.595  -2.540  0.00  0.00    -0.155 OA
ATOM     33  C   UNL     1       3.196 -13.293  -0.695  0.00  0.00    +0.218 C 
ENDBRANCH  22  30
ENDBRANCH  21  22
ENDBRANCH   2  21
TORSDOF 8
