REMARK  Name = ZINC02325137
REMARK  12 active torsions:
REMARK  status: ('A' for Active; 'I' for Inactive)
REMARK    1  A    between atoms: C_1  and  C_2
REMARK    2  A    between atoms: C_2  and  O_3
REMARK    3  A    between atoms: O_3  and  C_4
REMARK    4  A    between atoms: C_7  and  N_10
REMARK    5  A    between atoms: C_11  and  C_30
REMARK    6  A    between atoms: C_14  and  S_15
REMARK    7  A    between atoms: S_15  and  C_16
REMARK    8  A    between atoms: C_16  and  C_17
REMARK    9  A    between atoms: N_19  and  N_20
REMARK   10  A    between atoms: C_21  and  C_22
REMARK   11  A    between atoms: C_27  and  O_28
REMARK   12  A    between atoms: O_28  and  C_29
REMARK                            x       y       z     vdW  Elec       q    Type
REMARK                         _______ _______ _______ _____ _____    ______ ____
ROOT
ATOM      1  N   UNL     1     -11.374   1.185   0.068  0.00  0.00    -0.270 N 
ATOM      2  C   UNL     1     -12.046  -0.017   0.060  0.00  0.00    +0.169 A 
ATOM      3  N   UNL     1     -11.138  -0.965   0.051  0.00  0.00    -0.128 NA
ATOM      4  N   UNL     1      -9.962  -0.448   0.047  0.00  0.00    -0.122 NA
ATOM      5  C   UNL     1     -10.045   0.864   0.054  0.00  0.00    +0.197 A 
ENDROOT
BRANCH   2   6
ATOM      6  C   UNL     1     -13.512  -0.204   0.067  0.00  0.00    +0.020 A 
ATOM      7  C   UNL     1     -14.357   0.866  -0.231  0.00  0.00    +0.013 A 
ATOM      8  C   UNL     1     -15.724   0.684  -0.228  0.00  0.00    +0.021 A 
ATOM      9  C   UNL     1     -16.259  -0.555   0.080  0.00  0.00    +0.041 A 
ATOM     10  C   UNL     1     -15.427  -1.620   0.381  0.00  0.00    +0.021 A 
ATOM     11  C   UNL     1     -14.058  -1.452   0.376  0.00  0.00    +0.013 A 
ATOM     12 CL   UNL     1     -17.982  -0.775   0.089  0.00  0.00    -0.084 Cl
ENDBRANCH   2   6
BRANCH   1  16
ATOM     13  C   UNL     1     -13.045   5.008   0.116  0.00  0.00    +0.121 A 
ATOM     14  C   UNL     1     -12.311   4.585  -0.983  0.00  0.00    +0.047 A 
ATOM     15  C   UNL     1     -11.758   3.320  -1.000  0.00  0.00    +0.030 A 
ATOM     16  C   UNL     1     -11.936   2.471   0.084  0.00  0.00    +0.051 A 
ATOM     17  C   UNL     1     -12.675   2.892   1.181  0.00  0.00    +0.030 A 
ATOM     18  C   UNL     1     -13.224   4.159   1.198  0.00  0.00    +0.047 A 
BRANCH  13  19
ATOM     19  O   UNL     1     -13.589   6.253   0.131  0.00  0.00    -0.492 OA
BRANCH  19  21
ATOM     20  C   UNL     1     -14.864   8.047   1.130  0.00  0.00    +0.048 C 
ATOM     21  C   UNL     1     -14.332   6.622   1.295  0.00  0.00    +0.225 C 
ENDBRANCH  19  21
ENDBRANCH  13  19
ENDBRANCH   1  16
BRANCH   5  22
ATOM     22  S   UNL     1      -8.695   1.997   0.054  0.00  0.00    -0.076 S 
BRANCH  22  23
ATOM     23  C   UNL     1      -7.308   0.834   0.041  0.00  0.00    +0.174 C 
BRANCH  23  24
ATOM     24  C   UNL     1      -6.011   1.599   0.039  0.00  0.00    +0.242 C 
ATOM     25  O   UNL     1      -6.022   2.812   0.046  0.00  0.00    -0.273 OA
ATOM     26  N   UNL     1      -4.837   0.936   0.030  0.00  0.00    -0.206 N 
ATOM     27  H   UNL     1      -4.828  -0.034   0.025  0.00  0.00    +0.177 HD
BRANCH  26  28
ATOM     28  N   UNL     1      -3.630   1.648   0.028  0.00  0.00    -0.188 NA
ATOM     29  C   UNL     1      -2.500   1.010   0.019  0.00  0.00    +0.142 C 
BRANCH  29  30
ATOM     30  C   UNL     1      -1.231   1.759   0.017  0.00  0.00    +0.036 A 
ATOM     31  C   UNL     1      -0.013   1.076   0.008  0.00  0.00    +0.013 A 
ATOM     32  C   UNL     1       1.171   1.783   0.000  0.00  0.00    +0.001 A 
ATOM     33  C   UNL     1       1.158   3.167   0.007  0.00  0.00    +0.004 A 
ATOM     34  C   UNL     1      -0.041   3.854   0.023  0.00  0.00    +0.046 A 
ATOM     35  C   UNL     1      -1.240   3.160   0.030  0.00  0.00    +0.129 A 
BRANCH  35  36
ATOM     36  O   UNL     1      -2.418   3.835   0.045  0.00  0.00    -0.494 OA
ATOM     37  C   UNL     1      -2.349   5.262   0.052  0.00  0.00    +0.277 C 
ENDBRANCH  35  36
ENDBRANCH  29  30
ENDBRANCH  26  28
ENDBRANCH  23  24
ENDBRANCH  22  23
ENDBRANCH   5  22
TORSDOF 10
