REMARK  Name = ZINC12378211
REMARK  10 active torsions:
REMARK  status: ('A' for Active; 'I' for Inactive)
REMARK    1  A    between atoms: C_1  and  C_2
REMARK    2  A    between atoms: C_2  and  N_3
REMARK    3  A    between atoms: C_9  and  N_14
REMARK    4  A    between atoms: C_10  and  C_11
REMARK    5  A    between atoms: C_15  and  C_17
REMARK    6  A    between atoms: C_20  and  S_23
REMARK    7  A    between atoms: S_23  and  N_26
REMARK    8  A    between atoms: N_26  and  C_27
REMARK    9  A    between atoms: N_26  and  C_29
REMARK   10  A    between atoms: C_27  and  C_28
REMARK                            x       y       z     vdW  Elec       q    Type
REMARK                         _______ _______ _______ _____ _____    ______ ____
ROOT
ATOM      1  N   UNL     1       2.111  -0.721   7.173  0.00  0.00    -0.275 N 
ATOM      2  C   UNL     1       1.477  -0.140   8.210  0.00  0.00    +0.249 C 
ATOM      3  O   UNL     1       0.743   0.811   8.020  0.00  0.00    -0.270 OA
ATOM      4  H   UNL     1       2.696  -1.479   7.325  0.00  0.00    +0.156 HD
ENDROOT
BRANCH   1  11
ATOM      5  N   UNL     1       1.575   1.742   1.383  0.00  0.00    +0.383 N 
ATOM      6  C   UNL     1       1.711   0.312   1.076  0.00  0.00    -0.074 C 
ATOM      7  C   UNL     1       2.638  -0.362   2.094  0.00  0.00    +0.018 C 
ATOM      8  C   UNL     1       2.134  -0.012   3.487  0.00  0.00    -0.027 A 
ATOM      9  C   UNL     1       1.278   1.021   3.661  0.00  0.00    -0.021 A 
ATOM     10  S   UNL     1       0.968   1.056   5.401  0.00  0.00    -0.079 S 
ATOM     11  C   UNL     1       1.927  -0.235   5.888  0.00  0.00    +0.085 A 
ATOM     12  C   UNL     1       2.492  -0.702   4.711  0.00  0.00    +0.068 A 
ATOM     13  C   UNL     1       0.742   1.914   2.587  0.00  0.00    -0.035 C 
ATOM     14  H   UNL     1       2.489   2.138   1.547  0.00  0.00    -0.081 HD
BRANCH  12  15
ATOM     15  C   UNL     1       3.411  -1.844   4.704  0.00  0.00    +0.244 C 
ATOM     16  O   UNL     1       4.607  -1.664   4.832  0.00  0.00    -0.270 OA
ATOM     17  N   UNL     1       2.930  -3.095   4.555  0.00  0.00    -0.325 N 
ATOM     18  H   UNL     1       1.976  -3.239   4.453  0.00  0.00    +0.145 HD
ATOM     19  H   UNL     1       3.538  -3.851   4.551  0.00  0.00    +0.145 HD
ENDBRANCH  12  15
BRANCH   5  21
ATOM     20  C   UNL     1       0.918   3.934   0.512  0.00  0.00    -0.017 C 
ATOM     21  C   UNL     1       0.942   2.427   0.248  0.00  0.00    -0.082 C 
ENDBRANCH   5  21
ENDBRANCH   1  11
BRANCH   2  22
ATOM     22  C   UNL     1       1.673  -0.658   9.580  0.00  0.00    +0.037 A 
ATOM     23  C   UNL     1       2.519  -1.746   9.804  0.00  0.00    +0.015 A 
ATOM     24  C   UNL     1       2.698  -2.225  11.085  0.00  0.00    +0.029 A 
ATOM     25  C   UNL     1       2.041  -1.629  12.148  0.00  0.00    +0.109 A 
ATOM     26  C   UNL     1       1.201  -0.551  11.933  0.00  0.00    +0.029 A 
ATOM     27  C   UNL     1       1.018  -0.059  10.658  0.00  0.00    +0.015 A 
BRANCH  25  28
ATOM     28  S   UNL     1       2.276  -2.248  13.781  0.00  0.00    +0.075 S 
ATOM     29  O   UNL     1       1.128  -1.866  14.528  0.00  0.00    -0.150 OA
ATOM     30  O   UNL     1       2.682  -3.603  13.648  0.00  0.00    -0.150 OA
BRANCH  28  31
ATOM     31  N   UNL     1       3.559  -1.431  14.434  0.00  0.00    -0.203 N 
BRANCH  31  32
ATOM     32  C   UNL     1       4.840  -1.986  14.384  0.00  0.00    +0.051 A 
ATOM     33  C   UNL     1       5.866  -1.312  13.734  0.00  0.00    +0.025 A 
ATOM     34  C   UNL     1       7.131  -1.864  13.686  0.00  0.00    +0.002 A 
ATOM     35  C   UNL     1       7.376  -3.087  14.284  0.00  0.00    +0.000 A 
ATOM     36  C   UNL     1       6.357  -3.761  14.931  0.00  0.00    +0.002 A 
ATOM     37  C   UNL     1       5.091  -3.212  14.988  0.00  0.00    +0.025 A 
ENDBRANCH  31  32
BRANCH  31  38
ATOM     38  C   UNL     1       3.352  -0.125  15.065  0.00  0.00    +0.128 C 
ATOM     39  C   UNL     1       3.171  -0.310  16.573  0.00  0.00    +0.026 C 
ENDBRANCH  31  38
ENDBRANCH  28  31
ENDBRANCH  25  28
ENDBRANCH   2  22
TORSDOF 8
