REMARK  Name = ZINC36029121
REMARK  8 active torsions:
REMARK  status: ('A' for Active; 'I' for Inactive)
REMARK    1  A    between atoms: C_1  and  C_2
REMARK    2  A    between atoms: C_2  and  C_3
REMARK    3  A    between atoms: C_3  and  C_5
REMARK    4  A    between atoms: C_3  and  C_6
REMARK    5  A    between atoms: N_10  and  C_29
REMARK    6  A    between atoms: N_15  and  S_18
REMARK    7  A    between atoms: S_18  and  C_21
REMARK    8  A    between atoms: C_29  and  C_30
REMARK                            x       y       z     vdW  Elec       q    Type
REMARK                         _______ _______ _______ _____ _____    ______ ____
ROOT
ATOM      1  C   UNL     1       0.923  -2.037  -1.343  0.00  0.00    +0.022 C 
ATOM      2  C   UNL     1       1.793  -2.377  -0.152  0.00  0.00    +0.201 C 
ATOM      3  O   UNL     1       1.781  -1.808   0.919  0.00  0.00    -0.277 OA
ATOM      4  N   UNL     1       2.584  -3.418  -0.483  0.00  0.00    -0.314 N 
ATOM      5  C   UNL     1       2.300  -3.830  -1.861  0.00  0.00    +0.006 C 
ATOM      6  N   UNL     1       1.576  -2.706  -2.494  0.00  0.00    +0.401 N 
ATOM      7  C   UNL     1       3.603  -4.095  -2.613  0.00  0.00    +0.023 C 
ATOM      8  C   UNL     1       4.362  -5.237  -1.927  0.00  0.00    +0.109 C 
ATOM      9  N   UNL     1       3.470  -6.399  -1.818  0.00  0.00    -0.177 NA
ATOM     10  C   UNL     1       2.159  -6.227  -1.176  0.00  0.00    +0.109 C 
ATOM     11  C   UNL     1       1.419  -5.078  -1.868  0.00  0.00    +0.023 C 
ATOM     12  H   UNL     1       0.886  -3.047  -3.147  0.00  0.00    -0.082 HD
ATOM     13  H   UNL     1       2.221  -2.079  -2.951  0.00  0.00    -0.082 HD
ENDROOT
BRANCH   9  14
ATOM     14  S   UNL     1       3.932  -7.875  -2.408  0.00  0.00    +0.062 S 
ATOM     15  O   UNL     1       2.738  -8.600  -2.670  0.00  0.00    -0.153 OA
ATOM     16  O   UNL     1       4.907  -7.625  -3.411  0.00  0.00    -0.153 OA
BRANCH  14  17
ATOM     17  C   UNL     1       4.759  -8.722  -1.103  0.00  0.00    +0.125 A 
ATOM     18  C   UNL     1       4.215  -9.880  -0.577  0.00  0.00    +0.030 A 
ATOM     19  C   UNL     1       4.863 -10.545   0.448  0.00  0.00    +0.003 A 
ATOM     20  C   UNL     1       6.055 -10.053   0.947  0.00  0.00    +0.021 A 
ATOM     21  C   UNL     1       6.600  -8.896   0.422  0.00  0.00    +0.061 A 
ATOM     22  C   UNL     1       5.954  -8.233  -0.608  0.00  0.00    +0.086 A 
ATOM     23 CL   UNL     1       6.640  -6.784  -1.274  0.00  0.00    -0.080 Cl
ATOM     24 CL   UNL     1       8.096  -8.278   1.049  0.00  0.00    -0.082 Cl
ENDBRANCH  14  17
ENDBRANCH   9  14
BRANCH   1  25
ATOM     25  C   UNL     1       0.882  -0.523  -1.559  0.00  0.00    -0.020 C 
ATOM     26  C   UNL     1       0.059  -0.208  -2.809  0.00  0.00    +0.006 C 
BRANCH  25  28
ATOM     27  C   UNL     1       0.312   1.668  -0.503  0.00  0.00    +0.004 C 
ATOM     28  C   UNL     1       0.240   0.148  -0.343  0.00  0.00    -0.001 C 
ENDBRANCH  25  28
ENDBRANCH   1  25
BRANCH   4  29
ATOM     29  C   UNL     1       3.575  -4.041   0.398  0.00  0.00    +0.102 C 
ATOM     30  C   UNL     1       4.916  -3.319   0.249  0.00  0.00    +0.024 C 
ENDBRANCH   4  29
TORSDOF 5
