REMARK  Name = ZINC63492129
REMARK  10 active torsions:
REMARK  status: ('A' for Active; 'I' for Inactive)
REMARK    1  A    between atoms: C_1  and  C_2
REMARK    2  A    between atoms: C_2  and  C_3
REMARK    3  A    between atoms: C_2  and  C_4
REMARK    4  A    between atoms: C_4  and  N_5
REMARK    5  A    between atoms: C_6  and  N_28
REMARK    6  A    between atoms: C_7  and  C_14
REMARK    7  A    between atoms: C_14  and  C_16
REMARK    8  A    between atoms: C_16  and  N_17
REMARK    9  A    between atoms: N_17  and  C_18
REMARK   10  A    between atoms: N_17  and  C_19
REMARK                            x       y       z     vdW  Elec       q    Type
REMARK                         _______ _______ _______ _____ _____    ______ ____
ROOT
ATOM      1  N   UNL     1      -0.102  -0.303   2.453  0.00  0.00    -0.281 N 
ATOM      2  C   UNL     1       0.296   0.912   2.934  0.00  0.00    +0.116 A 
ATOM      3  C   UNL     1      -0.334   1.429   4.080  0.00  0.00    +0.118 A 
ATOM      4  C   UNL     1      -1.395   0.625   4.701  0.00  0.00    +0.266 A 
ATOM      5  O   UNL     1      -1.975   1.024   5.694  0.00  0.00    -0.267 OA
ATOM      6  N   UNL     1      -1.714  -0.563   4.147  0.00  0.00    -0.274 N 
ATOM      7  H   UNL     1      -2.413  -1.105   4.546  0.00  0.00    +0.173 HD
ATOM      8  C   UNL     1      -1.080  -1.003   3.048  0.00  0.00    +0.331 A 
ATOM      9  O   UNL     1      -1.400  -2.077   2.578  0.00  0.00    -0.246 OA
ENDROOT
BRANCH   2  10
ATOM     10  N   UNL     1       1.286   1.610   2.315  0.00  0.00    -0.344 N 
ATOM     11  H   UNL     1       1.773   1.211   1.578  0.00  0.00    +0.144 HD
ATOM     12  H   UNL     1       1.505   2.508   2.611  0.00  0.00    +0.144 HD
ENDBRANCH   2  10
BRANCH   3  13
ATOM     13  C   UNL     1       0.041   2.679   4.616  0.00  0.00    +0.155 C 
ATOM     14  O   UNL     1       0.843   3.376   4.027  0.00  0.00    -0.294 OA
BRANCH  13  15
ATOM     15  C   UNL     1      -0.553   3.149   5.918  0.00  0.00    +0.003 C 
BRANCH  15  16
ATOM     16  N   UNL     1      -0.005   4.469   6.258  0.00  0.00    +0.387 N 
ATOM     17  C   UNL     1      -0.439   5.452   5.256  0.00  0.00    -0.095 C 
ATOM     18  H   UNL     1       1.002   4.423   6.269  0.00  0.00    -0.081 HD
BRANCH  16  19
ATOM     19  C   UNL     1      -0.492   4.875   7.584  0.00  0.00    -0.037 C 
ATOM     20  C   UNL     1       0.128   6.229   7.990  0.00  0.00    -0.006 C 
ATOM     21  C   UNL     1       1.381   5.796   8.780  0.00  0.00    +0.034 C 
ATOM     22  C   UNL     1       1.052   4.423   9.325  0.00  0.00    -0.046 A 
ATOM     23  C   UNL     1      -0.025   3.893   8.637  0.00  0.00    -0.058 A 
ATOM     24  C   UNL     1      -0.503   2.637   8.968  0.00  0.00    +0.002 A 
ATOM     25  C   UNL     1       0.091   1.912   9.983  0.00  0.00    +0.000 A 
ATOM     26  C   UNL     1       1.167   2.441  10.670  0.00  0.00    +0.000 A 
ATOM     27  C   UNL     1       1.646   3.694  10.341  0.00  0.00    +0.004 A 
ENDBRANCH  16  19
ENDBRANCH  15  16
ENDBRANCH  13  15
ENDBRANCH   3  13
BRANCH   1  28
ATOM     28  C   UNL     1       0.548  -0.850   1.259  0.00  0.00    +0.131 C 
BRANCH  28  30
ATOM     29  C   UNL     1      -0.079   1.136  -0.121  0.00  0.00    +0.009 C 
ATOM     30  C   UNL     1      -0.203  -0.383   0.011  0.00  0.00    +0.003 C 
ATOM     31  C   UNL     1       0.399  -1.053  -1.226  0.00  0.00    +0.009 C 
ENDBRANCH  28  30
ENDBRANCH   1  28
TORSDOF 7
