REMARK  Name = ZINC20611159
REMARK  4 active torsions:
REMARK  status: ('A' for Active; 'I' for Inactive)
REMARK    1  A    between atoms: C_1  and  O_2
REMARK    2  A    between atoms: O_2  and  C_3
REMARK    3  A    between atoms: C_6  and  N_9
REMARK    4  A    between atoms: C_12  and  C_19
REMARK                            x       y       z     vdW  Elec       q    Type
REMARK                         _______ _______ _______ _____ _____    ______ ____
ROOT
ATOM      1  N   UNL     1       2.542  -2.504   4.232  0.00  0.00    -0.229 N 
ATOM      2  C   UNL     1       2.516  -3.848   4.328  0.00  0.00    +0.267 A 
ATOM      3  O   UNL     1       1.934  -4.512   3.487  0.00  0.00    -0.267 OA
ATOM      4  C   UNL     1       3.163  -4.479   5.404  0.00  0.00    +0.073 A 
ATOM      5  C   UNL     1       3.807  -3.714   6.331  0.00  0.00    +0.260 A 
ATOM      6  N   UNL     1       3.809  -2.349   6.195  0.00  0.00    -0.274 N 
ATOM      7  H   UNL     1       4.265  -1.800   6.852  0.00  0.00    +0.173 HD
ATOM      8  C   UNL     1       3.186  -1.766   5.154  0.00  0.00    +0.337 A 
ATOM      9  O   UNL     1       3.203  -0.555   5.048  0.00  0.00    -0.246 OA
ATOM     10  O   UNL     1       4.436  -4.295   7.375  0.00  0.00    -0.267 OA
ENDROOT
BRANCH   4  11
ATOM     11  C   UNL     1       3.147  -5.981   5.532  0.00  0.00    +0.018 C 
ATOM     12  C   UNL     1       1.731  -6.455   5.757  0.00  0.00    +0.011 A 
ATOM     13  C   UNL     1       1.212  -7.540   5.138  0.00  0.00    -0.022 A 
ATOM     14  C   UNL     1      -0.153  -7.680   5.593  0.00  0.00    +0.003 A 
ATOM     15  C   UNL     1      -1.164  -8.601   5.300  0.00  0.00    +0.010 A 
ATOM     16  C   UNL     1      -2.369  -8.424   5.933  0.00  0.00    +0.001 A 
ATOM     17  C   UNL     1      -2.587  -7.384   6.823  0.00  0.00    +0.002 A 
ATOM     18  C   UNL     1      -1.605  -6.459   7.131  0.00  0.00    +0.026 A 
ATOM     19  C   UNL     1      -0.371  -6.614   6.504  0.00  0.00    +0.047 A 
ATOM     20  N   UNL     1       0.789  -5.896   6.577  0.00  0.00    -0.359 N 
ATOM     21  H   UNL     1       0.925  -5.110   7.128  0.00  0.00    +0.166 HD
ATOM     22  C   UNL     1       1.993  -8.390   4.167  0.00  0.00    +0.018 C 
ATOM     23  C   UNL     1       3.480  -8.045   4.333  0.00  0.00    -0.076 C 
ATOM     24  N   UNL     1       3.658  -6.587   4.293  0.00  0.00    +0.388 N 
ATOM     25  H   UNL     1       3.153  -6.213   3.504  0.00  0.00    -0.084 HD
ATOM     26  H   UNL     1       4.638  -6.370   4.194  0.00  0.00    -0.084 HD
ENDBRANCH   4  11
BRANCH   1  30
ATOM     27  C   UNL     1       0.625  -0.620   1.042  0.00  0.00    +0.120 A 
ATOM     28  C   UNL     1       1.953  -1.001   0.925  0.00  0.00    +0.047 A 
ATOM     29  C   UNL     1       2.588  -1.625   1.981  0.00  0.00    +0.030 A 
ATOM     30  C   UNL     1       1.897  -1.870   3.159  0.00  0.00    +0.055 A 
ATOM     31  C   UNL     1       0.568  -1.488   3.276  0.00  0.00    +0.030 A 
ATOM     32  C   UNL     1      -0.065  -0.860   2.222  0.00  0.00    +0.047 A 
BRANCH  27  34
ATOM     33  C   UNL     1       0.770   0.209  -1.182  0.00  0.00    +0.277 C 
ATOM     34  O   UNL     1      -0.001  -0.006   0.002  0.00  0.00    -0.495 OA
ENDBRANCH  27  34
ENDBRANCH   1  30
TORSDOF 3
