REMARK  Name = ZINC09494371
REMARK  7 active torsions:
REMARK  status: ('A' for Active; 'I' for Inactive)
REMARK    1  A    between atoms: C_1  and  C_2
REMARK    2  A    between atoms: C_2  and  C_3
REMARK    3  A    between atoms: C_3  and  C_5
REMARK    4  A    between atoms: C_3  and  S_6
REMARK    5  A    between atoms: S_6  and  C_7
REMARK    6  A    between atoms: C_17  and  C_19
REMARK    7  A    between atoms: C_23  and  N_25
REMARK                            x       y       z     vdW  Elec       q    Type
REMARK                         _______ _______ _______ _____ _____    ______ ____
ROOT
ATOM      1  C   UNL     1      -3.900  -0.616   1.373  0.00  0.00    +0.172 A 
ATOM      2  N   UNL     1      -4.257  -1.208   0.252  0.00  0.00    -0.185 NA
ATOM      3  C   UNL     1      -5.516  -1.633   0.066  0.00  0.00    +0.280 A 
ATOM      4  O   UNL     1      -5.831  -2.183  -0.979  0.00  0.00    -0.265 OA
ATOM      5  C   UNL     1      -6.475  -1.441   1.084  0.00  0.00    +0.069 A 
ATOM      6  C   UNL     1      -6.093  -0.832   2.239  0.00  0.00    +0.111 A 
ATOM      7  N   UNL     1      -4.794  -0.421   2.382  0.00  0.00    -0.322 N 
ATOM      8  N   UNL     1      -7.002  -0.639   3.253  0.00  0.00    -0.304 N 
ATOM      9  C   UNL     1      -8.161  -1.364   3.299  0.00  0.00    +0.017 C 
ATOM     10  C   UNL     1      -8.625  -1.992   2.198  0.00  0.00    +0.024 C 
ATOM     11  C   UNL     1      -7.889  -1.901   0.885  0.00  0.00    +0.092 C 
ATOM     12  C   UNL     1      -9.807  -2.751   2.241  0.00  0.00    +0.162 C 
ATOM     13  O   UNL     1     -10.201  -3.299   1.230  0.00  0.00    -0.292 OA
ATOM     14  C   UNL     1     -10.594  -2.899   3.514  0.00  0.00    +0.080 C 
ATOM     15  C   UNL     1      -9.641  -2.779   4.707  0.00  0.00    +0.014 C 
ATOM     16  C   UNL     1      -8.907  -1.439   4.609  0.00  0.00    +0.051 C 
ATOM     17  H   UNL     1      -6.819   0.019   3.942  0.00  0.00    +0.153 HD
ATOM     18  H   UNL     1      -4.511   0.013   3.203  0.00  0.00    +0.169 HD
ENDROOT
BRANCH  11  19
ATOM     19  C   UNL     1      -8.604  -0.925  -0.014  0.00  0.00    -0.033 A 
ATOM     20  C   UNL     1      -8.722   0.401   0.361  0.00  0.00    +0.005 A 
ATOM     21  C   UNL     1      -9.378   1.296  -0.464  0.00  0.00    +0.003 A 
ATOM     22  C   UNL     1      -9.914   0.865  -1.663  0.00  0.00    +0.033 A 
ATOM     23  C   UNL     1      -9.794  -0.460  -2.038  0.00  0.00    +0.126 A 
ATOM     24  C   UNL     1      -9.135  -1.354  -1.215  0.00  0.00    +0.037 A 
BRANCH  23  25
ATOM     25  N   UNL     1     -10.369  -0.920  -3.322  0.00  0.00    +0.056 N 
ATOM     26  O   UNL     1     -10.943  -0.138  -4.043  0.00  0.00    -0.126 OA
ATOM     27  O   UNL     1     -10.264  -2.079  -3.650  0.00  0.00    -0.126 OA
ENDBRANCH  23  25
ENDBRANCH  11  19
BRANCH   1  28
ATOM     28  S   UNL     1      -2.236  -0.073   1.573  0.00  0.00    -0.085 S 
BRANCH  28  29
ATOM     29  C   UNL     1      -1.433  -0.534   0.013  0.00  0.00    +0.051 C 
ATOM     30  C   UNL     1      -1.416  -2.058  -0.121  0.00  0.00    +0.019 C 
BRANCH  29  32
ATOM     31  C   UNL     1      -0.019   1.526   0.010  0.00  0.00    +0.005 C 
ATOM     32  C   UNL     1       0.002  -0.004   0.002  0.00  0.00    +0.011 C 
ENDBRANCH  29  32
ENDBRANCH  28  29
ENDBRANCH   1  28
TORSDOF 5
