REMARK  Name = ZINC12659377
REMARK  7 active torsions:
REMARK  status: ('A' for Active; 'I' for Inactive)
REMARK    1  A    between atoms: C_1  and  C_2
REMARK    2  A    between atoms: C_2  and  N_3
REMARK    3  A    between atoms: C_4  and  C_6
REMARK    4  A    between atoms: C_6  and  N_17
REMARK    5  A    between atoms: C_7  and  C_8
REMARK    6  A    between atoms: C_12  and  N_14
REMARK    7  A    between atoms: C_18  and  C_20
REMARK                            x       y       z     vdW  Elec       q    Type
REMARK                         _______ _______ _______ _____ _____    ______ ____
ROOT
ATOM      1  C   UNL     1      -1.258   5.926  -0.075  0.00  0.00    +0.097 C 
ATOM      2  C   UNL     1      -0.157   5.172  -0.301  0.00  0.00    +0.036 C 
ENDROOT
BRANCH   2   3
ATOM      3  C   UNL     1      -0.220   3.711  -0.136  0.00  0.00    -0.021 A 
ATOM      4  C   UNL     1      -1.232   3.134   0.638  0.00  0.00    +0.008 A 
ATOM      5  C   UNL     1      -1.287   1.764   0.783  0.00  0.00    +0.003 A 
ATOM      6  C   UNL     1      -0.337   0.961   0.174  0.00  0.00    +0.033 A 
ATOM      7  C   UNL     1       0.667   1.525  -0.593  0.00  0.00    +0.127 A 
ATOM      8  C   UNL     1       0.733   2.893  -0.752  0.00  0.00    +0.040 A 
BRANCH   7   9
ATOM      9  N   UNL     1       1.673   0.657  -1.245  0.00  0.00    +0.056 N 
ATOM     10  O   UNL     1       1.617  -0.552  -1.106  0.00  0.00    -0.126 OA
ATOM     11  O   UNL     1       2.558   1.151  -1.921  0.00  0.00    -0.126 OA
ENDBRANCH   7   9
ENDBRANCH   2   3
BRANCH   1  13
ATOM     12  N   UNL     1      -2.277   8.143  -0.011  0.00  0.00    -0.311 N 
ATOM     13  C   UNL     1      -1.161   7.393  -0.094  0.00  0.00    +0.258 C 
ATOM     14  O   UNL     1      -0.073   7.929  -0.186  0.00  0.00    -0.269 OA
ATOM     15  H   UNL     1      -3.136   7.719   0.139  0.00  0.00    +0.149 HD
BRANCH  12  17
ATOM     16  C   UNL     1      -3.591  10.206  -0.014  0.00  0.00    +0.024 C 
ATOM     17  C   UNL     1      -2.193   9.599  -0.147  0.00  0.00    +0.101 C 
ENDBRANCH  12  17
ENDBRANCH   1  13
BRANCH   1  18
ATOM     18  N   UNL     1      -2.487   5.310   0.178  0.00  0.00    -0.277 N 
ATOM     19  C   UNL     1      -3.160   5.588   1.312  0.00  0.00    +0.249 C 
ATOM     20  O   UNL     1      -2.752   6.451   2.065  0.00  0.00    -0.270 OA
ATOM     21  H   UNL     1      -2.856   4.682  -0.463  0.00  0.00    +0.155 HD
BRANCH  19  22
ATOM     22  C   UNL     1      -4.394   4.845   1.640  0.00  0.00    +0.051 A 
ATOM     23  C   UNL     1      -4.869   3.857   0.774  0.00  0.00    +0.014 A 
ATOM     24  C   UNL     1      -6.019   3.164   1.089  0.00  0.00    +0.001 A 
ATOM     25  C   UNL     1      -6.708   3.451   2.254  0.00  0.00    +0.001 A 
ATOM     26  C   UNL     1      -6.247   4.432   3.114  0.00  0.00    +0.016 A 
ATOM     27  C   UNL     1      -5.094   5.130   2.814  0.00  0.00    +0.030 A 
ATOM     28 BR   UNL     1      -4.465   6.471   3.991  0.00  0.00    -0.050 Br
ENDBRANCH  19  22
ENDBRANCH   1  18
TORSDOF 6
