REMARK  Name = ZINC14462868
REMARK  8 active torsions:
REMARK  status: ('A' for Active; 'I' for Inactive)
REMARK    1  A    between atoms: C_1  and  C_2
REMARK    2  A    between atoms: C_2  and  C_3
REMARK    3  A    between atoms: C_2  and  C_4
REMARK    4  A    between atoms: C_7  and  C_10
REMARK    5  A    between atoms: C_21  and  S_26
REMARK    6  A    between atoms: S_26  and  N_29
REMARK    7  A    between atoms: N_29  and  C_30
REMARK    8  A    between atoms: N_29  and  C_31
REMARK                            x       y       z     vdW  Elec       q    Type
REMARK                         _______ _______ _______ _____ _____    ______ ____
ROOT
ATOM      1  C   UNL     1      -1.162  -0.718   0.665  0.00  0.00    +0.105 C 
ATOM      2  C   UNL     1      -0.096   0.096  -0.046  0.00  0.00    +0.029 C 
ATOM      3  C   UNL     1      -0.265   1.621  -0.054  0.00  0.00    +0.033 C 
ATOM      4  C   UNL     1       1.189   2.091  -0.122  0.00  0.00    -0.030 C 
ATOM      5  C   UNL     1       1.990   1.167   0.395  0.00  0.00    -0.023 C 
ATOM      6  C   UNL     1       1.159   0.034   0.876  0.00  0.00    +0.049 C 
ATOM      7  C   UNL     1       1.657  -1.358   0.872  0.00  0.00    -0.018 A 
ATOM      8  C   UNL     1       2.998  -1.664   0.962  0.00  0.00    +0.034 A 
ATOM      9  C   UNL     1       3.413  -2.983   0.989  0.00  0.00    +0.106 A 
ATOM     10  C   UNL     1       2.480  -4.002   0.925  0.00  0.00    +0.030 A 
ATOM     11  C   UNL     1       1.136  -3.706   0.827  0.00  0.00    +0.025 A 
ATOM     12  C   UNL     1       0.708  -2.384   0.793  0.00  0.00    +0.031 A 
ATOM     13  N   UNL     1      -0.660  -2.109   0.678  0.00  0.00    -0.336 N 
ATOM     14  H   UNL     1      -1.289  -2.844   0.606  0.00  0.00    +0.147 HD
ENDROOT
BRANCH   1  18
ATOM     15  C   UNL     1      -1.681   0.702   4.660  0.00  0.00    -0.045 A 
ATOM     16  C   UNL     1      -2.421   1.252   3.630  0.00  0.00    +0.004 A 
ATOM     17  C   UNL     1      -2.253   0.792   2.337  0.00  0.00    +0.006 A 
ATOM     18  C   UNL     1      -1.345  -0.217   2.075  0.00  0.00    -0.027 A 
ATOM     19  C   UNL     1      -0.610  -0.770   3.106  0.00  0.00    +0.006 A 
ATOM     20  C   UNL     1      -0.775  -0.308   4.398  0.00  0.00    +0.004 A 
BRANCH  15  22
ATOM     21  C   UNL     1      -2.324   0.051   6.965  0.00  0.00    +0.012 C 
ATOM     22  C   UNL     1      -1.864   1.203   6.070  0.00  0.00    +0.013 C 
ATOM     23  C   UNL     1      -0.536   1.755   6.591  0.00  0.00    +0.012 C 
ENDBRANCH  15  22
ENDBRANCH   1  18
BRANCH   9  24
ATOM     24  S   UNL     1       5.129  -3.365   1.105  0.00  0.00    +0.060 S 
ATOM     25  O   UNL     1       5.756  -2.237   1.701  0.00  0.00    -0.153 OA
ATOM     26  O   UNL     1       5.218  -4.669   1.663  0.00  0.00    -0.153 OA
BRANCH  24  27
ATOM     27  N   UNL     1       5.713  -3.470  -0.441  0.00  0.00    -0.183 NA
ATOM     28  C   UNL     1       6.245  -2.278  -1.105  0.00  0.00    +0.131 C 
ATOM     29  C   UNL     1       5.697  -4.755  -1.144  0.00  0.00    +0.131 C 
ENDBRANCH  24  27
ENDBRANCH   9  24
TORSDOF 4
