REMARK  Name = ZINC36497801
REMARK  9 active torsions:
REMARK  status: ('A' for Active; 'I' for Inactive)
REMARK    1  A    between atoms: C_4  and  O_34
REMARK    2  A    between atoms: C_5  and  C_7
REMARK    3  A    between atoms: N_9  and  C_10
REMARK    4  A    between atoms: N_9  and  C_16
REMARK    5  A    between atoms: C_10  and  C_11
REMARK    6  A    between atoms: C_16  and  C_18
REMARK    7  A    between atoms: C_16  and  C_25
REMARK    8  A    between atoms: C_22  and  O_24
REMARK    9  A    between atoms: N_27  and  C_28
REMARK                            x       y       z     vdW  Elec       q    Type
REMARK                         _______ _______ _______ _____ _____    ______ ____
ROOT
ATOM      1  C   UNL     1      -0.046  -3.914   0.728  0.00  0.00    +0.193 C 
ENDROOT
BRANCH   1   2
ATOM      2  C   UNL     1      -0.701  -3.585   2.045  0.00  0.00    -0.015 A 
ATOM      3  C   UNL     1      -1.561  -2.505   2.138  0.00  0.00    +0.006 A 
ATOM      4  C   UNL     1      -2.163  -2.200   3.344  0.00  0.00    +0.004 A 
ATOM      5  C   UNL     1      -1.907  -2.974   4.460  0.00  0.00    +0.045 A 
ATOM      6  C   UNL     1      -1.045  -4.056   4.370  0.00  0.00    +0.117 A 
ATOM      7  C   UNL     1      -0.447  -4.364   3.156  0.00  0.00    +0.051 A 
BRANCH   6   8
ATOM      8  O   UNL     1      -0.792  -4.818   5.466  0.00  0.00    -0.507 OA
ATOM      9  H   UNL     1      -1.399  -5.563   5.576  0.00  0.00    +0.292 HD
ENDBRANCH   6   8
ENDBRANCH   1   2
BRANCH   1  10
ATOM     10  C   UNL     1      -0.558  -5.242   0.231  0.00  0.00    +0.238 C 
ATOM     11  O   UNL     1      -1.054  -5.325  -0.873  0.00  0.00    -0.273 OA
ATOM     12  N   UNL     1      -0.464  -6.336   1.012  0.00  0.00    -0.311 N 
ATOM     13  H   UNL     1      -0.067  -6.269   1.895  0.00  0.00    +0.149 HD
BRANCH  12  14
ATOM     14  C   UNL     1      -0.961  -7.626   0.528  0.00  0.00    +0.073 C 
ATOM     15  C   UNL     1      -2.461  -7.733   0.811  0.00  0.00    +0.022 C 
ATOM     16  C   UNL     1      -2.981  -9.080   0.306  0.00  0.00    +0.002 C 
ATOM     17  C   UNL     1      -2.244 -10.213   1.025  0.00  0.00    +0.000 C 
ATOM     18  C   UNL     1      -0.744 -10.106   0.742  0.00  0.00    +0.002 C 
ATOM     19  C   UNL     1      -0.225  -8.758   1.247  0.00  0.00    +0.022 C 
ENDBRANCH  12  14
ENDBRANCH   1  10
BRANCH   1  22
ATOM     20  C   UNL     1       0.598  -2.022  -0.666  0.00  0.00    +0.251 C 
ATOM     21  O   UNL     1       0.317  -1.104  -1.412  0.00  0.00    -0.270 OA
ATOM     22  N   UNL     1      -0.363  -2.871  -0.250  0.00  0.00    -0.275 N 
BRANCH  20  27
ATOM     23  C   UNL     1       3.570  -2.615   1.547  0.00  0.00    +0.001 A 
ATOM     24  C   UNL     1       4.609  -2.554   0.632  0.00  0.00    +0.004 A 
ATOM     25  C   UNL     1       4.349  -2.320  -0.704  0.00  0.00    +0.046 A 
ATOM     26  C   UNL     1       3.043  -2.146  -1.138  0.00  0.00    +0.129 A 
ATOM     27  C   UNL     1       1.990  -2.207  -0.216  0.00  0.00    +0.078 A 
ATOM     28  C   UNL     1       2.267  -2.443   1.133  0.00  0.00    +0.017 A 
BRANCH  26  29
ATOM     29  O   UNL     1       2.787  -1.916  -2.450  0.00  0.00    -0.506 OA
ATOM     30  H   UNL     1       2.642  -2.719  -2.970  0.00  0.00    +0.292 HD
ENDBRANCH  26  29
ENDBRANCH  20  27
BRANCH  22  31
ATOM     31  C   UNL     1      -1.725  -2.750  -0.776  0.00  0.00    +0.183 C 
BRANCH  31  32
ATOM     32  C   UNL     1      -1.683  -2.744  -2.283  0.00  0.00    +0.122 A 
ATOM     33  C   UNL     1      -2.170  -3.706  -3.087  0.00  0.00    +0.046 A 
ATOM     34  C   UNL     1      -1.919  -3.295  -4.416  0.00  0.00    +0.041 A 
ATOM     35  C   UNL     1      -1.293  -2.107  -4.345  0.00  0.00    +0.195 A 
ATOM     36  O   UNL     1      -1.158  -1.775  -3.050  0.00  0.00    -0.466 OA
ENDBRANCH  31  32
ENDBRANCH  22  31
ENDBRANCH   1  22
TORSDOF 9
