REMARK  Name = ZINC59167513
REMARK  12 active torsions:
REMARK  status: ('A' for Active; 'I' for Inactive)
REMARK    1  A    between atoms: C_1  and  C_2
REMARK    2  A    between atoms: C_2  and  C_3
REMARK    3  A    between atoms: C_2  and  C_4
REMARK    4  A    between atoms: C_4  and  C_5
REMARK    5  A    between atoms: C_5  and  C_7
REMARK    6  A    between atoms: C_5  and  N_31
REMARK    7  A    between atoms: N_9  and  N_10
REMARK    8  A    between atoms: C_11  and  C_12
REMARK    9  A    between atoms: C_15  and  O_18
REMARK   10  A    between atoms: O_18  and  C_19
REMARK   11  A    between atoms: C_22  and  N_28
REMARK   12  A    between atoms: C_24  and  N_25
REMARK                            x       y       z     vdW  Elec       q    Type
REMARK                         _______ _______ _______ _____ _____    ______ ____
ROOT
ATOM      1  C   UNL     1      -6.335  -3.845  -2.723  0.00  0.00    -0.005 A 
ATOM      2  C   UNL     1      -7.009  -4.266  -1.573  0.00  0.00    +0.013 A 
ATOM      3  C   UNL     1      -8.265  -4.824  -1.679  0.00  0.00    +0.047 A 
ATOM      4  C   UNL     1      -8.861  -4.968  -2.925  0.00  0.00    +0.129 A 
ATOM      5  C   UNL     1      -8.194  -4.551  -4.071  0.00  0.00    +0.047 A 
ATOM      6  C   UNL     1      -6.941  -3.988  -3.975  0.00  0.00    +0.013 A 
ENDROOT
BRANCH   1   8
ATOM      7  N   UNL     1      -4.431  -3.116  -1.453  0.00  0.00    -0.188 NA
ATOM      8  C   UNL     1      -4.992  -3.248  -2.616  0.00  0.00    +0.138 C 
BRANCH   7  11
ATOM      9  C   UNL     1      -2.572  -2.412  -0.143  0.00  0.00    +0.218 C 
ATOM     10  O   UNL     1      -3.153  -2.781   0.856  0.00  0.00    -0.276 OA
ATOM     11  N   UNL     1      -3.154  -2.548  -1.351  0.00  0.00    -0.208 N 
ATOM     12  H   UNL     1      -2.690  -2.253  -2.149  0.00  0.00    +0.177 HD
BRANCH   9  13
ATOM     13  C   UNL     1      -1.199  -1.801  -0.033  0.00  0.00    +0.015 C 
BRANCH  13  14
ATOM     14  N   UNL     1      -0.593  -2.184   1.249  0.00  0.00    +0.386 N 
ATOM     15  H   UNL     1      -1.123  -1.778   2.006  0.00  0.00    -0.089 HD
ATOM     16  H   UNL     1      -0.599  -3.190   1.336  0.00  0.00    -0.089 HD
ATOM     17  H   UNL     1       0.357  -1.849   1.286  0.00  0.00    -0.089 HD
ENDBRANCH  13  14
BRANCH  13  18
ATOM     18  C   UNL     1      -1.311  -0.277  -0.109  0.00  0.00    -0.004 C 
BRANCH  18  20
ATOM     19  C   UNL     1       0.817  -0.067  -1.400  0.00  0.00    +0.007 C 
ATOM     20  C   UNL     1       0.090   0.338  -0.116  0.00  0.00    -0.018 C 
ATOM     21  C   UNL     1      -0.022   1.863  -0.052  0.00  0.00    +0.007 C 
ENDBRANCH  18  20
ENDBRANCH  13  18
ENDBRANCH   9  13
ENDBRANCH   7  11
ENDBRANCH   1   8
BRANCH   4  22
ATOM     22  O   UNL     1     -10.098  -5.519  -3.024  0.00  0.00    -0.454 OA
BRANCH  22  23
ATOM     23  C   UNL     1     -10.193  -6.799  -3.468  0.00  0.00    +0.159 A 
ATOM     24  C   UNL     1      -9.044  -7.543  -3.695  0.00  0.00    +0.051 A 
ATOM     25  C   UNL     1      -9.143  -8.845  -4.146  0.00  0.00    +0.036 A 
ATOM     26  C   UNL     1     -10.386  -9.406  -4.374  0.00  0.00    +0.129 A 
ATOM     27  C   UNL     1     -11.533  -8.667  -4.150  0.00  0.00    +0.069 A 
ATOM     28  C   UNL     1     -11.439  -7.367  -3.691  0.00  0.00    +0.170 A 
BRANCH  28  29
ATOM     29  N   UNL     1     -12.668  -6.578  -3.445  0.00  0.00    +0.060 N 
ATOM     30  O   UNL     1     -13.753  -7.074  -3.640  0.00  0.00    -0.126 OA
ATOM     31  O   UNL     1     -12.585  -5.439  -3.050  0.00  0.00    -0.126 OA
ENDBRANCH  28  29
BRANCH  26  32
ATOM     32  N   UNL     1     -10.489 -10.801  -4.859  0.00  0.00    +0.057 N 
ATOM     33  O   UNL     1      -9.488 -11.448  -5.055  0.00  0.00    -0.126 OA
ATOM     34  O   UNL     1     -11.576 -11.293  -5.058  0.00  0.00    -0.126 OA
ENDBRANCH  26  32
ENDBRANCH  22  23
ENDBRANCH   4  22
TORSDOF 10
