REMARK  Name = ZINC64044195
REMARK  11 active torsions:
REMARK  status: ('A' for Active; 'I' for Inactive)
REMARK    1  A    between atoms: C_1  and  C_2
REMARK    2  A    between atoms: C_6  and  C_23
REMARK    3  A    between atoms: C_8  and  C_20
REMARK    4  A    between atoms: N_10  and  C_11
REMARK    5  A    between atoms: C_11  and  C_12
REMARK    6  A    between atoms: C_12  and  C_13
REMARK    7  A    between atoms: C_20  and  O_21
REMARK    8  A    between atoms: O_21  and  C_22
REMARK    9  A    between atoms: N_25  and  C_26
REMARK   10  A    between atoms: C_26  and  C_28
REMARK   11  A    between atoms: C_26  and  C_29
REMARK                            x       y       z     vdW  Elec       q    Type
REMARK                         _______ _______ _______ _____ _____    ______ ____
ROOT
ATOM      1  C   UNL     1      -0.018   1.663   0.251  0.00  0.00    +0.060 C 
ATOM      2  C   UNL     1      -0.012   0.162   0.125  0.00  0.00    +0.007 C 
ATOM      3  C   UNL     1      -0.137  -0.420  -1.092  0.00  0.00    +0.065 C 
ATOM      4  C   UNL     1      -0.152  -1.813  -1.227  0.00  0.00    +0.171 C 
ATOM      5  O   UNL     1      -0.246  -2.311  -2.331  0.00  0.00    -0.292 OA
ATOM      6  C   UNL     1      -0.052  -2.700  -0.011  0.00  0.00    +0.168 C 
ATOM      7  C   UNL     1       0.716  -1.956   1.088  0.00  0.00    +0.118 C 
ATOM      8  N   UNL     1       0.125  -0.619   1.238  0.00  0.00    -0.327 N 
ENDROOT
BRANCH   6   9
ATOM      9  C   UNL     1       0.679  -3.968  -0.371  0.00  0.00    +0.226 C 
ATOM     10  O   UNL     1       1.540  -3.950  -1.225  0.00  0.00    -0.275 OA
ATOM     11  N   UNL     1       0.376  -5.122   0.257  0.00  0.00    -0.308 N 
ATOM     12  H   UNL     1      -0.312  -5.136   0.940  0.00  0.00    +0.149 HD
BRANCH  11  13
ATOM     13  C   UNL     1       1.087  -6.354  -0.092  0.00  0.00    +0.112 C 
ATOM     14  C   UNL     1       2.392  -6.434   0.704  0.00  0.00    +0.032 C 
BRANCH  13  15
ATOM     15  C   UNL     1       0.210  -7.561   0.244  0.00  0.00    +0.194 C 
ATOM     16  N   UNL     1      -0.041  -7.615   1.690  0.00  0.00    -0.362 N 
ATOM     17  C   UNL     1       0.448  -8.739   2.129  0.00  0.00    +0.060 A 
ATOM     18  C   UNL     1       0.502  -9.350   3.465  0.00  0.00    +0.027 A 
ATOM     19  C   UNL     1       1.086 -10.555   3.621  0.00  0.00    +0.002 A 
ATOM     20  C   UNL     1       1.656 -11.266   2.550  0.00  0.00    +0.002 A 
ATOM     21  C   UNL     1       1.660 -10.797   1.286  0.00  0.00    +0.027 A 
ATOM     22  C   UNL     1       1.050  -9.492   0.996  0.00  0.00    +0.060 A 
ATOM     23  N   UNL     1       0.910  -8.805  -0.101  0.00  0.00    -0.362 N 
ATOM     24  H   UNL     1      -0.488  -6.937   2.220  0.00  0.00    +0.162 HD
ATOM     25  H   UNL     1       1.213  -9.067  -0.985  0.00  0.00    +0.162 HD
ENDBRANCH  13  15
ENDBRANCH  11  13
ENDBRANCH   6   9
BRANCH   8  26
ATOM     26  C   UNL     1      -0.311  -0.138   2.551  0.00  0.00    +0.110 C 
BRANCH  26  27
ATOM     27  C   UNL     1      -1.773  -0.529   2.777  0.00  0.00    +0.054 C 
BRANCH  27  28
ATOM     28  C   UNL     1      -2.221  -0.034   4.128  0.00  0.00    -0.045 A 
ATOM     29  C   UNL     1      -2.069  -0.836   5.244  0.00  0.00    +0.004 A 
ATOM     30  C   UNL     1      -2.481  -0.383   6.483  0.00  0.00    +0.002 A 
ATOM     31  C   UNL     1      -3.044   0.873   6.608  0.00  0.00    +0.020 A 
ATOM     32  C   UNL     1      -3.197   1.677   5.492  0.00  0.00    +0.041 A 
ATOM     33  C   UNL     1      -2.779   1.225   4.253  0.00  0.00    +0.023 A 
ATOM     34 CL   UNL     1      -3.905   3.254   5.648  0.00  0.00    -0.084 Cl
ENDBRANCH  27  28
ENDBRANCH  26  27
ENDBRANCH   8  26
BRANCH   7  35
ATOM     35  C   UNL     1       2.188  -1.824   0.691  0.00  0.00    +0.183 C 
BRANCH  35  36
ATOM     36  O   UNL     1       2.909  -1.177   1.741  0.00  0.00    -0.381 OA
ATOM     37  C   UNL     1       4.301  -1.004   1.470  0.00  0.00    +0.194 C 
ENDBRANCH  35  36
ENDBRANCH   7  35
TORSDOF 8
