REMARK  Name = ZINC67129700
REMARK  13 active torsions:
REMARK  status: ('A' for Active; 'I' for Inactive)
REMARK    1  A    between atoms: C_1  and  C_2
REMARK    2  A    between atoms: C_2  and  C_4
REMARK    3  A    between atoms: C_2  and  N_14
REMARK    4  A    between atoms: C_7  and  S_10
REMARK    5  A    between atoms: S_10  and  N_13
REMARK    6  A    between atoms: C_15  and  C_17
REMARK    7  A    between atoms: C_17  and  C_19
REMARK    8  A    between atoms: C_17  and  N_20
REMARK    9  A    between atoms: C_21  and  O_23
REMARK   10  A    between atoms: O_23  and  C_24
REMARK   11  A    between atoms: C_24  and  C_25
REMARK   12  A    between atoms: C_24  and  C_26
REMARK   13  A    between atoms: C_24  and  C_27
REMARK                            x       y       z     vdW  Elec       q    Type
REMARK                         _______ _______ _______ _____ _____    ______ ____
ROOT
ATOM      1  N   UNL     1       0.711  -0.489   1.189  0.00  0.00    -0.307 N 
ATOM      2  C   UNL     1       0.051  -0.633   2.355  0.00  0.00    +0.234 C 
ATOM      3  O   UNL     1      -1.129  -0.361   2.423  0.00  0.00    -0.274 OA
ATOM      4  H   UNL     1       1.654  -0.707   1.135  0.00  0.00    +0.149 HD
ENDROOT
BRANCH   1   6
ATOM      5  C   UNL     1      -0.019   1.526   0.010  0.00  0.00    +0.033 C 
ATOM      6  C   UNL     1       0.002  -0.004   0.002  0.00  0.00    +0.100 C 
BRANCH   6   7
ATOM      7  C   UNL     1       0.707  -0.490  -1.238  0.00  0.00    -0.027 A 
ATOM      8  C   UNL     1       2.089  -0.511  -1.284  0.00  0.00    +0.007 A 
ATOM      9  C   UNL     1       2.736  -0.957  -2.421  0.00  0.00    +0.029 A 
ATOM     10  C   UNL     1       2.002  -1.382  -3.512  0.00  0.00    +0.105 A 
ATOM     11  C   UNL     1       0.620  -1.362  -3.466  0.00  0.00    +0.029 A 
ATOM     12  C   UNL     1      -0.027  -0.920  -2.327  0.00  0.00    +0.007 A 
BRANCH  10  13
ATOM     13  S   UNL     1       2.826  -1.949  -4.962  0.00  0.00    +0.056 S 
ATOM     14  O   UNL     1       1.916  -1.778  -6.040  0.00  0.00    -0.153 OA
ATOM     15  O   UNL     1       4.117  -1.356  -4.954  0.00  0.00    -0.153 OA
BRANCH  13  16
ATOM     16  N   UNL     1       3.054  -3.580  -4.790  0.00  0.00    -0.204 NA
ATOM     17  H   UNL     1       3.075  -4.153  -5.573  0.00  0.00    +0.144 HD
ATOM     18  H   UNL     1       3.167  -3.963  -3.906  0.00  0.00    +0.144 HD
ENDBRANCH  13  16
ENDBRANCH  10  13
ENDBRANCH   6   7
ENDBRANCH   1   6
BRANCH   2  19
ATOM     19  C   UNL     1       0.780  -1.133   3.576  0.00  0.00    +0.159 C 
ATOM     20  C   UNL     1       1.347  -2.526   3.298  0.00  0.00    +0.038 C 
BRANCH  19  21
ATOM     21  N   UNL     1      -0.150  -1.201   4.706  0.00  0.00    -0.270 N 
ATOM     22  C   UNL     1       0.317  -1.122   5.968  0.00  0.00    +0.401 C 
ATOM     23  O   UNL     1       1.508  -0.995   6.169  0.00  0.00    -0.226 OA
ATOM     24  H   UNL     1      -1.101  -1.302   4.546  0.00  0.00    +0.153 HD
BRANCH  22  25
ATOM     25  O   UNL     1      -0.538  -1.185   7.007  0.00  0.00    -0.445 OA
BRANCH  25  26
ATOM     26  C   UNL     1       0.025  -1.095   8.317  0.00  0.00    +0.107 C 
ATOM     27  C   UNL     1       0.758   0.240   8.467  0.00  0.00    +0.055 C 
ATOM     28  C   UNL     1      -1.091  -1.184   9.360  0.00  0.00    +0.055 C 
ATOM     29  C   UNL     1       1.013  -2.245   8.527  0.00  0.00    +0.055 C 
ENDBRANCH  25  26
ENDBRANCH  22  25
ENDBRANCH  19  21
ENDBRANCH   2  19
TORSDOF 8
