REMARK  Name = ZINC38003174
REMARK  7 active torsions:
REMARK  status: ('A' for Active; 'I' for Inactive)
REMARK    1  A    between atoms: C_1  and  C_2
REMARK    2  A    between atoms: C_2  and  C_4
REMARK    3  A    between atoms: C_2  and  N_10
REMARK    4  A    between atoms: N_10  and  C_11
REMARK    5  A    between atoms: C_16  and  N_17
REMARK    6  A    between atoms: N_17  and  S_18
REMARK    7  A    between atoms: S_18  and  C_21
REMARK                            x       y       z     vdW  Elec       q    Type
REMARK                         _______ _______ _______ _____ _____    ______ ____
ROOT
ATOM      1  C   UNL     1       1.928  -0.343   1.288  0.00  0.00    +0.050 A 
ATOM      2  C   UNL     1       2.554   0.193   0.173  0.00  0.00    +0.025 A 
ATOM      3  C   UNL     1       3.934   0.191   0.087  0.00  0.00    +0.002 A 
ATOM      4  C   UNL     1       4.693  -0.345   1.110  0.00  0.00    +0.002 A 
ATOM      5  C   UNL     1       4.077  -0.881   2.226  0.00  0.00    +0.026 A 
ATOM      6  C   UNL     1       2.694  -0.879   2.323  0.00  0.00    +0.068 A 
ENDROOT
BRANCH   1   7
ATOM      7  N   UNL     1       0.530  -0.342   1.377  0.00  0.00    -0.335 N 
ATOM      8  H   UNL     1       0.094  -0.714   2.160  0.00  0.00    +0.147 HD
BRANCH   7  10
ATOM      9  C   UNL     1      -0.405   1.733   0.482  0.00  0.00    +0.033 C 
ATOM     10  C   UNL     1      -0.273   0.221   0.289  0.00  0.00    +0.104 C 
BRANCH  10  11
ATOM     11  C   UNL     1      -1.642  -0.408   0.297  0.00  0.00    +0.011 A 
ATOM     12  C   UNL     1      -2.404  -0.809  -0.750  0.00  0.00    +0.014 A 
ATOM     13  C   UNL     1      -3.644  -1.367  -0.502  0.00  0.00    +0.023 A 
ATOM     14  C   UNL     1      -4.061  -1.498   0.782  0.00  0.00    +0.055 A 
ATOM     15  S   UNL     1      -2.678  -0.827   1.690  0.00  0.00    -0.085 S 
ATOM     16 BR   UNL     1      -5.684  -2.212   1.440  0.00  0.00    -0.043 Br
ENDBRANCH  10  11
ENDBRANCH   7  10
ENDBRANCH   1   7
BRANCH   6  17
ATOM     17  N   UNL     1       2.068  -1.417   3.454  0.00  0.00    -0.219 N 
ATOM     18  H   UNL     1       1.224  -1.886   3.364  0.00  0.00    +0.173 HD
BRANCH  17  19
ATOM     19  S   UNL     1       2.770  -1.252   4.945  0.00  0.00    +0.040 S 
ATOM     20  O   UNL     1       1.836  -1.824   5.850  0.00  0.00    -0.155 OA
ATOM     21  O   UNL     1       4.069  -1.807   4.798  0.00  0.00    -0.155 OA
ATOM     22  C   UNL     1       2.882   0.539   5.212  0.00  0.00    +0.218 C 
ENDBRANCH  17  19
ENDBRANCH   6  17
TORSDOF 5
