REMARK  Name = ZINC05697297
REMARK  4 active torsions:
REMARK  status: ('A' for Active; 'I' for Inactive)
REMARK    1  A    between atoms: C_1  and  C_2
REMARK    2  A    between atoms: C_3  and  C_17
REMARK    3  A    between atoms: N_7  and  N_8
REMARK    4  A    between atoms: C_9  and  C_10
REMARK                            x       y       z     vdW  Elec       q    Type
REMARK                         _______ _______ _______ _____ _____    ______ ____
ROOT
ATOM      1  C   UNL     1       1.613  -1.509   0.337  0.00  0.00    +0.064 C 
ATOM      2  C   UNL     1       1.224  -0.158  -0.205  0.00  0.00    +0.025 A 
ATOM      3  C   UNL     1      -0.004   0.047  -0.739  0.00  0.00    +0.009 A 
ATOM      4  S   UNL     1       0.114   1.772  -1.192  0.00  0.00    -0.053 S 
ATOM      5  C   UNL     1       1.739   2.040  -0.642  0.00  0.00    +0.192 A 
ATOM      6  N   UNL     1       2.071   0.853  -0.170  0.00  0.00    -0.336 N 
ATOM      7  N   UNL     1       2.493   3.201  -0.687  0.00  0.00    -0.124 NA
ATOM      8  C   UNL     1      -1.153  -0.914  -0.906  0.00  0.00    +0.053 C 
ATOM      9  H   UNL     1       3.075   0.714   0.258  0.00  0.00    +0.168 HD
ENDROOT
BRANCH   7  10
ATOM     10  N   UNL     1       3.800   3.207  -0.183  0.00  0.00    -0.155 NA
ATOM     11  C   UNL     1       4.465   4.320  -0.117  0.00  0.00    +0.143 C 
BRANCH  11  12
ATOM     12  C   UNL     1       3.747   5.608  -0.104  0.00  0.00    -0.005 A 
ATOM     13  C   UNL     1       4.443   6.802  -0.309  0.00  0.00    +0.012 A 
ATOM     14  C   UNL     1       3.766   8.002  -0.301  0.00  0.00    +0.039 A 
ATOM     15  C   UNL     1       2.398   8.028  -0.080  0.00  0.00    +0.123 A 
ATOM     16  C   UNL     1       1.702   6.847   0.129  0.00  0.00    +0.039 A 
ATOM     17  C   UNL     1       2.368   5.640   0.118  0.00  0.00    +0.012 A 
ATOM     18  F   UNL     1       1.740   9.208  -0.067  0.00  0.00    -0.205 F 
ENDBRANCH  11  12
ENDBRANCH   7  10
TORSDOF 2
