REMARK  Name = ZINC61594870
REMARK  10 active torsions:
REMARK  status: ('A' for Active; 'I' for Inactive)
REMARK    1  A    between atoms: C_1  and  C_2
REMARK    2  A    between atoms: C_2  and  C_3
REMARK    3  A    between atoms: C_3  and  N_4
REMARK    4  A    between atoms: C_10  and  S_11
REMARK    5  A    between atoms: S_11  and  C_12
REMARK    6  A    between atoms: C_12  and  C_14
REMARK    7  A    between atoms: C_12  and  C_20
REMARK    8  A    between atoms: C_20  and  C_22
REMARK    9  A    between atoms: C_20  and  N_24
REMARK   10  A    between atoms: C_22  and  C_23
REMARK                            x       y       z     vdW  Elec       q    Type
REMARK                         _______ _______ _______ _____ _____    ______ ____
ROOT
ATOM      1  C   UNL     1      -1.345  -3.820   3.889  0.00  0.00    +0.076 C 
ENDROOT
BRANCH   1   2
ATOM      2  C   UNL     1      -1.621  -3.575   5.351  0.00  0.00    +0.003 A 
ATOM      3  C   UNL     1      -2.583  -4.113   6.139  0.00  0.00    +0.013 A 
ATOM      4  C   UNL     1      -2.648  -3.737   7.468  0.00  0.00    +0.023 A 
ATOM      5  C   UNL     1      -1.747  -2.842   7.943  0.00  0.00    +0.055 A 
ATOM      6  S   UNL     1      -0.759  -2.508   6.494  0.00  0.00    -0.085 S 
ATOM      7 BR   UNL     1      -1.576  -2.137   9.690  0.00  0.00    -0.043 Br
ENDBRANCH   1   2
BRANCH   1   8
ATOM      8  S   UNL     1      -1.484  -2.257   2.978  0.00  0.00    -0.079 S 
BRANCH   8  15
ATOM      9  N   UNL     1      -3.782  -0.707   2.602  0.00  0.00    -0.271 N 
ATOM     10  C   UNL     1      -5.107  -0.774   2.840  0.00  0.00    +0.345 A 
ATOM     11  O   UNL     1      -5.934   0.075   2.557  0.00  0.00    -0.245 OA
ATOM     12  N   UNL     1      -5.352  -1.953   3.448  0.00  0.00    -0.226 N 
ATOM     13  H   UNL     1      -6.217  -2.280   3.740  0.00  0.00    +0.194 HD
ATOM     14  N   UNL     1      -4.126  -2.620   3.580  0.00  0.00    -0.145 NA
ATOM     15  C   UNL     1      -3.199  -1.865   3.065  0.00  0.00    +0.193 A 
BRANCH   9  16
ATOM     16  C   UNL     1      -3.083   0.406   1.955  0.00  0.00    +0.129 C 
BRANCH  16  18
ATOM     17  C   UNL     1      -2.315   1.337  -0.233  0.00  0.00    +0.005 C 
ATOM     18  C   UNL     1      -3.045   0.175   0.443  0.00  0.00    +0.018 C 
ENDBRANCH  16  18
ENDBRANCH   9  16
ENDBRANCH   8  15
ENDBRANCH   1   8
BRANCH   1  19
ATOM     19  C   UNL     1       0.069  -4.382   3.724  0.00  0.00    -0.057 C 
BRANCH  19  20
ATOM     20  N   UNL     1       0.204  -5.607   4.524  0.00  0.00    +0.381 N 
ATOM     21  H   UNL     1      -0.468  -6.290   4.210  0.00  0.00    -0.090 HD
ATOM     22  H   UNL     1       1.136  -5.978   4.416  0.00  0.00    -0.090 HD
ATOM     23  H   UNL     1       0.039  -5.394   5.497  0.00  0.00    -0.090 HD
ENDBRANCH  19  20
BRANCH  19  24
ATOM     24  C   UNL     1       0.320  -4.706   2.250  0.00  0.00    -0.018 C 
ATOM     25  C   UNL     1       1.774  -5.142   2.065  0.00  0.00    +0.002 C 
ENDBRANCH  19  24
ENDBRANCH   1  19
TORSDOF 8
