REMARK  Name = ZINC39675918
REMARK  8 active torsions:
REMARK  status: ('A' for Active; 'I' for Inactive)
REMARK    1  A    between atoms: C_1  and  N_2
REMARK    2  A    between atoms: N_2  and  C_3
REMARK    3  A    between atoms: N_2  and  C_4
REMARK    4  A    between atoms: C_4  and  C_6
REMARK    5  A    between atoms: C_4  and  C_33
REMARK    6  A    between atoms: C_6  and  N_7
REMARK    7  A    between atoms: C_8  and  C_10
REMARK    8  A    between atoms: C_21  and  C_23
REMARK                            x       y       z     vdW  Elec       q    Type
REMARK                         _______ _______ _______ _____ _____    ______ ____
ROOT
ATOM      1  C   UNL     1      -2.451   3.739  -2.901  0.00  0.00    +0.100 C 
ATOM      2  C   UNL     1      -3.038   4.520  -1.704  0.00  0.00    +0.121 C 
ATOM      3  N   UNL     1      -3.756   5.661  -2.318  0.00  0.00    -0.295 N 
ATOM      4  C   UNL     1      -4.396   5.088  -3.526  0.00  0.00    +0.115 C 
ATOM      5  C   UNL     1      -3.345   4.114  -4.095  0.00  0.00    -0.004 C 
ATOM      6  C   UNL     1      -2.520   4.803  -5.178  0.00  0.00    -0.010 C 
ATOM      7  C   UNL     1      -3.419   5.115  -6.377  0.00  0.00    -0.082 C 
ATOM      8  N   UNL     1      -4.000   3.869  -6.893  0.00  0.00    +0.379 N 
ATOM      9  C   UNL     1      -4.866   3.261  -5.876  0.00  0.00    -0.082 C 
ATOM     10  C   UNL     1      -4.028   2.871  -4.656  0.00  0.00    -0.010 C 
ATOM     11  C   UNL     1      -3.814   6.934  -1.877  0.00  0.00    +0.265 C 
ATOM     12  O   UNL     1      -4.525   7.741  -2.443  0.00  0.00    -0.268 OA
ATOM     13  H   UNL     1      -4.543   4.070  -7.719  0.00  0.00    -0.086 HD
ATOM     14  H   UNL     1      -3.258   3.227  -7.129  0.00  0.00    -0.086 HD
ENDROOT
BRANCH  11  15
ATOM     15  C   UNL     1      -3.011   7.349  -0.702  0.00  0.00    +0.126 A 
ATOM     16  C   UNL     1      -3.169   8.644  -0.187  0.00  0.00    +0.033 A 
ATOM     17  C   UNL     1      -2.436   9.038   0.895  0.00  0.00    +0.012 A 
ATOM     18  C   UNL     1      -1.536   8.116   1.462  0.00  0.00    +0.000 A 
ATOM     19  C   UNL     1      -0.751   8.454   2.576  0.00  0.00    +0.010 A 
ATOM     20  C   UNL     1       0.109   7.536   3.097  0.00  0.00    +0.001 A 
ATOM     21  C   UNL     1       0.222   6.263   2.540  0.00  0.00    +0.002 A 
ATOM     22  C   UNL     1      -0.523   5.900   1.461  0.00  0.00    +0.028 A 
ATOM     23  C   UNL     1      -1.424   6.821   0.893  0.00  0.00    +0.072 A 
ATOM     24  N   UNL     1      -2.169   6.490  -0.161  0.00  0.00    -0.242 NA
ENDBRANCH  11  15
BRANCH   1  26
ATOM     25  N   UNL     1      -1.589   1.437  -3.180  0.00  0.00    -0.316 N 
ATOM     26  C   UNL     1      -2.516   2.256  -2.643  0.00  0.00    +0.218 C 
ATOM     27  O   UNL     1      -3.402   1.798  -1.953  0.00  0.00    -0.275 OA
ATOM     28  H   UNL     1      -0.880   1.803  -3.732  0.00  0.00    +0.149 HD
BRANCH  25  29
ATOM     29  C   UNL     1      -1.652  -0.005  -2.929  0.00  0.00    +0.093 C 
BRANCH  29  30
ATOM     30  C   UNL     1      -0.567  -0.712  -3.744  0.00  0.00    -0.021 C 
BRANCH  30  31
ATOM     31  C   UNL     1       0.791  -0.274  -3.259  0.00  0.00    -0.059 A 
ATOM     32  C   UNL     1       1.334  -0.840  -2.120  0.00  0.00    +0.002 A 
ATOM     33  C   UNL     1       2.579  -0.438  -1.676  0.00  0.00    +0.000 A 
ATOM     34  C   UNL     1       3.283   0.528  -2.370  0.00  0.00    +0.000 A 
ATOM     35  C   UNL     1       2.740   1.093  -3.509  0.00  0.00    +0.000 A 
ATOM     36  C   UNL     1       1.496   0.688  -3.956  0.00  0.00    +0.002 A 
ENDBRANCH  30  31
BRANCH  30  38
ATOM     37  C   UNL     1      -1.990  -2.605  -4.131  0.00  0.00    -0.096 C 
ATOM     38  N   UNL     1      -0.701  -2.166  -3.579  0.00  0.00    +0.382 N 
ATOM     39  C   UNL     1       0.392  -2.842  -4.291  0.00  0.00    -0.096 C 
ATOM     40  H   UNL     1      -0.658  -2.398  -2.598  0.00  0.00    -0.082 HD
ENDBRANCH  30  38
ENDBRANCH  29  30
ENDBRANCH  25  29
ENDBRANCH   1  26
TORSDOF 6
