REMARK  Name = ZINC41584885
REMARK  12 active torsions:
REMARK  status: ('A' for Active; 'I' for Inactive)
REMARK    1  A    between atoms: C_1  and  O_2
REMARK    2  A    between atoms: O_2  and  C_3
REMARK    3  A    between atoms: C_5  and  C_13
REMARK    4  A    between atoms: C_7  and  O_11
REMARK    5  A    between atoms: C_8  and  O_9
REMARK    6  A    between atoms: O_9  and  C_10
REMARK    7  A    between atoms: O_11  and  C_12
REMARK    8  A    between atoms: C_20  and  O_38
REMARK    9  A    between atoms: C_21  and  C_24
REMARK   10  A    between atoms: C_24  and  N_25
REMARK   11  A    between atoms: N_28  and  C_31
REMARK   12  A    between atoms: C_31  and  C_32
REMARK                            x       y       z     vdW  Elec       q    Type
REMARK                         _______ _______ _______ _____ _____    ______ ____
ROOT
ATOM      1  C   UNL     1       2.392   0.347  -4.214  0.00  0.00    +0.058 C 
ATOM      2  C   UNL     1       3.083  -0.254  -5.217  0.00  0.00    +0.176 C 
ATOM      3  C   UNL     1       3.827   0.425  -6.287  0.00  0.00    +0.231 C 
ATOM      4  O   UNL     1       3.955   1.625  -6.461  0.00  0.00    -0.283 OA
ATOM      5  C   UNL     1       4.385  -0.670  -7.102  0.00  0.00    +0.068 A 
ATOM      6  C   UNL     1       5.178  -0.697  -8.249  0.00  0.00    +0.019 A 
ATOM      7  C   UNL     1       5.547  -1.894  -8.793  0.00  0.00    +0.046 A 
ATOM      8  C   UNL     1       5.134  -3.087  -8.206  0.00  0.00    +0.122 A 
ATOM      9  C   UNL     1       4.345  -3.075  -7.067  0.00  0.00    +0.020 A 
ATOM     10  C   UNL     1       3.962  -1.866  -6.500  0.00  0.00    +0.144 A 
ATOM     11  O   UNL     1       3.215  -1.587  -5.409  0.00  0.00    -0.451 OA
ENDROOT
BRANCH   1  14
ATOM     12  C   UNL     1       0.201  -0.625  -1.329  0.00  0.00    +0.166 A 
ATOM     13  C   UNL     1       0.972   0.137  -2.185  0.00  0.00    +0.057 A 
ATOM     14  C   UNL     1       1.573  -0.459  -3.301  0.00  0.00    -0.014 A 
ATOM     15  C   UNL     1       1.388  -1.826  -3.545  0.00  0.00    +0.057 A 
ATOM     16  C   UNL     1       0.615  -2.581  -2.684  0.00  0.00    +0.166 A 
ATOM     17  C   UNL     1       0.024  -1.986  -1.572  0.00  0.00    +0.204 A 
BRANCH  12  19
ATOM     18  C   UNL     1      -0.160   1.351  -0.056  0.00  0.00    +0.277 C 
ATOM     19  O   UNL     1      -0.383  -0.048  -0.245  0.00  0.00    -0.491 OA
ENDBRANCH  12  19
BRANCH  17  20
ATOM     20  O   UNL     1      -0.730  -2.733  -0.724  0.00  0.00    -0.488 OA
ATOM     21  C   UNL     1      -2.126  -2.832  -1.014  0.00  0.00    +0.277 C 
ENDBRANCH  17  20
BRANCH  16  22
ATOM     22  O   UNL     1       0.435  -3.908  -2.920  0.00  0.00    -0.491 OA
ATOM     23  C   UNL     1       1.074  -4.454  -4.076  0.00  0.00    +0.277 C 
ENDBRANCH  16  22
ENDBRANCH   1  14
BRANCH   8  24
ATOM     24  O   UNL     1       5.506  -4.272  -8.754  0.00  0.00    -0.506 OA
ATOM     25  H   UNL     1       6.340  -4.619  -8.411  0.00  0.00    +0.292 HD
ENDBRANCH   8  24
BRANCH   9  26
ATOM     26  C   UNL     1       3.904  -4.374  -6.442  0.00  0.00    -0.035 C 
BRANCH  26  27
ATOM     27  N   UNL     1       4.900  -4.803  -5.451  0.00  0.00    +0.384 N 
ATOM     28  C   UNL     1       6.167  -5.107  -6.130  0.00  0.00    -0.063 C 
ATOM     29  C   UNL     1       7.209  -5.537  -5.095  0.00  0.00    +0.066 C 
ATOM     30  N   UNL     1       6.722  -6.722  -4.376  0.00  0.00    -0.302 NA
ATOM     31  C   UNL     1       5.442  -6.440  -3.712  0.00  0.00    +0.066 C 
ATOM     32  C   UNL     1       4.414  -6.003  -4.757  0.00  0.00    -0.063 C 
ATOM     33  H   UNL     1       5.047  -4.064  -4.780  0.00  0.00    -0.081 HD
BRANCH  30  34
ATOM     34  C   UNL     1       7.722  -7.200  -3.411  0.00  0.00    +0.119 C 
BRANCH  34  35
ATOM     35  C   UNL     1       7.300  -8.543  -2.874  0.00  0.00    -0.033 A 
ATOM     36  C   UNL     1       6.505  -8.617  -1.745  0.00  0.00    +0.005 A 
ATOM     37  C   UNL     1       6.118  -9.850  -1.252  0.00  0.00    +0.000 A 
ATOM     38  C   UNL     1       6.524 -11.007  -1.889  0.00  0.00    +0.000 A 
ATOM     39  C   UNL     1       7.318 -10.933  -3.018  0.00  0.00    +0.000 A 
ATOM     40  C   UNL     1       7.702  -9.701  -3.514  0.00  0.00    +0.005 A 
ENDBRANCH  34  35
ENDBRANCH  30  34
ENDBRANCH  26  27
ENDBRANCH   9  26
TORSDOF 9
