REMARK  Name = ZINC47968964
REMARK  6 active torsions:
REMARK  status: ('A' for Active; 'I' for Inactive)
REMARK    1  A    between atoms: C_4  and  C_7
REMARK    2  A    between atoms: C_7  and  C_9
REMARK    3  A    between atoms: C_7  and  N_12
REMARK    4  A    between atoms: C_13  and  C_15
REMARK    5  A    between atoms: C_24  and  S_26
REMARK    6  A    between atoms: S_26  and  N_29
REMARK                            x       y       z     vdW  Elec       q    Type
REMARK                         _______ _______ _______ _____ _____    ______ ____
ROOT
ATOM      1  C   UNL     1       4.669  -3.574   2.291  0.00  0.00    +0.306 C 
ATOM      2  O   UNL     1       3.592  -4.079   2.531  0.00  0.00    -0.265 OA
ATOM      3  N   UNL     1       5.790  -4.085   2.836  0.00  0.00    -0.263 N 
ATOM      4  C   UNL     1       7.141  -3.560   2.626  0.00  0.00    +0.119 C 
ATOM      5  C   UNL     1       8.063  -4.474   3.450  0.00  0.00    +0.056 C 
ATOM      6  C   UNL     1       7.130  -5.481   4.085  0.00  0.00    -0.023 A 
ATOM      7  C   UNL     1       5.833  -5.190   3.689  0.00  0.00    +0.040 A 
ATOM      8  C   UNL     1       4.787  -5.989   4.156  0.00  0.00    +0.026 A 
ATOM      9  C   UNL     1       5.045  -7.047   5.002  0.00  0.00    +0.030 A 
ATOM     10  C   UNL     1       6.341  -7.325   5.394  0.00  0.00    +0.105 A 
ATOM     11  C   UNL     1       7.383  -6.544   4.929  0.00  0.00    +0.034 A 
ENDROOT
BRANCH   1  13
ATOM     12  N   UNL     1       3.630  -1.873   0.845  0.00  0.00    -0.300 N 
ATOM     13  C   UNL     1       4.751  -2.385   1.391  0.00  0.00    +0.300 C 
ATOM     14  O   UNL     1       5.828  -1.879   1.150  0.00  0.00    -0.265 OA
ATOM     15  H   UNL     1       2.769  -2.277   1.038  0.00  0.00    +0.150 HD
BRANCH  12  16
ATOM     16  C   UNL     1       3.711  -0.707  -0.038  0.00  0.00    +0.107 C 
BRANCH  16  20
ATOM     17  C   UNL     1      -0.017   1.378   0.010  0.00  0.00    +0.000 A 
ATOM     18  C   UNL     1       1.171   2.086   0.002  0.00  0.00    +0.000 A 
ATOM     19  C   UNL     1       2.377   1.411  -0.013  0.00  0.00    +0.005 A 
ATOM     20  C   UNL     1       2.396   0.029  -0.020  0.00  0.00    -0.027 A 
ATOM     21  C   UNL     1       1.208  -0.679  -0.012  0.00  0.00    +0.005 A 
ATOM     22  C   UNL     1       0.002  -0.004   0.002  0.00  0.00    +0.000 A 
ENDBRANCH  16  20
BRANCH  16  23
ATOM     23  C   UNL     1       4.019  -1.168  -1.464  0.00  0.00    +0.014 C 
ATOM     24  C   UNL     1       3.979  -2.671  -1.745  0.00  0.00    +0.006 C 
ATOM     25  C   UNL     1       5.321  -1.938  -1.692  0.00  0.00    +0.006 C 
ENDBRANCH  16  23
ENDBRANCH  12  16
ENDBRANCH   1  13
BRANCH  10  26
ATOM     26  S   UNL     1       6.666  -8.679   6.474  0.00  0.00    +0.056 S 
ATOM     27  O   UNL     1       7.897  -8.394   7.123  0.00  0.00    -0.153 OA
ATOM     28  O   UNL     1       5.464  -8.922   7.193  0.00  0.00    -0.153 OA
BRANCH  26  29
ATOM     29  N   UNL     1       6.928 -10.011   5.526  0.00  0.00    -0.204 NA
ATOM     30  H   UNL     1       6.884  -9.935   4.560  0.00  0.00    +0.144 HD
ATOM     31  H   UNL     1       7.125 -10.867   5.936  0.00  0.00    +0.144 HD
ENDBRANCH  26  29
ENDBRANCH  10  26
TORSDOF 6
