REMARK  Name = ZINC38936429
REMARK  9 active torsions:
REMARK  status: ('A' for Active; 'I' for Inactive)
REMARK    1  A    between atoms: C_1  and  C_2
REMARK    2  A    between atoms: C_2  and  N_3
REMARK    3  A    between atoms: N_3  and  C_4
REMARK    4  A    between atoms: N_3  and  C_6
REMARK    5  A    between atoms: C_4  and  C_5
REMARK    6  A    between atoms: C_9  and  C_13
REMARK    7  A    between atoms: C_10  and  O_12
REMARK    8  A    between atoms: N_14  and  N_15
REMARK    9  A    between atoms: C_16  and  C_22
REMARK                            x       y       z     vdW  Elec       q    Type
REMARK                         _______ _______ _______ _____ _____    ______ ____
ROOT
ATOM      1  C   UNL     1      -2.257  -1.442  -5.916  0.00  0.00    +0.142 C 
ATOM      2  N   UNL     1      -1.652  -1.851  -6.991  0.00  0.00    -0.183 NA
ENDROOT
BRANCH   2   3
ATOM      3  N   UNL     1      -2.397  -2.187  -8.130  0.00  0.00    -0.172 N 
ATOM      4  C   UNL     1      -1.905  -2.782  -9.386  0.00  0.00    +0.264 C 
ATOM      5  N   UNL     1      -3.116  -2.912 -10.212  0.00  0.00    -0.189 NA
ATOM      6  N   UNL     1      -4.072  -2.484  -9.560  0.00  0.00    -0.219 N 
ATOM      7  C   UNL     1      -3.727  -2.045  -8.320  0.00  0.00    +0.174 C 
ATOM      8  S   UNL     1      -4.819  -1.402  -7.168  0.00  0.00    -0.015 S 
ATOM      9  H   UNL     1      -4.981  -2.466  -9.897  0.00  0.00    +0.176 HD
BRANCH   4  10
ATOM     10  C   UNL     1      -0.905  -1.869 -10.048  0.00  0.00    -0.002 A 
ATOM     11  C   UNL     1      -0.111  -1.041  -9.278  0.00  0.00    +0.009 A 
ATOM     12  C   UNL     1       0.806  -0.203  -9.884  0.00  0.00    +0.020 A 
ATOM     13  C   UNL     1       0.929  -0.194 -11.262  0.00  0.00    +0.041 A 
ATOM     14  C   UNL     1       0.134  -1.024 -12.033  0.00  0.00    +0.020 A 
ATOM     15  C   UNL     1      -0.779  -1.865 -11.425  0.00  0.00    +0.009 A 
ATOM     16 CL   UNL     1       2.080   0.858 -12.025  0.00  0.00    -0.084 Cl
ENDBRANCH   4  10
ENDBRANCH   2   3
BRANCH   1  20
ATOM     17  C   UNL     1      -0.036  -0.737  -2.365  0.00  0.00    +0.033 A 
ATOM     18  C   UNL     1      -1.412  -0.530  -2.379  0.00  0.00    +0.024 A 
ATOM     19  C   UNL     1      -2.136  -0.758  -3.528  0.00  0.00    +0.015 A 
ATOM     20  C   UNL     1      -1.487  -1.197  -4.686  0.00  0.00    +0.036 A 
ATOM     21  C   UNL     1      -0.100  -1.405  -4.671  0.00  0.00    +0.127 A 
ATOM     22  C   UNL     1       0.618  -1.169  -3.513  0.00  0.00    +0.069 A 
BRANCH  21  23
ATOM     23  O   UNL     1       0.537  -1.832  -5.792  0.00  0.00    -0.506 OA
ATOM     24  H   UNL     1       0.850  -1.117  -6.363  0.00  0.00    +0.292 HD
ENDBRANCH  21  23
BRANCH  17  25
ATOM     25  N   UNL     1       0.690  -0.504  -1.198  0.00  0.00    -0.330 N 
BRANCH  25  27
ATOM     26  C   UNL     1      -0.032   1.481   0.035  0.00  0.00    +0.024 C 
ATOM     27  C   UNL     1       0.003  -0.048   0.013  0.00  0.00    +0.102 C 
ENDBRANCH  25  27
BRANCH  25  28
ATOM     28  C   UNL     1       2.140  -0.715  -1.182  0.00  0.00    +0.102 C 
ATOM     29  C   UNL     1       2.441  -2.159  -0.777  0.00  0.00    +0.024 C 
ENDBRANCH  25  28
ENDBRANCH  17  25
ENDBRANCH   1  20
TORSDOF 7
