REMARK  Name = ZINC59564817
REMARK  7 active torsions:
REMARK  status: ('A' for Active; 'I' for Inactive)
REMARK    1  A    between atoms: C_1  and  C_2
REMARK    2  A    between atoms: C_2  and  C_4
REMARK    3  A    between atoms: C_2  and  N_10
REMARK    4  A    between atoms: C_11  and  C_13
REMARK    5  A    between atoms: C_13  and  S_14
REMARK    6  A    between atoms: S_14  and  C_15
REMARK    7  A    between atoms: N_24  and  C_25
REMARK                            x       y       z     vdW  Elec       q    Type
REMARK                         _______ _______ _______ _____ _____    ______ ____
ROOT
ATOM      1  C   UNL     1       0.742  -1.423   6.498  0.00  0.00    +0.151 C 
ATOM      2  N   UNL     1       1.977  -1.802   6.347  0.00  0.00    -0.347 N 
ATOM      3  C   UNL     1       2.278  -2.764   7.413  0.00  0.00    +0.107 C 
ATOM      4  C   UNL     1       3.406  -2.242   8.297  0.00  0.00    +0.045 C 
ATOM      5  C   UNL     1       4.685  -2.107   7.467  0.00  0.00    +0.004 C 
ATOM      6  C   UNL     1       5.062  -3.472   6.888  0.00  0.00    +0.000 C 
ATOM      7  C   UNL     1       3.932  -3.978   5.990  0.00  0.00    +0.004 C 
ATOM      8  C   UNL     1       2.650  -4.119   6.816  0.00  0.00    +0.045 C 
ATOM      9  N   UNL     1       1.030  -2.874   8.188  0.00  0.00    -0.209 NA
ATOM     10  N   UNL     1       0.147  -2.026   7.576  0.00  0.00    -0.213 N 
ATOM     11  H   UNL     1       1.177  -2.604   9.149  0.00  0.00    +0.147 HD
ATOM     12  H   UNL     1       2.588  -1.503   5.656  0.00  0.00    +0.163 HD
ENDROOT
BRANCH  10  13
ATOM     13  C   UNL     1      -1.172  -1.810   7.987  0.00  0.00    +0.052 A 
ATOM     14  C   UNL     1      -2.207  -1.859   7.061  0.00  0.00    +0.025 A 
ATOM     15  C   UNL     1      -3.508  -1.646   7.471  0.00  0.00    +0.002 A 
ATOM     16  C   UNL     1      -3.782  -1.384   8.801  0.00  0.00    +0.000 A 
ATOM     17  C   UNL     1      -2.755  -1.335   9.725  0.00  0.00    +0.002 A 
ATOM     18  C   UNL     1      -1.451  -1.552   9.323  0.00  0.00    +0.025 A 
ENDBRANCH  10  13
BRANCH   1  19
ATOM     19  S   UNL     1      -0.069  -0.266   5.446  0.00  0.00    -0.082 S 
BRANCH  19  20
ATOM     20  C   UNL     1       1.196   0.177   4.223  0.00  0.00    +0.172 C 
BRANCH  20  22
ATOM     21  N   UNL     1       1.391   1.650   2.246  0.00  0.00    -0.308 N 
ATOM     22  C   UNL     1       0.626   1.175   3.249  0.00  0.00    +0.224 C 
ATOM     23  O   UNL     1      -0.521   1.551   3.367  0.00  0.00    -0.275 OA
ATOM     24  H   UNL     1       2.308   1.350   2.151  0.00  0.00    +0.149 HD
BRANCH  21  26
ATOM     25  C   UNL     1       0.973   4.031   1.875  0.00  0.00    +0.033 C 
ATOM     26  C   UNL     1       0.836   2.620   1.298  0.00  0.00    +0.100 C 
BRANCH  26  27
ATOM     27  C   UNL     1       1.587   2.535  -0.005  0.00  0.00    -0.027 A 
ATOM     28  C   UNL     1       2.958   2.358  -0.003  0.00  0.00    +0.005 A 
ATOM     29  C   UNL     1       3.647   2.280  -1.199  0.00  0.00    +0.000 A 
ATOM     30  C   UNL     1       2.965   2.379  -2.397  0.00  0.00    +0.000 A 
ATOM     31  C   UNL     1       1.594   2.555  -2.400  0.00  0.00    +0.000 A 
ATOM     32  C   UNL     1       0.904   2.628  -1.204  0.00  0.00    +0.005 A 
ENDBRANCH  26  27
ENDBRANCH  21  26
ENDBRANCH  20  22
ENDBRANCH  19  20
ENDBRANCH   1  19
TORSDOF 6
