REMARK  Name = ZINC20271482
REMARK  9 active torsions:
REMARK  status: ('A' for Active; 'I' for Inactive)
REMARK    1  A    between atoms: C_1  and  C_2
REMARK    2  A    between atoms: C_2  and  N_3
REMARK    3  A    between atoms: N_6  and  C_9
REMARK    4  A    between atoms: C_12  and  N_16
REMARK    5  A    between atoms: C_14  and  N_15
REMARK    6  A    between atoms: N_16  and  C_17
REMARK    7  A    between atoms: N_16  and  C_19
REMARK    8  A    between atoms: C_17  and  C_18
REMARK    9  A    between atoms: C_19  and  C_20
REMARK                            x       y       z     vdW  Elec       q    Type
REMARK                         _______ _______ _______ _____ _____    ______ ____
ROOT
ATOM      1  C   UNL     1       0.800  -2.815   4.615  0.00  0.00    +0.051 A 
ATOM      2  C   UNL     1      -0.427  -3.457   4.694  0.00  0.00    +0.027 A 
ATOM      3  C   UNL     1      -0.693  -4.312   5.748  0.00  0.00    +0.023 A 
ATOM      4  C   UNL     1       0.261  -4.530   6.725  0.00  0.00    +0.015 A 
ATOM      5  C   UNL     1       1.487  -3.893   6.654  0.00  0.00    +0.046 A 
ATOM      6  C   UNL     1       1.764  -3.039   5.598  0.00  0.00    +0.048 A 
ENDROOT
BRANCH   1  10
ATOM      7  N   UNL     1       0.713  -0.491   1.192  0.00  0.00    +0.382 N 
ATOM      8  C   UNL     1      -0.035  -0.109   2.397  0.00  0.00    -0.060 C 
ATOM      9  C   UNL     1       0.761  -0.515   3.641  0.00  0.00    +0.086 C 
ATOM     10  N   UNL     1       1.071  -1.950   3.549  0.00  0.00    -0.332 N 
ATOM     11  C   UNL     1       1.676  -2.450   2.304  0.00  0.00    +0.086 C 
ATOM     12  C   UNL     1       0.836  -1.952   1.123  0.00  0.00    -0.060 C 
ATOM     13  H   UNL     1       1.633  -0.078   1.225  0.00  0.00    -0.082 HD
BRANCH   7  15
ATOM     14  C   UNL     1      -0.019   1.526   0.010  0.00  0.00    -0.017 C 
ATOM     15  C   UNL     1       0.002  -0.004   0.002  0.00  0.00    -0.082 C 
ENDBRANCH   7  15
ENDBRANCH   1  10
BRANCH   6  16
ATOM     16  N   UNL     1       3.007  -2.398   5.521  0.00  0.00    -0.356 N 
ATOM     17  H   UNL     1       3.198  -1.797   4.783  0.00  0.00    +0.142 HD
ATOM     18  H   UNL     1       3.676  -2.554   6.205  0.00  0.00    +0.142 HD
ENDBRANCH   6  16
BRANCH   4  19
ATOM     19  N   UNL     1      -0.014  -5.395   7.788  0.00  0.00    -0.394 NA
ATOM     20  H   UNL     1       0.784  -5.437   8.403  0.00  0.00    +0.126 HD
BRANCH  19  21
ATOM     21  C   UNL     1      -1.180  -4.900   8.533  0.00  0.00    +0.081 C 
ATOM     22  C   UNL     1      -1.406  -5.775   9.767  0.00  0.00    +0.022 C 
ENDBRANCH  19  21
BRANCH  19  23
ATOM     23  C   UNL     1      -0.301  -6.737   7.265  0.00  0.00    +0.081 C 
ATOM     24  C   UNL     1       0.954  -7.303   6.598  0.00  0.00    +0.022 C 
ENDBRANCH  19  23
ENDBRANCH   4  19
TORSDOF 6
