REMARK  Name = ZINC12042156
REMARK  10 active torsions:
REMARK  status: ('A' for Active; 'I' for Inactive)
REMARK    1  A    between atoms: C_1  and  N_2
REMARK    2  A    between atoms: N_2  and  C_3
REMARK    3  A    between atoms: N_2  and  C_4
REMARK    4  A    between atoms: C_5  and  C_14
REMARK    5  A    between atoms: C_14  and  N_15
REMARK    6  A    between atoms: N_15  and  C_16
REMARK    7  A    between atoms: C_16  and  C_17
REMARK    8  A    between atoms: C_22  and  C_24
REMARK    9  A    between atoms: C_24  and  C_25
REMARK   10  A    between atoms: C_24  and  C_31
REMARK                            x       y       z     vdW  Elec       q    Type
REMARK                         _______ _______ _______ _____ _____    ______ ____
ROOT
ATOM      1  N   UNL     1       4.337  -0.535   1.728  0.00  0.00    -0.289 N 
ATOM      2  C   UNL     1       4.380  -1.714   2.380  0.00  0.00    +0.228 C 
ATOM      3  O   UNL     1       4.093  -2.739   1.799  0.00  0.00    -0.275 OA
ENDROOT
BRANCH   1   4
ATOM      4  C   UNL     1       3.821  -0.474   0.359  0.00  0.00    +0.146 C 
BRANCH   4   6
ATOM      5  C   UNL     1       1.389  -1.050   0.685  0.00  0.00    +0.103 A 
ATOM      6  C   UNL     1       2.365  -0.088   0.388  0.00  0.00    +0.008 A 
ATOM      7  C   UNL     1       1.994   1.196   0.125  0.00  0.00    +0.018 A 
ATOM      8  C   UNL     1       0.621   1.517   0.163  0.00  0.00    -0.001 A 
ATOM      9  C   UNL     1       0.171   2.821  -0.098  0.00  0.00    +0.013 A 
ATOM     10  C   UNL     1      -1.162   3.095  -0.053  0.00  0.00    +0.039 A 
ATOM     11  C   UNL     1      -2.088   2.096   0.249  0.00  0.00    +0.125 A 
ATOM     12  C   UNL     1      -1.683   0.818   0.502  0.00  0.00    +0.064 A 
ATOM     13  C   UNL     1      -0.316   0.500   0.470  0.00  0.00    +0.050 A 
ATOM     14  F   UNL     1      -3.404   2.397   0.286  0.00  0.00    -0.205 F 
ATOM     15  N   UNL     1       0.057  -0.799   0.736  0.00  0.00    -0.343 N 
ATOM     16  H   UNL     1      -0.629  -1.530   0.958  0.00  0.00    +0.167 HD
BRANCH   5  18
ATOM     17  C   UNL     1       0.824  -3.020   1.843  0.00  0.00    +0.130 C 
ATOM     18  N   UNL     1       1.782  -2.353   0.951  0.00  0.00    -0.322 N 
ATOM     19  C   UNL     1       1.958  -3.113  -0.294  0.00  0.00    +0.130 C 
ENDBRANCH   5  18
ENDBRANCH   4   6
ENDBRANCH   1   4
BRANCH   1  20
ATOM     20  C   UNL     1       4.807   0.684   2.389  0.00  0.00    +0.182 C 
BRANCH  20  21
ATOM     21  C   UNL     1       3.648   1.365   3.071  0.00  0.00    +0.122 A 
ATOM     22  C   UNL     1       3.289   1.205   4.358  0.00  0.00    +0.046 A 
ATOM     23  C   UNL     1       2.157   2.026   4.572  0.00  0.00    +0.041 A 
ATOM     24  C   UNL     1       1.893   2.637   3.403  0.00  0.00    +0.195 A 
ATOM     25  O   UNL     1       2.803   2.237   2.499  0.00  0.00    -0.466 OA
ENDBRANCH  20  21
ENDBRANCH   1  20
BRANCH   2  26
ATOM     26  C   UNL     1       4.783  -1.759   3.832  0.00  0.00    +0.135 C 
BRANCH  26  27
ATOM     27  C   UNL     1       4.505  -3.131   4.388  0.00  0.00    -0.031 A 
ATOM     28  C   UNL     1       5.199  -4.226   3.908  0.00  0.00    +0.005 A 
ATOM     29  C   UNL     1       4.947  -5.484   4.422  0.00  0.00    +0.000 A 
ATOM     30  C   UNL     1       3.994  -5.649   5.410  0.00  0.00    +0.000 A 
ATOM     31  C   UNL     1       3.296  -4.555   5.887  0.00  0.00    +0.000 A 
ATOM     32  C   UNL     1       3.552  -3.296   5.376  0.00  0.00    +0.005 A 
ENDBRANCH  26  27
BRANCH  26  33
ATOM     33  C   UNL     1       6.255  -1.456   3.953  0.00  0.00    -0.031 A 
ATOM     34  C   UNL     1       7.118  -1.803   2.931  0.00  0.00    +0.005 A 
ATOM     35  C   UNL     1       8.467  -1.521   3.041  0.00  0.00    +0.000 A 
ATOM     36  C   UNL     1       8.954  -0.901   4.177  0.00  0.00    +0.000 A 
ATOM     37  C   UNL     1       8.091  -0.560   5.201  0.00  0.00    +0.000 A 
ATOM     38  C   UNL     1       6.741  -0.837   5.089  0.00  0.00    +0.005 A 
ENDBRANCH  26  33
ENDBRANCH   2  26
TORSDOF 8
