REMARK  Name = ZINC05515948
REMARK  9 active torsions:
REMARK  status: ('A' for Active; 'I' for Inactive)
REMARK    1  A    between atoms: C_4  and  C_7
REMARK    2  A    between atoms: C_7  and  N_51
REMARK    3  A    between atoms: C_8  and  C_9
REMARK    4  A    between atoms: C_8  and  N_51
REMARK    5  A    between atoms: C_15  and  C_16
REMARK    6  A    between atoms: C_15  and  N_51
REMARK    7  A    between atoms: N_18  and  N_19
REMARK    8  A    between atoms: C_20  and  C_21
REMARK    9  A    between atoms: C_24  and  O_27
REMARK                            x       y       z     vdW  Elec       q    Type
REMARK                         _______ _______ _______ _____ _____    ______ ____
ROOT
ATOM      1  N   UNL     1      -0.088  -0.135   1.448  0.00  0.00    +0.391 N 
ATOM      2  H   UNL     1      -0.831   0.304   2.006  0.00  0.00    -0.080 HD
ENDROOT
BRANCH   1   3
ATOM      3  C   UNL     1      -0.166   0.370   0.062  0.00  0.00    -0.042 C 
BRANCH   3   7
ATOM      4  C   UNL     1      -0.231   4.640   0.152  0.00  0.00    +0.000 A 
ATOM      5  C   UNL     1       0.974   3.969   0.059  0.00  0.00    +0.000 A 
ATOM      6  C   UNL     1       0.995   2.587   0.030  0.00  0.00    +0.002 A 
ATOM      7  C   UNL     1      -0.189   1.877   0.094  0.00  0.00    -0.064 A 
ATOM      8  C   UNL     1      -1.394   2.548   0.181  0.00  0.00    +0.002 A 
ATOM      9  C   UNL     1      -1.415   3.930   0.215  0.00  0.00    +0.000 A 
ENDBRANCH   3   7
ENDBRANCH   1   3
BRANCH   1  10
ATOM     10  C   UNL     1       1.222   0.209   2.038  0.00  0.00    -0.042 C 
BRANCH  10  11
ATOM     11  C   UNL     1       1.165  -0.038   3.524  0.00  0.00    -0.064 A 
ATOM     12  C   UNL     1       0.645   0.928   4.365  0.00  0.00    +0.002 A 
ATOM     13  C   UNL     1       0.589   0.700   5.728  0.00  0.00    +0.000 A 
ATOM     14  C   UNL     1       1.060  -0.490   6.249  0.00  0.00    +0.000 A 
ATOM     15  C   UNL     1       1.585  -1.454   5.409  0.00  0.00    +0.000 A 
ATOM     16  C   UNL     1       1.637  -1.228   4.046  0.00  0.00    +0.002 A 
ENDBRANCH  10  11
ENDBRANCH   1  10
BRANCH   1  17
ATOM     17  C   UNL     1      -0.281  -1.601   1.464  0.00  0.00    +0.021 C 
BRANCH  17  18
ATOM     18  C   UNL     1      -1.751  -1.896   1.321  0.00  0.00    +0.216 C 
ATOM     19  O   UNL     1      -2.539  -0.989   1.151  0.00  0.00    -0.276 OA
ATOM     20  N   UNL     1      -2.192  -3.168   1.381  0.00  0.00    -0.209 N 
ATOM     21  H   UNL     1      -1.563  -3.894   1.517  0.00  0.00    +0.177 HD
BRANCH  20  22
ATOM     22  N   UNL     1      -3.559  -3.443   1.248  0.00  0.00    -0.188 NA
ATOM     23  C   UNL     1      -3.984  -4.668   1.307  0.00  0.00    +0.138 C 
BRANCH  23  24
ATOM     24  C   UNL     1      -5.423  -4.957   1.167  0.00  0.00    -0.005 A 
ATOM     25  C   UNL     1      -6.332  -3.913   0.977  0.00  0.00    +0.013 A 
ATOM     26  C   UNL     1      -7.676  -4.189   0.843  0.00  0.00    +0.046 A 
ATOM     27  C   UNL     1      -8.127  -5.500   0.905  0.00  0.00    +0.117 A 
ATOM     28  C   UNL     1      -7.228  -6.541   1.099  0.00  0.00    +0.046 A 
ATOM     29  C   UNL     1      -5.882  -6.276   1.230  0.00  0.00    +0.013 A 
BRANCH  27  30
ATOM     30  O   UNL     1      -9.453  -5.767   0.777  0.00  0.00    -0.507 OA
ATOM     31  H   UNL     1      -9.937  -5.768   1.615  0.00  0.00    +0.292 HD
ENDBRANCH  27  30
ENDBRANCH  23  24
ENDBRANCH  20  22
ENDBRANCH  17  18
ENDBRANCH   1  17
TORSDOF 9
