REMARK  Name = ZINC34657462
REMARK  14 active torsions:
REMARK  status: ('A' for Active; 'I' for Inactive)
REMARK    1  A    between atoms: C_1  and  C_2
REMARK    2  A    between atoms: C_6  and  C_34
REMARK    3  A    between atoms: C_8  and  O_11
REMARK    4  A    between atoms: O_11  and  C_12
REMARK    5  A    between atoms: C_12  and  C_14
REMARK    6  A    between atoms: C_14  and  O_15
REMARK    7  A    between atoms: O_15  and  C_16
REMARK    8  A    between atoms: C_16  and  C_18
REMARK    9  A    between atoms: C_20  and  N_25
REMARK   10  A    between atoms: C_23  and  O_24
REMARK   11  A    between atoms: N_25  and  S_26
REMARK   12  A    between atoms: S_26  and  C_29
REMARK   13  A    between atoms: C_34  and  C_35
REMARK   14  A    between atoms: C_34  and  C_36
REMARK                            x       y       z     vdW  Elec       q    Type
REMARK                         _______ _______ _______ _____ _____    ______ ____
ROOT
ATOM      1  C   UNL     1       3.447   1.315   8.471  0.00  0.00    +0.102 A 
ATOM      2  C   UNL     1       2.646   2.440   8.260  0.00  0.00    +0.043 A 
ATOM      3  C   UNL     1       3.000   3.653   8.824  0.00  0.00    +0.049 A 
ATOM      4  C   UNL     1       4.151   3.754   9.599  0.00  0.00    +0.028 A 
ATOM      5  C   UNL     1       4.948   2.647   9.811  0.00  0.00    +0.048 A 
ATOM      6  C   UNL     1       4.602   1.423   9.258  0.00  0.00    +0.131 A 
ENDROOT
BRANCH   1   7
ATOM      7  C   UNL     1       3.077   0.019   7.873  0.00  0.00    +0.343 C 
ATOM      8  O   UNL     1       3.774  -0.958   8.063  0.00  0.00    -0.245 OA
BRANCH   7   9
ATOM      9  O   UNL     1       1.966  -0.081   7.117  0.00  0.00    -0.450 OA
BRANCH   9  10
ATOM     10  C   UNL     1       1.668  -1.367   6.570  0.00  0.00    +0.352 C 
BRANCH  10  11
ATOM     11  C   UNL     1       0.400  -1.287   5.760  0.00  0.00    +0.346 C 
ATOM     12  O   UNL     1      -0.189  -0.236   5.662  0.00  0.00    -0.247 OA
BRANCH  11  13
ATOM     13  O   UNL     1      -0.076  -2.382   5.148  0.00  0.00    -0.459 OA
BRANCH  13  19
ATOM     14  C   UNL     1      -3.862  -0.918   3.951  0.00  0.00    +0.007 C 
ATOM     15  C   UNL     1      -3.777  -2.342   4.502  0.00  0.00    -0.011 C 
ATOM     16  C   UNL     1      -3.782  -3.339   3.341  0.00  0.00    +0.004 C 
ATOM     17  C   UNL     1      -2.580  -3.071   2.433  0.00  0.00    +0.007 C 
ATOM     18  C   UNL     1      -1.288  -3.230   3.237  0.00  0.00    +0.032 C 
ATOM     19  C   UNL     1      -1.283  -2.233   4.398  0.00  0.00    +0.180 C 
ATOM     20  C   UNL     1      -2.485  -2.502   5.306  0.00  0.00    +0.048 C 
BRANCH  18  21
ATOM     21  C   UNL     1      -0.086  -2.962   2.329  0.00  0.00    -0.011 C 
ATOM     22  C   UNL     1      -0.015  -4.040   1.246  0.00  0.00    +0.007 C 
ATOM     23  C   UNL     1      -0.240  -1.588   1.672  0.00  0.00    +0.007 C 
ENDBRANCH  18  21
ENDBRANCH  13  19
ENDBRANCH  11  13
ENDBRANCH  10  11
ENDBRANCH   9  10
ENDBRANCH   7   9
ENDBRANCH   1   7
BRANCH   6  24
ATOM     24  O   UNL     1       5.384   0.334   9.473  0.00  0.00    -0.506 OA
ATOM     25  H   UNL     1       6.082   0.216   8.815  0.00  0.00    +0.292 HD
ENDBRANCH   6  24
BRANCH   3  26
ATOM     26  N   UNL     1       2.199   4.781   8.614  0.00  0.00    -0.216 N 
ATOM     27  H   UNL     1       2.218   5.238   7.759  0.00  0.00    +0.174 HD
BRANCH  26  28
ATOM     28  S   UNL     1       1.217   5.336   9.827  0.00  0.00    +0.079 S 
ATOM     29  O   UNL     1       2.028   5.445  10.989  0.00  0.00    -0.149 OA
ATOM     30  O   UNL     1       0.497   6.440   9.294  0.00  0.00    -0.149 OA
BRANCH  28  31
ATOM     31  C   UNL     1       0.032   4.074  10.157  0.00  0.00    +0.146 A 
ATOM     32  C   UNL     1       0.136   2.998  10.973  0.00  0.00    +0.036 A 
ATOM     33  C   UNL     1      -0.934   2.130  11.078  0.00  0.00    +0.010 A 
ATOM     34  C   UNL     1      -2.057   2.381  10.362  0.00  0.00    +0.047 A 
ATOM     35  S   UNL     1      -1.621   3.887   9.508  0.00  0.00    -0.077 S 
ENDBRANCH  28  31
ENDBRANCH  26  28
ENDBRANCH   3  26
TORSDOF 11
