REMARK  Name = ZINC67132614
REMARK  2 active torsions:
REMARK  status: ('A' for Active; 'I' for Inactive)
REMARK    1  A    between atoms: C_7  and  C_11
REMARK    2  A    between atoms: C_11  and  N_12
REMARK                            x       y       z     vdW  Elec       q    Type
REMARK                         _______ _______ _______ _____ _____    ______ ____
ROOT
ATOM      1  C   UNL     1      -2.051  -3.068   0.004  0.00  0.00    -0.001 C 
ENDROOT
BRANCH   1   2
ATOM      2  N   UNL     1      -2.457  -3.353  -1.378  0.00  0.00    +0.386 N 
ATOM      3  C   UNL     1      -1.397  -4.114  -2.051  0.00  0.00    -0.078 C 
ATOM      4  C   UNL     1      -1.779  -4.344  -3.515  0.00  0.00    -0.018 C 
ATOM      5  C   UNL     1      -3.092  -5.130  -3.577  0.00  0.00    +0.000 C 
ATOM      6  C   UNL     1      -4.172  -4.363  -2.809  0.00  0.00    -0.025 C 
ATOM      7  C   UNL     1      -3.702  -4.132  -1.371  0.00  0.00    -0.065 C 
ATOM      8  C   UNL     1      -4.779  -3.365  -0.601  0.00  0.00    -0.015 C 
ATOM      9  C   UNL     1      -5.024  -2.015  -1.278  0.00  0.00    -0.002 C 
ATOM     10  C   UNL     1      -5.492  -2.244  -2.717  0.00  0.00    +0.000 C 
ATOM     11  C   UNL     1      -4.420  -3.015  -3.489  0.00  0.00    +0.002 C 
ATOM     12  H   UNL     1      -2.608  -2.485  -1.869  0.00  0.00    -0.081 HD
ENDBRANCH   1   2
BRANCH   1  19
ATOM     13  C   UNL     1      -0.017   1.402   0.010  0.00  0.00    +0.036 A 
ATOM     14  C   UNL     1       1.138   2.095   0.002  0.00  0.00    +0.048 A 
ATOM     15  S   UNL     1       2.375   0.808  -0.016  0.00  0.00    -0.090 S 
ATOM     16  C   UNL     1       1.287  -0.591  -0.013  0.00  0.00    +0.104 A 
ATOM     17  C   UNL     1       0.002  -0.004   0.002  0.00  0.00    +0.085 A 
ATOM     18  N   UNL     1      -1.038  -0.873   0.007  0.00  0.00    -0.233 NA
ATOM     19  C   UNL     1      -0.844  -2.167  -0.002  0.00  0.00    +0.117 A 
ATOM     20  N   UNL     1       0.353  -2.726  -0.017  0.00  0.00    -0.195 NA
ATOM     21  C   UNL     1       1.446  -1.963  -0.022  0.00  0.00    +0.288 A 
ATOM     22  O   UNL     1       2.681  -2.520  -0.036  0.00  0.00    -0.265 OA
ENDBRANCH   1  19
TORSDOF 2
