REMARK  Name = ZINC38684940
REMARK  15 active torsions:
REMARK  status: ('A' for Active; 'I' for Inactive)
REMARK    1  A    between atoms: C_1  and  C_2
REMARK    2  A    between atoms: C_2  and  O_3
REMARK    3  A    between atoms: O_3  and  C_4
REMARK    4  A    between atoms: C_8  and  C_10
REMARK    5  A    between atoms: C_15  and  O_24
REMARK    6  A    between atoms: C_19  and  N_23
REMARK    7  A    between atoms: C_20  and  C_21
REMARK    8  A    between atoms: O_24  and  C_25
REMARK    9  A    between atoms: C_25  and  C_27
REMARK   10  A    between atoms: C_27  and  O_28
REMARK   11  A    between atoms: O_28  and  C_29
REMARK   12  A    between atoms: C_32  and  C_35
REMARK   13  A    between atoms: C_35  and  C_36
REMARK   14  A    between atoms: C_35  and  C_37
REMARK   15  A    between atoms: C_35  and  C_38
REMARK                            x       y       z     vdW  Elec       q    Type
REMARK                         _______ _______ _______ _____ _____    ______ ____
ROOT
ATOM      1  C   UNL     1       2.283  -4.346   3.712  0.00  0.00    +0.098 C 
ATOM      2  C   UNL     1       1.323  -5.193   4.504  0.00  0.00    +0.008 A 
ATOM      3  C   UNL     1       0.439  -4.584   5.377  0.00  0.00    +0.012 A 
ATOM      4  C   UNL     1      -0.449  -5.345   6.112  0.00  0.00    +0.047 A 
ATOM      5  C   UNL     1      -0.458  -6.726   5.975  0.00  0.00    +0.135 A 
ATOM      6  C   UNL     1       0.426  -7.339   5.102  0.00  0.00    +0.093 A 
ATOM      7  C   UNL     1       1.318  -6.572   4.363  0.00  0.00    +0.138 A 
ATOM      8  O   UNL     1       2.177  -7.187   3.513  0.00  0.00    -0.441 OA
ATOM      9  C   UNL     1       3.279  -6.545   3.093  0.00  0.00    +0.199 C 
ATOM     10  C   UNL     1       3.390  -5.200   3.159  0.00  0.00    +0.098 C 
ENDROOT
BRANCH   1  15
ATOM     11  C   UNL     1       0.820  -1.701   1.445  0.00  0.00    +0.121 A 
ATOM     12  C   UNL     1       0.191  -2.481   0.484  0.00  0.00    +0.045 A 
ATOM     13  C   UNL     1       0.243  -3.858   0.572  0.00  0.00    +0.004 A 
ATOM     14  C   UNL     1       0.920  -4.461   1.616  0.00  0.00    +0.005 A 
ATOM     15  C   UNL     1       1.546  -3.687   2.575  0.00  0.00    -0.031 A 
ATOM     16  C   UNL     1       1.503  -2.308   2.488  0.00  0.00    +0.050 A 
BRANCH  11  17
ATOM     17  O   UNL     1       0.771  -0.346   1.360  0.00  0.00    -0.492 OA
BRANCH  17  19
ATOM     18  C   UNL     1       0.105   1.737   0.332  0.00  0.00    +0.048 C 
ATOM     19  C   UNL     1       0.050   0.210   0.259  0.00  0.00    +0.225 C 
ENDBRANCH  17  19
ENDBRANCH  11  17
ENDBRANCH   1  15
BRANCH   9  20
ATOM     20  N   UNL     1       4.321  -7.276   2.580  0.00  0.00    -0.328 N 
ATOM     21  H   UNL     1       4.255  -8.242   2.525  0.00  0.00    +0.145 HD
ATOM     22  H   UNL     1       5.124  -6.827   2.272  0.00  0.00    +0.145 HD
ENDBRANCH   9  20
BRANCH  10  23
ATOM     23  C   UNL     1       4.591  -4.576   2.692  0.00  0.00    +0.101 C 
ATOM     24  N   UNL     1       5.544  -4.081   2.322  0.00  0.00    -0.191 NA
ENDBRANCH  10  23
BRANCH   5  25
ATOM     25  O   UNL     1      -1.331  -7.476   6.698  0.00  0.00    -0.423 OA
BRANCH  25  26
ATOM     26  C   UNL     1      -0.836  -8.258   7.671  0.00  0.00    +0.350 C 
ATOM     27  O   UNL     1       0.339  -8.203   7.951  0.00  0.00    -0.247 OA
BRANCH  26  28
ATOM     28  C   UNL     1      -1.744  -9.204   8.413  0.00  0.00    +0.349 C 
BRANCH  28  29
ATOM     29  O   UNL     1      -0.988  -9.921   9.391  0.00  0.00    -0.481 OA
BRANCH  29  30
ATOM     30  C   UNL     1      -1.662 -10.822  10.153  0.00  0.00    +0.121 A 
ATOM     31  C   UNL     1      -3.022 -11.017   9.959  0.00  0.00    +0.046 A 
ATOM     32  C   UNL     1      -3.705 -11.934  10.734  0.00  0.00    +0.008 A 
ATOM     33  C   UNL     1      -3.035 -12.656  11.703  0.00  0.00    -0.042 A 
ATOM     34  C   UNL     1      -1.680 -12.464  11.899  0.00  0.00    +0.008 A 
ATOM     35  C   UNL     1      -0.991 -11.553  11.122  0.00  0.00    +0.046 A 
BRANCH  33  36
ATOM     36  C   UNL     1      -3.782 -13.656  12.548  0.00  0.00    -0.013 C 
ATOM     37  C   UNL     1      -4.397 -14.728  11.646  0.00  0.00    +0.015 C 
ATOM     38  C   UNL     1      -2.816 -14.313  13.535  0.00  0.00    +0.015 C 
ATOM     39  C   UNL     1      -4.893 -12.941  13.321  0.00  0.00    +0.015 C 
ENDBRANCH  33  36
ENDBRANCH  29  30
ENDBRANCH  28  29
ENDBRANCH  26  28
ENDBRANCH  25  26
ENDBRANCH   5  25
TORSDOF 11
