REMARK  Name = ZINC39653507
REMARK  10 active torsions:
REMARK  status: ('A' for Active; 'I' for Inactive)
REMARK    1  A    between atoms: C_1  and  C_2
REMARK    2  A    between atoms: C_2  and  O_3
REMARK    3  A    between atoms: O_3  and  C_4
REMARK    4  A    between atoms: C_6  and  C_12
REMARK    5  A    between atoms: C_9  and  O_10
REMARK    6  A    between atoms: O_10  and  C_11
REMARK    7  A    between atoms: C_12  and  C_13
REMARK    8  A    between atoms: C_13  and  N_14
REMARK    9  A    between atoms: C_15  and  C_17
REMARK   10  A    between atoms: C_28  and  C_30
REMARK                            x       y       z     vdW  Elec       q    Type
REMARK                         _______ _______ _______ _____ _____    ______ ____
ROOT
ATOM      1  C   UNL     1       4.004  -7.458   2.554  0.00  0.00    +0.100 C 
ATOM      2  C   UNL     1       5.168  -6.791   1.788  0.00  0.00    +0.121 C 
ATOM      3  N   UNL     1       5.974  -6.126   2.838  0.00  0.00    -0.296 N 
ATOM      4  C   UNL     1       5.965  -7.081   3.971  0.00  0.00    +0.115 C 
ATOM      5  C   UNL     1       4.532  -7.650   3.986  0.00  0.00    -0.004 C 
ATOM      6  C   UNL     1       4.556  -9.133   4.346  0.00  0.00    -0.010 C 
ATOM      7  C   UNL     1       5.029  -9.294   5.794  0.00  0.00    -0.082 C 
ATOM      8  N   UNL     1       4.123  -8.567   6.691  0.00  0.00    +0.379 N 
ATOM      9  C   UNL     1       4.177  -7.129   6.398  0.00  0.00    -0.082 C 
ATOM     10  C   UNL     1       3.667  -6.876   4.976  0.00  0.00    -0.010 C 
ATOM     11  C   UNL     1       6.581  -4.924   2.776  0.00  0.00    +0.248 C 
ATOM     12  O   UNL     1       6.416  -4.209   1.805  0.00  0.00    -0.270 OA
ATOM     13  H   UNL     1       3.180  -8.901   6.558  0.00  0.00    -0.086 HD
ATOM     14  H   UNL     1       4.401  -8.724   7.648  0.00  0.00    -0.086 HD
ENDROOT
BRANCH  11  15
ATOM     15  C   UNL     1       7.439  -4.477   3.880  0.00  0.00    +0.052 A 
ATOM     16  C   UNL     1       8.201  -5.360   4.576  0.00  0.00    +0.059 A 
ATOM     17  S   UNL     1       9.010  -4.443   5.724  0.00  0.00    -0.096 S 
ATOM     18  C   UNL     1       8.378  -2.833   5.341  0.00  0.00    +0.020 A 
ATOM     19  C   UNL     1       7.506  -3.064   4.260  0.00  0.00    +0.001 A 
ATOM     20  C   UNL     1       6.841  -1.948   3.718  0.00  0.00    +0.010 A 
ATOM     21  C   UNL     1       7.053  -0.694   4.235  0.00  0.00    +0.001 A 
ATOM     22  C   UNL     1       7.921  -0.492   5.298  0.00  0.00    +0.001 A 
ATOM     23  C   UNL     1       8.580  -1.570   5.856  0.00  0.00    +0.015 A 
ENDBRANCH  11  15
BRANCH   1  25
ATOM     24  N   UNL     1       1.557  -7.094   2.590  0.00  0.00    -0.315 N 
ATOM     25  C   UNL     1       2.794  -6.560   2.558  0.00  0.00    +0.218 C 
ATOM     26  O   UNL     1       2.934  -5.355   2.531  0.00  0.00    -0.275 OA
ATOM     27  H   UNL     1       1.446  -8.058   2.611  0.00  0.00    +0.149 HD
BRANCH  24  28
ATOM     28  C   UNL     1       0.382  -6.221   2.592  0.00  0.00    +0.109 C 
BRANCH  28  29
ATOM     29  C   UNL     1      -0.888  -7.074   2.631  0.00  0.00    +0.054 C 
BRANCH  29  32
ATOM     30  C   UNL     1      -3.784  -4.961   1.439  0.00  0.00    +0.162 A 
ATOM     31  C   UNL     1      -2.672  -5.787   1.438  0.00  0.00    +0.053 A 
ATOM     32  C   UNL     1      -2.098  -6.175   2.635  0.00  0.00    -0.042 A 
ATOM     33  C   UNL     1      -2.631  -5.740   3.834  0.00  0.00    +0.007 A 
ATOM     34  C   UNL     1      -3.740  -4.916   3.842  0.00  0.00    +0.049 A 
ATOM     35  C   UNL     1      -4.317  -4.519   2.646  0.00  0.00    +0.162 A 
BRANCH  35  36
ATOM     36  O   UNL     1      -5.405  -3.703   2.652  0.00  0.00    -0.491 OA
ATOM     37  C   UNL     1      -5.898  -3.288   3.928  0.00  0.00    +0.277 C 
ENDBRANCH  35  36
BRANCH  30  38
ATOM     38  O   UNL     1      -4.350  -4.578   0.263  0.00  0.00    -0.489 OA
BRANCH  38  40
ATOM     39  C   UNL     1      -4.518  -4.538  -2.147  0.00  0.00    +0.048 C 
ATOM     40  C   UNL     1      -3.749  -5.071  -0.936  0.00  0.00    +0.226 C 
ENDBRANCH  38  40
ENDBRANCH  30  38
ENDBRANCH  29  32
ENDBRANCH  28  29
ENDBRANCH  24  28
ENDBRANCH   1  25
TORSDOF 8
