REMARK  Name = ZINC39604196
REMARK  11 active torsions:
REMARK  status: ('A' for Active; 'I' for Inactive)
REMARK    1  A    between atoms: C_1  and  C_2
REMARK    2  A    between atoms: C_2  and  N_3
REMARK    3  A    between atoms: C_4  and  C_10
REMARK    4  A    between atoms: C_6  and  C_8
REMARK    5  A    between atoms: C_14  and  C_23
REMARK    6  A    between atoms: N_25  and  C_26
REMARK    7  A    between atoms: C_26  and  C_27
REMARK    8  A    between atoms: C_27  and  C_28
REMARK    9  A    between atoms: C_28  and  O_30
REMARK   10  A    between atoms: O_30  and  C_31
REMARK   11  A    between atoms: C_31  and  C_32
REMARK                            x       y       z     vdW  Elec       q    Type
REMARK                         _______ _______ _______ _____ _____    ______ ____
ROOT
ATOM      1  C   UNL     1      -1.626  -0.652  -2.607  0.00  0.00    +0.266 C 
ATOM      2  O   UNL     1      -2.125  -0.994  -3.662  0.00  0.00    -0.268 OA
ATOM      3  N   UNL     1      -2.408  -0.196  -1.608  0.00  0.00    -0.295 N 
ATOM      4  C   UNL     1      -1.998   0.190  -0.238  0.00  0.00    +0.121 C 
ATOM      5  C   UNL     1      -2.843   1.443   0.085  0.00  0.00    +0.100 C 
ATOM      6  C   UNL     1      -4.072   1.333  -0.833  0.00  0.00    -0.004 C 
ATOM      7  C   UNL     1      -3.871   0.040  -1.635  0.00  0.00    +0.115 C 
ATOM      8  C   UNL     1      -5.347   1.247   0.001  0.00  0.00    -0.010 C 
ATOM      9  C   UNL     1      -6.560   1.197  -0.933  0.00  0.00    -0.082 C 
ATOM     10  N   UNL     1      -6.582   2.400  -1.774  0.00  0.00    +0.379 N 
ATOM     11  C   UNL     1      -5.396   2.428  -2.640  0.00  0.00    -0.082 C 
ATOM     12  C   UNL     1      -4.135   2.530  -1.778  0.00  0.00    -0.010 C 
ATOM     13  H   UNL     1      -7.413   2.395  -2.345  0.00  0.00    -0.086 HD
ATOM     14  H   UNL     1      -6.586   3.220  -1.186  0.00  0.00    -0.086 HD
ENDROOT
BRANCH   1  16
ATOM     15  N   UNL     1       0.533  -1.793  -1.912  0.00  0.00    -0.258 N 
ATOM     16  C   UNL     1      -0.170  -0.736  -2.421  0.00  0.00    +0.138 A 
ATOM     17  C   UNL     1       0.766   0.239  -2.726  0.00  0.00    +0.071 A 
ATOM     18  C   UNL     1       2.001  -0.310  -2.372  0.00  0.00    +0.075 A 
ATOM     19  N   UNL     1       1.786  -1.509  -1.894  0.00  0.00    -0.175 NA
ATOM     20  C   UNL     1       3.343   0.362  -2.510  0.00  0.00    +0.069 C 
ATOM     21 BR   UNL     1       0.440   1.948  -3.466  0.00  0.00    -0.046 Br
BRANCH  15  23
ATOM     22  C   UNL     1      -0.479  -2.914   0.011  0.00  0.00    +0.029 C 
ATOM     23  C   UNL     1      -0.054  -3.054  -1.452  0.00  0.00    +0.141 C 
ENDBRANCH  15  23
ENDBRANCH   1  16
BRANCH   5  24
ATOM     24  C   UNL     1      -2.064   2.695  -0.225  0.00  0.00    +0.218 C 
ATOM     25  O   UNL     1      -1.290   2.713  -1.159  0.00  0.00    -0.275 OA
ATOM     26  N   UNL     1      -2.228   3.796   0.535  0.00  0.00    -0.314 N 
ATOM     27  H   UNL     1      -2.791   3.761   1.324  0.00  0.00    +0.149 HD
BRANCH  26  28
ATOM     28  C   UNL     1      -1.557   5.046   0.168  0.00  0.00    +0.115 C 
BRANCH  28  29
ATOM     29  C   UNL     1      -1.908   6.131   1.188  0.00  0.00    +0.139 C 
BRANCH  29  30
ATOM     30  C   UNL     1      -1.217   7.417   0.811  0.00  0.00    +0.309 C 
ATOM     31  O   UNL     1      -0.516   7.460  -0.172  0.00  0.00    -0.251 OA
BRANCH  30  32
ATOM     32  O   UNL     1      -1.381   8.513   1.568  0.00  0.00    -0.465 OA
BRANCH  32  33
ATOM     33  C   UNL     1      -0.696   9.697   1.152  0.00  0.00    +0.229 C 
ATOM     34  C   UNL     1      -1.001  10.833   2.131  0.00  0.00    +0.048 C 
ENDBRANCH  32  33
ENDBRANCH  30  32
ENDBRANCH  29  30
ENDBRANCH  28  29
ENDBRANCH  26  28
ENDBRANCH   5  24
TORSDOF 8
