REMARK  Name = ZINC08789385
REMARK  9 active torsions:
REMARK  status: ('A' for Active; 'I' for Inactive)
REMARK    1  A    between atoms: C_1  and  C_2
REMARK    2  A    between atoms: C_2  and  C_3
REMARK    3  A    between atoms: C_17  and  C_19
REMARK    4  A    between atoms: C_19  and  C_21
REMARK    5  A    between atoms: C_19  and  O_22
REMARK    6  A    between atoms: N_25  and  C_28
REMARK    7  A    between atoms: C_28  and  C_29
REMARK    8  A    between atoms: C_34  and  O_35
REMARK    9  A    between atoms: O_35  and  C_36
REMARK                            x       y       z     vdW  Elec       q    Type
REMARK                         _______ _______ _______ _____ _____    ______ ____
ROOT
ATOM      1  C   UNL     1       1.161   3.165   0.009  0.00  0.00    -0.026 A 
ATOM      2  C   UNL     1       1.174   1.785   0.000  0.00  0.00    +0.005 A 
ATOM      3  C   UNL     1      -0.013   1.076   0.008  0.00  0.00    +0.001 A 
ATOM      4  C   UNL     1      -1.220   1.753   0.017  0.00  0.00    +0.004 A 
ATOM      5  C   UNL     1      -1.237   3.130   0.030  0.00  0.00    -0.027 A 
ATOM      6  C   UNL     1      -0.048   3.854   0.023  0.00  0.00    +0.039 A 
ATOM      7  N   UNL     1      -0.318   5.224   0.034  0.00  0.00    -0.286 N 
ATOM      8  C   UNL     1      -1.640   5.482   0.044  0.00  0.00    +0.211 C 
ATOM      9  O   UNL     1      -2.165   6.575   0.053  0.00  0.00    -0.277 OA
ATOM     10  C   UNL     1      -2.340   4.150   0.043  0.00  0.00    +0.050 C 
ATOM     11  C   UNL     1      -3.244   3.990   1.270  0.00  0.00    +0.088 C 
ATOM     12  C   UNL     1      -4.473   3.193   0.751  0.00  0.00    +0.075 C 
ATOM     13  C   UNL     1      -4.172   2.932  -0.741  0.00  0.00    -0.028 C 
ATOM     14  C   UNL     1      -4.388   1.888   1.510  0.00  0.00    +0.224 C 
ATOM     15  O   UNL     1      -5.166   0.965   1.406  0.00  0.00    -0.275 OA
ATOM     16  N   UNL     1      -3.319   1.912   2.316  0.00  0.00    -0.237 N 
ATOM     17  C   UNL     1      -2.606   3.042   2.259  0.00  0.00    +0.225 C 
ATOM     18  O   UNL     1      -1.603   3.271   2.901  0.00  0.00    -0.275 OA
ATOM     19  H   UNL     1       0.367   5.911   0.033  0.00  0.00    +0.155 HD
ATOM     20  N   UNL     1      -3.222   3.987  -1.099  0.00  0.00    +0.396 N 
ATOM     21  H   UNL     1      -2.682   3.712  -1.929  0.00  0.00    -0.083 HD
ATOM     22  H   UNL     1      -3.721   4.864  -1.291  0.00  0.00    -0.083 HD
ENDROOT
BRANCH   1  24
ATOM     23  C   UNL     1       2.849   4.286   1.438  0.00  0.00    +0.009 C 
ATOM     24  C   UNL     1       2.461   3.928   0.002  0.00  0.00    +0.033 C 
ENDBRANCH   1  24
BRANCH  13  25
ATOM     25  C   UNL     1      -5.456   3.028  -1.568  0.00  0.00    +0.098 C 
ATOM     26  C   UNL     1      -5.135   2.766  -3.041  0.00  0.00    +0.036 C 
BRANCH  25  27
ATOM     27  O   UNL     1      -6.395   2.056  -1.105  0.00  0.00    -0.394 OA
ATOM     28  H   UNL     1      -6.081   1.143  -1.170  0.00  0.00    +0.210 HD
ENDBRANCH  25  27
ENDBRANCH  13  25
BRANCH  16  29
ATOM     29  C   UNL     1      -2.960   0.791   3.188  0.00  0.00    +0.155 C 
BRANCH  29  30
ATOM     30  C   UNL     1      -3.632   0.961   4.526  0.00  0.00    +0.012 A 
ATOM     31  C   UNL     1      -2.921   1.466   5.598  0.00  0.00    +0.009 A 
ATOM     32  C   UNL     1      -3.538   1.622   6.826  0.00  0.00    +0.001 A 
ATOM     33  C   UNL     1      -4.866   1.273   6.984  0.00  0.00    +0.004 A 
ATOM     34  C   UNL     1      -5.582   0.769   5.916  0.00  0.00    +0.046 A 
ATOM     35  C   UNL     1      -4.967   0.616   4.681  0.00  0.00    +0.125 A 
BRANCH  35  36
ATOM     36  O   UNL     1      -5.670   0.124   3.627  0.00  0.00    -0.495 OA
ATOM     37  C   UNL     1      -7.039  -0.210   3.860  0.00  0.00    +0.277 C 
ENDBRANCH  35  36
ENDBRANCH  29  30
ENDBRANCH  16  29
TORSDOF 6
