REMARK  Name = ZINC12523779
REMARK  12 active torsions:
REMARK  status: ('A' for Active; 'I' for Inactive)
REMARK    1  A    between atoms: C_1  and  C_2
REMARK    2  A    between atoms: C_2  and  N_3
REMARK    3  A    between atoms: N_3  and  C_4
REMARK    4  A    between atoms: N_3  and  C_6
REMARK    5  A    between atoms: N_3  and  C_28
REMARK    6  A    between atoms: C_4  and  C_5
REMARK    7  A    between atoms: C_6  and  C_7
REMARK    8  A    between atoms: C_7  and  N_8
REMARK    9  A    between atoms: N_8  and  P_9
REMARK   10  A    between atoms: C_12  and  C_22
REMARK   11  A    between atoms: C_14  and  C_16
REMARK   12  A    between atoms: C_28  and  C_29
REMARK                            x       y       z     vdW  Elec       q    Type
REMARK                         _______ _______ _______ _____ _____    ______ ____
ROOT
ATOM      1  N   UNL     1      -8.727   2.839   2.876  0.00  0.00    -0.262 NA
ATOM      2  H   UNL     1      -9.069   3.782   2.982  0.00  0.00    +0.130 HD
ENDROOT
BRANCH   1   3
ATOM      3  P   UNL     1      -9.345   1.835   4.078  0.00  0.00    +0.199 P 
ATOM      4  O   UNL     1      -8.864   2.273   5.407  0.00  0.00    -0.295 OA
ATOM      5  C   UNL     1      -8.857   0.101   3.768  0.00  0.00    +0.106 C 
ATOM      6  C   UNL     1      -9.829  -0.706   3.316  0.00  0.00    +0.140 C 
ATOM      7  O   UNL     1     -11.084  -0.321   3.077  0.00  0.00    -0.454 OA
ATOM      8  C   UNL     1     -11.750   0.741   3.537  0.00  0.00    +0.140 C 
ATOM      9  C   UNL     1     -11.172   1.842   4.031  0.00  0.00    +0.106 C 
BRANCH   8  10
ATOM     10  C   UNL     1     -13.229   0.697   3.497  0.00  0.00    +0.017 A 
ATOM     11  C   UNL     1     -13.974   1.777   3.970  0.00  0.00    +0.011 A 
ATOM     12  C   UNL     1     -15.353   1.732   3.926  0.00  0.00    +0.001 A 
ATOM     13  C   UNL     1     -15.996   0.615   3.424  0.00  0.00    +0.000 A 
ATOM     14  C   UNL     1     -15.262  -0.461   2.958  0.00  0.00    +0.001 A 
ATOM     15  C   UNL     1     -13.883  -0.426   2.992  0.00  0.00    +0.011 A 
ENDBRANCH   8  10
BRANCH   6  16
ATOM     16  C   UNL     1      -9.483  -2.124   3.065  0.00  0.00    +0.017 A 
ATOM     17  C   UNL     1      -8.185  -2.579   3.292  0.00  0.00    +0.011 A 
ATOM     18  C   UNL     1      -7.870  -3.903   3.061  0.00  0.00    +0.001 A 
ATOM     19  C   UNL     1      -8.838  -4.775   2.596  0.00  0.00    +0.000 A 
ATOM     20  C   UNL     1     -10.126  -4.329   2.365  0.00  0.00    +0.001 A 
ATOM     21  C   UNL     1     -10.454  -3.009   2.596  0.00  0.00    +0.011 A 
ENDBRANCH   6  16
ENDBRANCH   1   3
BRANCH   1  22
ATOM     22  C   UNL     1      -7.259   2.809   2.869  0.00  0.00    +0.070 C 
BRANCH  22  23
ATOM     23  C   UNL     1      -6.758   2.680   1.429  0.00  0.00    -0.059 C 
BRANCH  23  24
ATOM     24  N   UNL     1      -5.290   2.650   1.421  0.00  0.00    +0.385 N 
BRANCH  24  26
ATOM     25  C   UNL     1      -5.359   0.208   1.594  0.00  0.00    -0.016 C 
ATOM     26  C   UNL     1      -4.819   1.502   2.208  0.00  0.00    -0.078 C 
ENDBRANCH  24  26
BRANCH  24  27
ATOM     27  C   UNL     1      -4.772   3.892   2.011  0.00  0.00    -0.078 C 
ATOM     28  C   UNL     1      -5.261   5.088   1.192  0.00  0.00    -0.016 C 
ENDBRANCH  24  27
BRANCH  24  29
ATOM     29  C   UNL     1      -4.809   2.526   0.039  0.00  0.00    +0.000 C 
BRANCH  29  30
ATOM     30  C   UNL     1      -3.303   2.496   0.031  0.00  0.00    +0.092 A 
ATOM     31  N   UNL     1      -2.546   1.365   0.022  0.00  0.00    -0.343 N 
ATOM     32  H   UNL     1      -2.886   0.425   0.019  0.00  0.00    +0.167 HD
ATOM     33  C   UNL     1      -1.222   1.757   0.017  0.00  0.00    +0.066 A 
ATOM     34  C   UNL     1      -0.013   1.076   0.008  0.00  0.00    +0.028 A 
ATOM     35  C   UNL     1       1.170   1.784   0.001  0.00  0.00    +0.002 A 
ATOM     36  C   UNL     1       1.158   3.172   0.007  0.00  0.00    +0.002 A 
ATOM     37  C   UNL     1      -0.022   3.859   0.022  0.00  0.00    +0.030 A 
ATOM     38  C   UNL     1      -1.234   3.162   0.030  0.00  0.00    +0.089 A 
ATOM     39  N   UNL     1      -2.536   3.547   0.044  0.00  0.00    -0.234 NA
ENDBRANCH  29  30
ENDBRANCH  24  29
ENDBRANCH  23  24
ENDBRANCH  22  23
ENDBRANCH   1  22
TORSDOF 10
