REMARK  Name = ZINC35824135
REMARK  14 active torsions:
REMARK  status: ('A' for Active; 'I' for Inactive)
REMARK    1  A    between atoms: C_1  and  C_2
REMARK    2  A    between atoms: C_5  and  C_7
REMARK    3  A    between atoms: C_12  and  C_17
REMARK    4  A    between atoms: C_20  and  O_25
REMARK    5  A    between atoms: C_21  and  O_23
REMARK    6  A    between atoms: O_23  and  C_24
REMARK    7  A    between atoms: O_25  and  C_26
REMARK    8  A    between atoms: C_26  and  C_27
REMARK    9  A    between atoms: C_26  and  C_28
REMARK   10  A    between atoms: C_30  and  C_42
REMARK   11  A    between atoms: C_31  and  C_32
REMARK   12  A    between atoms: C_32  and  O_34
REMARK   13  A    between atoms: O_34  and  C_35
REMARK   14  A    between atoms: C_35  and  C_36
REMARK                            x       y       z     vdW  Elec       q    Type
REMARK                         _______ _______ _______ _____ _____    ______ ____
ROOT
ATOM      1  C   UNL     1       2.984  -2.591   0.696  0.00  0.00    +0.128 C 
ATOM      2  C   UNL     1       3.640  -2.636  -0.661  0.00  0.00    +0.027 C 
ATOM      3  C   UNL     1       4.950  -2.343  -0.803  0.00  0.00    +0.016 C 
ATOM      4  C   UNL     1       5.611  -2.374  -2.159  0.00  0.00    +0.059 C 
ATOM      5  C   UNL     1       4.928  -3.422  -3.040  0.00  0.00    +0.032 C 
ATOM      6  C   UNL     1       3.441  -3.070  -3.151  0.00  0.00    +0.088 C 
ATOM      7  C   UNL     1       2.852  -2.992  -1.769  0.00  0.00    +0.162 C 
ATOM      8  O   UNL     1       1.673  -3.240  -1.608  0.00  0.00    -0.292 OA
ATOM      9  N   UNL     1       5.711  -2.013   0.286  0.00  0.00    -0.321 N 
ATOM     10  C   UNL     1       5.299  -2.340   1.548  0.00  0.00    +0.016 C 
ATOM     11  C   UNL     1       4.010  -2.626   1.790  0.00  0.00    +0.068 C 
ATOM     12  C   UNL     1       6.299  -2.378   2.675  0.00  0.00    +0.061 C 
ATOM     13  H   UNL     1       6.550  -1.543   0.162  0.00  0.00    +0.152 HD
ENDROOT
BRANCH   1  18
ATOM     14  C   UNL     1       1.796   2.308   0.861  0.00  0.00    +0.086 C 
ATOM     15  C   UNL     1       1.662   0.808   0.886  0.00  0.00    +0.102 A 
ATOM     16  C   UNL     1       0.517   0.123   1.062  0.00  0.00    +0.044 A 
ATOM     17  C   UNL     1       0.850  -1.250   1.016  0.00  0.00    +0.046 A 
ATOM     18  C   UNL     1       2.178  -1.323   0.814  0.00  0.00    +0.117 A 
ATOM     19  O   UNL     1       2.663  -0.073   0.730  0.00  0.00    -0.464 OA
ENDBRANCH   1  18
BRANCH   5  20
ATOM     20  C   UNL     1       5.557  -3.421  -4.409  0.00  0.00    -0.040 A 
ATOM     21  C   UNL     1       5.536  -2.271  -5.176  0.00  0.00    +0.008 A 
ATOM     22  C   UNL     1       6.111  -2.264  -6.433  0.00  0.00    +0.050 A 
ATOM     23  C   UNL     1       6.712  -3.411  -6.927  0.00  0.00    +0.162 A 
ATOM     24  C   UNL     1       6.733  -4.569  -6.154  0.00  0.00    +0.162 A 
ATOM     25  C   UNL     1       6.159  -4.567  -4.894  0.00  0.00    +0.053 A 
BRANCH  24  26
ATOM     26  O   UNL     1       7.321  -5.697  -6.634  0.00  0.00    -0.491 OA
ATOM     27  C   UNL     1       7.306  -6.848  -5.787  0.00  0.00    +0.277 C 
ENDBRANCH  24  26
BRANCH  23  28
ATOM     28  O   UNL     1       7.278  -3.406  -8.163  0.00  0.00    -0.486 OA
BRANCH  28  29
ATOM     29  C   UNL     1       7.114  -2.223  -8.947  0.00  0.00    +0.167 C 
ATOM     30  C   UNL     1       8.200  -1.211  -8.575  0.00  0.00    +0.051 C 
ATOM     31  C   UNL     1       7.232  -2.574 -10.432  0.00  0.00    +0.051 C 
ENDBRANCH  28  29
ENDBRANCH  23  28
ENDBRANCH   5  20
BRANCH  11  32
ATOM     32  C   UNL     1       3.611  -2.968   3.104  0.00  0.00    +0.338 C 
ATOM     33  O   UNL     1       4.434  -3.001   4.000  0.00  0.00    -0.245 OA
BRANCH  32  34
ATOM     34  O   UNL     1       2.319  -3.259   3.363  0.00  0.00    -0.459 OA
BRANCH  34  35
ATOM     35  C   UNL     1       1.988  -3.595   4.712  0.00  0.00    +0.264 C 
BRANCH  35  36
ATOM     36  C   UNL     1       0.490  -3.891   4.810  0.00  0.00    +0.156 C 
ATOM     37  C   UNL     1       0.100  -4.137   6.283  0.00  0.00    +0.037 C 
ATOM     38  C   UNL     1      -0.924  -5.299   6.163  0.00  0.00    +0.031 C 
ATOM     39  C   UNL     1      -0.339  -6.084   4.963  0.00  0.00    +0.160 C 
ATOM     40  O   UNL     1       0.179  -5.079   4.073  0.00  0.00    -0.373 OA
ENDBRANCH  35  36
ENDBRANCH  34  35
ENDBRANCH  32  34
ENDBRANCH  11  32
TORSDOF 9
