REMARK  Name = ZINC13174272
REMARK  8 active torsions:
REMARK  status: ('A' for Active; 'I' for Inactive)
REMARK    1  A    between atoms: C_1  and  C_2
REMARK    2  A    between atoms: N_4  and  C_5
REMARK    3  A    between atoms: C_8  and  N_11
REMARK    4  A    between atoms: C_12  and  C_14
REMARK    5  A    between atoms: C_14  and  S_15
REMARK    6  A    between atoms: S_15  and  C_16
REMARK    7  A    between atoms: C_17  and  C_33
REMARK    8  A    between atoms: C_18  and  C_28
REMARK                            x       y       z     vdW  Elec       q    Type
REMARK                         _______ _______ _______ _____ _____    ______ ____
ROOT
ATOM      1  C   UNL     1      -3.002 -10.989  -0.249  0.00  0.00    +0.080 C 
ATOM      2  C   UNL     1      -4.033 -11.866  -0.381  0.00  0.00    +0.072 C 
ATOM      3  C   UNL     1      -3.788 -13.344  -0.447  0.00  0.00    +0.132 C 
ATOM      4  C   UNL     1      -2.416 -13.692   0.073  0.00  0.00    +0.027 C 
ATOM      5  C   UNL     1      -1.455 -12.750   0.180  0.00  0.00    +0.016 C 
ATOM      6  N   UNL     1      -1.709 -11.451  -0.173  0.00  0.00    -0.311 N 
ATOM      7  C   UNL     1      -0.076 -13.101   0.682  0.00  0.00    +0.051 C 
ATOM      8  C   UNL     1      -0.170 -14.257   1.680  0.00  0.00    +0.014 C 
ATOM      9  C   UNL     1      -0.829 -15.450   0.980  0.00  0.00    +0.080 C 
ATOM     10  C   UNL     1      -2.168 -15.025   0.443  0.00  0.00    +0.162 C 
ATOM     11  O   UNL     1      -3.052 -15.850   0.327  0.00  0.00    -0.292 OA
ATOM     12  H   UNL     1      -0.972 -10.851  -0.367  0.00  0.00    +0.152 HD
ENDROOT
BRANCH   3  13
ATOM     13  C   UNL     1      -4.825 -14.055   0.384  0.00  0.00    +0.117 A 
ATOM     14  C   UNL     1      -5.702 -14.970  -0.066  0.00  0.00    +0.045 A 
ATOM     15  C   UNL     1      -6.481 -15.372   1.043  0.00  0.00    +0.041 A 
ATOM     16  C   UNL     1      -6.032 -14.679   2.106  0.00  0.00    +0.195 A 
ATOM     17  O   UNL     1      -5.026 -13.887   1.702  0.00  0.00    -0.467 OA
ENDBRANCH   3  13
BRANCH   2  18
ATOM     18  C   UNL     1      -5.375 -11.370  -0.456  0.00  0.00    +0.098 C 
ATOM     19  N   UNL     1      -6.439 -10.977  -0.516  0.00  0.00    -0.191 NA
ENDBRANCH   2  18
BRANCH   1  20
ATOM     20  S   UNL     1      -3.323  -9.257  -0.183  0.00  0.00    -0.100 S 
BRANCH  20  21
ATOM     21  C   UNL     1      -1.678  -8.512  -0.017  0.00  0.00    +0.171 C 
BRANCH  21  23
ATOM     22  N   UNL     1      -0.710  -6.244   0.177  0.00  0.00    -0.285 N 
ATOM     23  C   UNL     1      -1.810  -7.012   0.052  0.00  0.00    +0.227 C 
ATOM     24  O   UNL     1      -2.906  -6.497  -0.006  0.00  0.00    -0.275 OA
ATOM     25  H   UNL     1       0.160  -6.657   0.291  0.00  0.00    +0.155 HD
BRANCH  22  29
ATOM     26  C   UNL     1      -1.047  -2.089   0.076  0.00  0.00    +0.033 A 
ATOM     27  C   UNL     1       0.068  -2.709  -0.474  0.00  0.00    +0.025 A 
ATOM     28  C   UNL     1       0.179  -4.084  -0.440  0.00  0.00    +0.025 A 
ATOM     29  C   UNL     1      -0.823  -4.848   0.143  0.00  0.00    +0.034 A 
ATOM     30  C   UNL     1      -1.938  -4.228   0.693  0.00  0.00    +0.025 A 
ATOM     31  C   UNL     1      -2.047  -2.853   0.664  0.00  0.00    +0.025 A 
BRANCH  26  35
ATOM     32  C   UNL     1      -1.766   1.468   1.081  0.00  0.00    +0.109 C 
ATOM     33  C   UNL     1      -1.737  -0.038   1.069  0.00  0.00    +0.214 C 
ATOM     34  O   UNL     1      -2.232  -0.662   1.984  0.00  0.00    -0.276 OA
ATOM     35  N   UNL     1      -1.161  -0.693   0.042  0.00  0.00    -0.286 N 
ATOM     36  H   UNL     1      -0.824  -0.198  -0.722  0.00  0.00    +0.155 HD
ENDBRANCH  26  35
ENDBRANCH  22  29
ENDBRANCH  21  23
ENDBRANCH  20  21
ENDBRANCH   1  20
TORSDOF 7
