REMARK  Name = ZINC26577661
REMARK  11 active torsions:
REMARK  status: ('A' for Active; 'I' for Inactive)
REMARK    1  A    between atoms: C_1  and  C_2
REMARK    2  A    between atoms: C_2  and  N_3
REMARK    3  A    between atoms: C_4  and  C_6
REMARK    4  A    between atoms: C_7  and  C_32
REMARK    5  A    between atoms: C_9  and  C_26
REMARK    6  A    between atoms: C_10  and  C_21
REMARK    7  A    between atoms: C_11  and  C_13
REMARK    8  A    between atoms: C_14  and  C_15
REMARK    9  A    between atoms: C_21  and  O_23
REMARK   10  A    between atoms: O_23  and  C_24
REMARK   11  A    between atoms: C_24  and  C_25
REMARK                            x       y       z     vdW  Elec       q    Type
REMARK                         _______ _______ _______ _____ _____    ______ ____
ROOT
ATOM      1  C   UNL     1      -4.814   5.930   1.318  0.00  0.00    +0.050 C 
ATOM      2  C   UNL     1      -5.998   6.323   1.812  0.00  0.00    +0.015 C 
ATOM      3  N   UNL     1      -7.158   5.691   1.453  0.00  0.00    -0.317 N 
ATOM      4  C   UNL     1      -7.115   4.439   0.880  0.00  0.00    +0.050 C 
ATOM      5  C   UNL     1      -5.960   3.967   0.341  0.00  0.00    +0.077 C 
ATOM      6  C   UNL     1      -4.703   4.791   0.345  0.00  0.00    +0.139 C 
ATOM      7  C   UNL     1      -6.052   7.478   2.778  0.00  0.00    +0.061 C 
ATOM      8  H   UNL     1      -8.127   6.182   1.622  0.00  0.00    +0.152 HD
ENDROOT
BRANCH   4   9
ATOM      9  C   UNL     1      -8.333   3.605   0.851  0.00  0.00    -0.003 A 
ATOM     10  C   UNL     1      -8.931   3.280  -0.369  0.00  0.00    +0.010 A 
ATOM     11  C   UNL     1     -10.066   2.495  -0.389  0.00  0.00    +0.001 A 
ATOM     12  C   UNL     1     -10.617   2.039   0.796  0.00  0.00    +0.000 A 
ATOM     13  C   UNL     1     -10.032   2.362   2.007  0.00  0.00    +0.001 A 
ATOM     14  C   UNL     1      -8.894   3.141   2.042  0.00  0.00    +0.010 A 
ENDBRANCH   4   9
BRANCH   1  16
ATOM     15  N   UNL     1      -3.172   6.452   2.979  0.00  0.00    -0.312 N 
ATOM     16  C   UNL     1      -3.638   6.606   1.724  0.00  0.00    +0.243 C 
ATOM     17  O   UNL     1      -3.049   7.327   0.940  0.00  0.00    -0.270 OA
ATOM     18  H   UNL     1      -3.749   5.870   3.713  0.00  0.00    +0.149 HD
BRANCH  15  20
ATOM     19  C   UNL     1      -1.542   6.634   4.793  0.00  0.00    +0.024 C 
ATOM     20  C   UNL     1      -1.896   7.059   3.367  0.00  0.00    +0.101 C 
ENDBRANCH  15  20
ENDBRANCH   1  16
BRANCH   6  21
ATOM     21  C   UNL     1      -3.566   3.938   0.726  0.00  0.00    -0.084 C 
ATOM     22  C   UNL     1      -2.659   3.257   1.030  0.00  0.00    -0.065 C 
BRANCH  22  23
ATOM     23  C   UNL     1      -1.552   2.427   1.401  0.00  0.00    +0.025 A 
ATOM     24  C   UNL     1      -1.754   1.076   1.684  0.00  0.00    +0.017 A 
ATOM     25  C   UNL     1      -0.684   0.283   2.046  0.00  0.00    +0.001 A 
ATOM     26  C   UNL     1       0.587   0.823   2.119  0.00  0.00    +0.000 A 
ATOM     27  C   UNL     1       0.795   2.161   1.835  0.00  0.00    +0.001 A 
ATOM     28  C   UNL     1      -0.267   2.966   1.477  0.00  0.00    +0.017 A 
ENDBRANCH  22  23
ENDBRANCH   6  21
BRANCH   5  29
ATOM     29  C   UNL     1      -5.940   2.680  -0.231  0.00  0.00    +0.338 C 
ATOM     30  O   UNL     1      -6.913   1.955  -0.132  0.00  0.00    -0.245 OA
BRANCH  29  31
ATOM     31  O   UNL     1      -4.842   2.250  -0.889  0.00  0.00    -0.462 OA
BRANCH  31  32
ATOM     32  C   UNL     1      -4.892   0.934  -1.444  0.00  0.00    +0.229 C 
ATOM     33  C   UNL     1      -3.568   0.627  -2.146  0.00  0.00    +0.048 C 
ENDBRANCH  31  32
ENDBRANCH  29  31
ENDBRANCH   5  29
TORSDOF 8
