REMARK  Name = ZINC59782508
REMARK  8 active torsions:
REMARK  status: ('A' for Active; 'I' for Inactive)
REMARK    1  A    between atoms: C_1  and  O_2
REMARK    2  A    between atoms: O_2  and  C_3
REMARK    3  A    between atoms: C_8  and  C_9
REMARK    4  A    between atoms: C_9  and  C_11
REMARK    5  A    between atoms: C_9  and  N_22
REMARK    6  A    between atoms: C_11  and  N_12
REMARK    7  A    between atoms: C_13  and  C_15
REMARK    8  A    between atoms: C_20  and  O_21
REMARK                            x       y       z     vdW  Elec       q    Type
REMARK                         _______ _______ _______ _____ _____    ______ ____
ROOT
ATOM      1  C   UNL     1       0.038  -2.838  -0.041  0.00  0.00    -0.017 C 
ENDROOT
BRANCH   1   2
ATOM      2  N   UNL     1       0.699  -4.145  -0.154  0.00  0.00    +0.385 N 
ATOM      3  C   UNL     1       0.034  -5.106   0.734  0.00  0.00    -0.078 C 
ATOM      4  C   UNL     1       0.665  -6.489   0.560  0.00  0.00    -0.019 C 
ATOM      5  C   UNL     1       2.154  -6.413   0.910  0.00  0.00    -0.004 C 
ATOM      6  C   UNL     1       2.822  -5.354   0.028  0.00  0.00    -0.019 C 
ATOM      7  C   UNL     1       2.111  -4.013   0.223  0.00  0.00    -0.078 C 
ATOM      8  H   UNL     1       0.635  -4.471  -1.107  0.00  0.00    -0.081 HD
ENDBRANCH   1   2
BRANCH   1  14
ATOM      9  C   UNL     1       0.598  -0.513  -0.793  0.00  0.00    +0.122 A 
ATOM     10  C   UNL     1       1.167   0.368  -1.703  0.00  0.00    +0.046 A 
ATOM     11  C   UNL     1       1.780  -0.118  -2.841  0.00  0.00    +0.004 A 
ATOM     12  C   UNL     1       1.826  -1.480  -3.076  0.00  0.00    +0.000 A 
ATOM     13  C   UNL     1       1.259  -2.359  -2.172  0.00  0.00    +0.005 A 
ATOM     14  C   UNL     1       0.650  -1.879  -1.029  0.00  0.00    -0.018 A 
BRANCH   9  16
ATOM     15  C   UNL     1      -0.021   1.380   0.505  0.00  0.00    +0.277 C 
ATOM     16  O   UNL     1      -0.005  -0.038   0.328  0.00  0.00    -0.495 OA
ENDBRANCH   9  16
ENDBRANCH   1  14
BRANCH   1  17
ATOM     17  C   UNL     1      -1.454  -2.993  -0.338  0.00  0.00    +0.094 C 
BRANCH  17  18
ATOM     18  N   UNL     1      -1.629  -3.636  -1.642  0.00  0.00    -0.312 N 
ATOM     19  C   UNL     1      -2.864  -3.788  -2.159  0.00  0.00    +0.248 C 
ATOM     20  O   UNL     1      -3.834  -3.392  -1.542  0.00  0.00    -0.270 OA
ATOM     21  H   UNL     1      -0.855  -3.953  -2.134  0.00  0.00    +0.149 HD
BRANCH  19  22
ATOM     22  C   UNL     1      -3.039  -4.436  -3.473  0.00  0.00    +0.078 A 
ATOM     23  C   UNL     1      -1.928  -4.899  -4.182  0.00  0.00    +0.017 A 
ATOM     24  C   UNL     1      -2.099  -5.504  -5.408  0.00  0.00    +0.001 A 
ATOM     25  C   UNL     1      -3.368  -5.656  -5.942  0.00  0.00    +0.004 A 
ATOM     26  C   UNL     1      -4.475  -5.203  -5.252  0.00  0.00    +0.046 A 
ATOM     27  C   UNL     1      -4.322  -4.597  -4.014  0.00  0.00    +0.129 A 
BRANCH  27  28
ATOM     28  O   UNL     1      -5.409  -4.156  -3.332  0.00  0.00    -0.506 OA
ATOM     29  H   UNL     1      -5.655  -3.243  -3.531  0.00  0.00    +0.292 HD
ENDBRANCH  27  28
ENDBRANCH  19  22
ENDBRANCH  17  18
ENDBRANCH   1  17
TORSDOF 7
