REMARK  Name = ZINC35992080
REMARK  10 active torsions:
REMARK  status: ('A' for Active; 'I' for Inactive)
REMARK    1  A    between atoms: C_1  and  C_2
REMARK    2  A    between atoms: C_2  and  O_3
REMARK    3  A    between atoms: O_3  and  C_4
REMARK    4  A    between atoms: C_4  and  C_6
REMARK    5  A    between atoms: C_7  and  C_22
REMARK    6  A    between atoms: N_8  and  C_21
REMARK    7  A    between atoms: C_12  and  C_14
REMARK    8  A    between atoms: C_22  and  N_23
REMARK    9  A    between atoms: C_27  and  C_30
REMARK   10  A    between atoms: C_31  and  C_33
REMARK                            x       y       z     vdW  Elec       q    Type
REMARK                         _______ _______ _______ _____ _____    ______ ____
ROOT
ATOM      1  C   UNL     1       1.023  -2.120  -0.035  0.00  0.00    +0.080 C 
ATOM      2  C   UNL     1       1.390  -3.295  -0.590  0.00  0.00    +0.041 C 
ATOM      3  N   UNL     1       2.168  -3.333  -1.711  0.00  0.00    -0.260 N 
ATOM      4  C   UNL     1       2.621  -2.240  -2.338  0.00  0.00    +0.307 C 
ATOM      5  O   UNL     1       3.308  -2.373  -3.331  0.00  0.00    -0.252 OA
ATOM      6  N   UNL     1       2.338  -0.995  -1.904  0.00  0.00    -0.288 N 
ATOM      7  C   UNL     1       1.499  -0.846  -0.703  0.00  0.00    +0.144 C 
ATOM      8  C   UNL     1       2.529  -4.643  -2.259  0.00  0.00    +0.139 C 
ATOM      9  H   UNL     1       2.677  -0.217  -2.373  0.00  0.00    +0.151 HD
ENDROOT
BRANCH   7  10
ATOM     10  C   UNL     1       0.285  -0.035  -1.077  0.00  0.00    -0.022 A 
ATOM     11  C   UNL     1      -0.433  -0.352  -2.215  0.00  0.00    +0.008 A 
ATOM     12  C   UNL     1      -1.547   0.390  -2.559  0.00  0.00    +0.038 A 
ATOM     13  C   UNL     1      -1.944   1.451  -1.763  0.00  0.00    +0.123 A 
ATOM     14  C   UNL     1      -1.224   1.767  -0.623  0.00  0.00    +0.038 A 
ATOM     15  C   UNL     1      -0.114   1.020  -0.279  0.00  0.00    +0.008 A 
ATOM     16  F   UNL     1      -3.033   2.177  -2.098  0.00  0.00    -0.205 F 
ENDBRANCH   7  10
BRANCH   1  17
ATOM     17  C   UNL     1       0.216  -2.079   1.126  0.00  0.00    +0.339 C 
ATOM     18  O   UNL     1      -0.978  -1.868   1.030  0.00  0.00    -0.245 OA
BRANCH  17  19
ATOM     19  O   UNL     1       0.772  -2.275   2.341  0.00  0.00    -0.462 OA
BRANCH  19  21
ATOM     20  C   UNL     1       0.702  -2.464   4.749  0.00  0.00    +0.048 C 
ATOM     21  C   UNL     1      -0.102  -2.221   3.470  0.00  0.00    +0.229 C 
ENDBRANCH  19  21
ENDBRANCH  17  19
ENDBRANCH   1  17
BRANCH   2  22
ATOM     22  C   UNL     1       0.934  -4.586   0.040  0.00  0.00    +0.136 C 
BRANCH  22  23
ATOM     23  N   UNL     1       0.026  -5.285  -0.880  0.00  0.00    -0.294 NA
ATOM     24  C   UNL     1      -1.215  -4.525  -1.074  0.00  0.00    +0.104 C 
ATOM     25  C   UNL     1      -2.052  -5.191  -2.171  0.00  0.00    +0.124 C 
ATOM     26  N   UNL     1      -2.239  -6.607  -1.822  0.00  0.00    -0.292 N 
ATOM     27  C   UNL     1      -1.049  -7.402  -1.480  0.00  0.00    +0.087 C 
ATOM     28  C   UNL     1      -0.252  -6.649  -0.410  0.00  0.00    +0.107 C 
ATOM     29  C   UNL     1      -1.481  -8.767  -0.940  0.00  0.00    +0.029 C 
ATOM     30  C   UNL     1      -3.467  -7.162  -1.816  0.00  0.00    +0.247 C 
ATOM     31  O   UNL     1      -3.616  -8.303  -1.422  0.00  0.00    -0.270 OA
BRANCH  30  32
ATOM     32  C   UNL     1      -4.631  -6.385  -2.288  0.00  0.00    +0.037 A 
ATOM     33  C   UNL     1      -4.461  -5.375  -3.237  0.00  0.00    +0.016 A 
ATOM     34  C   UNL     1      -5.551  -4.653  -3.674  0.00  0.00    +0.039 A 
ATOM     35  C   UNL     1      -6.814  -4.928  -3.172  0.00  0.00    +0.123 A 
ATOM     36  C   UNL     1      -6.988  -5.929  -2.229  0.00  0.00    +0.039 A 
ATOM     37  C   UNL     1      -5.906  -6.662  -1.790  0.00  0.00    +0.016 A 
ATOM     38  F   UNL     1      -7.879  -4.216  -3.603  0.00  0.00    -0.205 F 
ENDBRANCH  30  32
ENDBRANCH  22  23
ENDBRANCH   2  22
TORSDOF 7
