REMARK  Name = ZINC35099351
REMARK  7 active torsions:
REMARK  status: ('A' for Active; 'I' for Inactive)
REMARK    1  A    between atoms: C_1  and  O_2
REMARK    2  A    between atoms: O_2  and  C_3
REMARK    3  A    between atoms: C_6  and  C_9
REMARK    4  A    between atoms: C_9  and  O_33
REMARK    5  A    between atoms: C_10  and  C_27
REMARK    6  A    between atoms: C_12  and  C_18
REMARK    7  A    between atoms: C_27  and  C_29
REMARK                            x       y       z     vdW  Elec       q    Type
REMARK                         _______ _______ _______ _____ _____    ______ ____
ROOT
ATOM      1  C   UNL     1      -4.981  -2.629   0.035  0.00  0.00    +0.172 C 
ATOM      2  C   UNL     1      -5.390  -2.970  -1.402  0.00  0.00    +0.144 C 
ATOM      3  C   UNL     1      -6.797  -3.578  -1.378  0.00  0.00    +0.120 C 
ATOM      4  N   UNL     1      -7.709  -2.648  -0.710  0.00  0.00    -0.292 N 
ATOM      5  C   UNL     1      -7.276  -1.806   0.239  0.00  0.00    +0.302 C 
ATOM      6  O   UNL     1      -8.077  -1.062   0.770  0.00  0.00    -0.253 OA
ATOM      7  N   UNL     1      -5.992  -1.752   0.626  0.00  0.00    -0.267 N 
ATOM      8  H   UNL     1      -8.647  -2.642  -0.959  0.00  0.00    +0.151 HD
ATOM      9  H   UNL     1      -5.729  -1.118   1.312  0.00  0.00    +0.153 HD
ENDROOT
BRANCH   3  10
ATOM     10  C   UNL     1      -7.265  -3.818  -2.790  0.00  0.00    -0.023 A 
ATOM     11  C   UNL     1      -7.763  -2.769  -3.540  0.00  0.00    +0.009 A 
ATOM     12  C   UNL     1      -8.194  -2.985  -4.835  0.00  0.00    +0.050 A 
ATOM     13  C   UNL     1      -8.128  -4.255  -5.385  0.00  0.00    +0.166 A 
ATOM     14  C   UNL     1      -7.627  -5.312  -4.630  0.00  0.00    +0.167 A 
ATOM     15  C   UNL     1      -7.192  -5.087  -3.334  0.00  0.00    +0.055 A 
ATOM     16  O   UNL     1      -7.667  -6.447  -5.387  0.00  0.00    -0.453 OA
ATOM     17  C   UNL     1      -8.573  -6.157  -6.468  0.00  0.00    +0.466 C 
ATOM     18  O   UNL     1      -8.482  -4.728  -6.616  0.00  0.00    -0.453 OA
ENDBRANCH   3  10
BRANCH   1  22
ATOM     19  C   UNL     1      -1.200  -0.637   0.010  0.00  0.00    +0.120 A 
ATOM     20  C   UNL     1      -2.375   0.101   0.019  0.00  0.00    +0.046 A 
ATOM     21  C   UNL     1      -3.596  -0.545   0.027  0.00  0.00    +0.012 A 
ATOM     22  C   UNL     1      -3.648  -1.927   0.026  0.00  0.00    +0.003 A 
ATOM     23  C   UNL     1      -2.479  -2.665   0.017  0.00  0.00    +0.012 A 
ATOM     24  C   UNL     1      -1.255  -2.024   0.003  0.00  0.00    +0.046 A 
BRANCH  19  26
ATOM     25  C   UNL     1      -0.017   1.425   0.010  0.00  0.00    +0.277 C 
ATOM     26  O   UNL     1       0.002  -0.004   0.002  0.00  0.00    -0.495 OA
ENDBRANCH  19  26
ENDBRANCH   1  22
BRANCH   2  27
ATOM     27  C   UNL     1      -5.390  -1.717  -2.239  0.00  0.00    +0.245 C 
ATOM     28  O   UNL     1      -5.545  -0.641  -1.715  0.00  0.00    -0.287 OA
BRANCH  27  29
ATOM     29  C   UNL     1      -5.196  -1.808  -3.731  0.00  0.00    +0.451 C 
ATOM     30  F   UNL     1      -4.055  -1.086  -4.098  0.00  0.00    -0.163 F 
ATOM     31  F   UNL     1      -5.038  -3.148  -4.100  0.00  0.00    -0.163 F 
ATOM     32  F   UNL     1      -6.314  -1.274  -4.380  0.00  0.00    -0.163 F 
ENDBRANCH  27  29
ENDBRANCH   2  27
BRANCH   1  33
ATOM     33  O   UNL     1      -4.883  -3.830   0.803  0.00  0.00    -0.367 OA
ATOM     34  H   UNL     1      -4.630  -3.688   1.725  0.00  0.00    +0.212 HD
ENDBRANCH   1  33
TORSDOF 6
