REMARK  Name = ZINC09672224
REMARK  9 active torsions:
REMARK  status: ('A' for Active; 'I' for Inactive)
REMARK    1  A    between atoms: C_4  and  C_19
REMARK    2  A    between atoms: C_5  and  C_7
REMARK    3  A    between atoms: C_7  and  S_8
REMARK    4  A    between atoms: S_8  and  C_9
REMARK    5  A    between atoms: C_19  and  O_21
REMARK    6  A    between atoms: O_21  and  C_22
REMARK    7  A    between atoms: C_22  and  C_23
REMARK    8  A    between atoms: N_25  and  C_26
REMARK    9  A    between atoms: C_26  and  C_32
REMARK                            x       y       z     vdW  Elec       q    Type
REMARK                         _______ _______ _______ _____ _____    ______ ____
ROOT
ATOM      1  C   UNL     1      -2.350   1.243  -2.954  0.00  0.00    +0.000 A 
ATOM      2  C   UNL     1      -2.245   2.576  -3.311  0.00  0.00    +0.001 A 
ATOM      3  C   UNL     1      -1.311   3.385  -2.700  0.00  0.00    +0.015 A 
ATOM      4  C   UNL     1      -0.469   2.857  -1.719  0.00  0.00    +0.063 A 
ATOM      5  C   UNL     1      -0.580   1.512  -1.364  0.00  0.00    -0.023 A 
ATOM      6  C   UNL     1      -1.515   0.712  -1.987  0.00  0.00    +0.005 A 
ENDROOT
BRANCH   4   7
ATOM      7  C   UNL     1       0.535   3.718  -1.061  0.00  0.00    +0.340 C 
ATOM      8  O   UNL     1       1.190   3.287  -0.133  0.00  0.00    -0.245 OA
BRANCH   7   9
ATOM      9  O   UNL     1       0.724   4.981  -1.490  0.00  0.00    -0.452 OA
BRANCH   9  10
ATOM     10  C   UNL     1       1.727   5.770  -0.796  0.00  0.00    +0.328 C 
BRANCH  10  11
ATOM     11  C   UNL     1       1.798   7.144  -1.409  0.00  0.00    +0.252 C 
ATOM     12  O   UNL     1       1.074   7.431  -2.339  0.00  0.00    -0.272 OA
ATOM     13  N   UNL     1       2.665   8.055  -0.924  0.00  0.00    -0.295 N 
ATOM     14  H   UNL     1       3.244   7.825  -0.180  0.00  0.00    +0.150 HD
BRANCH  13  15
ATOM     15  C   UNL     1       2.733   9.391  -1.520  0.00  0.00    +0.121 C 
ATOM     16  C   UNL     1       3.111   9.272  -2.998  0.00  0.00    +0.041 C 
ATOM     17  C   UNL     1       3.183  10.668  -3.621  0.00  0.00    +0.003 C 
ATOM     18  C   UNL     1       4.239  11.498  -2.890  0.00  0.00    +0.000 C 
ATOM     19  C   UNL     1       3.862  11.618  -1.412  0.00  0.00    +0.003 C 
ATOM     20  C   UNL     1       3.790  10.222  -0.789  0.00  0.00    +0.041 C 
BRANCH  15  21
ATOM     21  C   UNL     1       1.422  10.050  -1.401  0.00  0.00    +0.088 C 
ATOM     22  N   UNL     1       0.411  10.558  -1.308  0.00  0.00    -0.194 NA
ENDBRANCH  15  21
ENDBRANCH  13  15
ENDBRANCH  10  11
ENDBRANCH   9  10
ENDBRANCH   7   9
ENDBRANCH   4   7
BRANCH   5  23
ATOM     23  C   UNL     1       0.324   0.933  -0.306  0.00  0.00    +0.113 C 
BRANCH  23  24
ATOM     24  S   UNL     1      -0.356   1.293   1.332  0.00  0.00    -0.083 S 
BRANCH  24  25
ATOM     25  C   UNL     1       0.864   0.525   2.345  0.00  0.00    +0.168 A 
ATOM     26  N   UNL     1       0.845   0.494   3.711  0.00  0.00    -0.333 N 
ATOM     27  H   UNL     1       0.147   0.897   4.304  0.00  0.00    +0.168 HD
ATOM     28  C   UNL     1       1.971  -0.199   4.123  0.00  0.00    +0.067 A 
ATOM     29  C   UNL     1       2.486  -0.548   5.362  0.00  0.00    +0.028 A 
ATOM     30  C   UNL     1       3.664  -1.262   5.440  0.00  0.00    +0.002 A 
ATOM     31  C   UNL     1       4.338  -1.634   4.286  0.00  0.00    +0.002 A 
ATOM     32  C   UNL     1       3.841  -1.296   3.047  0.00  0.00    +0.030 A 
ATOM     33  C   UNL     1       2.650  -0.572   2.951  0.00  0.00    +0.090 A 
ATOM     34  N   UNL     1       1.923  -0.107   1.901  0.00  0.00    -0.222 NA
ENDBRANCH  24  25
ENDBRANCH  23  24
ENDBRANCH   5  23
TORSDOF 9
