REMARK  Name = ZINC20205977
REMARK  9 active torsions:
REMARK  status: ('A' for Active; 'I' for Inactive)
REMARK    1  A    between atoms: C_1  and  C_2
REMARK    2  A    between atoms: C_7  and  C_8
REMARK    3  A    between atoms: C_8  and  O_9
REMARK    4  A    between atoms: O_9  and  C_10
REMARK    5  A    between atoms: C_13  and  C_18
REMARK    6  A    between atoms: C_15  and  O_16
REMARK    7  A    between atoms: O_16  and  C_17
REMARK    8  A    between atoms: C_29  and  S_30
REMARK    9  A    between atoms: S_30  and  C_33
REMARK                            x       y       z     vdW  Elec       q    Type
REMARK                         _______ _______ _______ _____ _____    ______ ____
ROOT
ATOM      1  C   UNL     1       0.290   1.372   8.667  0.00  0.00    +0.024 C 
ATOM      2  C   UNL     1      -0.291   0.687   9.710  0.00  0.00    +0.078 C 
ATOM      3  C   UNL     1      -0.337   1.247  11.092  0.00  0.00    +0.117 C 
ATOM      4  N   UNL     1      -0.434   2.524  11.348  0.00  0.00    -0.386 N 
ATOM      5  N   UNL     1      -0.266   0.258  12.094  0.00  0.00    -0.203 N 
ATOM      6  C   UNL     1      -0.649  -1.028  11.775  0.00  0.00    +0.183 C 
ATOM      7  N   UNL     1      -0.989  -1.472  10.586  0.00  0.00    -0.152 NA
ATOM      8  C   UNL     1      -0.913  -0.647   9.522  0.00  0.00    +0.273 C 
ATOM      9  O   UNL     1      -1.339  -0.989   8.431  0.00  0.00    -0.268 OA
ATOM     10  S   UNL     1      -0.547  -1.829  13.233  0.00  0.00    +0.049 S 
ATOM     11  N   UNL     1       0.066  -0.590  14.182  0.00  0.00    -0.174 NA
ATOM     12  C   UNL     1       0.136   0.424  13.376  0.00  0.00    +0.257 C 
ATOM     13  H   UNL     1      -0.382   3.168  10.625  0.00  0.00    +0.157 HD
ATOM     14  H   UNL     1      -0.559   2.827  12.260  0.00  0.00    +0.157 HD
ENDROOT
BRANCH   1  18
ATOM     15  C   UNL     1       0.848  -0.534   4.921  0.00  0.00    +0.162 A 
ATOM     16  C   UNL     1       0.444   0.794   4.970  0.00  0.00    +0.050 A 
ATOM     17  C   UNL     1       0.262   1.418   6.184  0.00  0.00    +0.012 A 
ATOM     18  C   UNL     1       0.483   0.712   7.374  0.00  0.00    -0.021 A 
ATOM     19  C   UNL     1       0.890  -0.629   7.323  0.00  0.00    +0.057 A 
ATOM     20  C   UNL     1       1.065  -1.247   6.101  0.00  0.00    +0.162 A 
BRANCH  20  21
ATOM     21  O   UNL     1       1.454  -2.549   6.048  0.00  0.00    -0.491 OA
ATOM     22  C   UNL     1       1.658  -3.217   7.294  0.00  0.00    +0.277 C 
ENDBRANCH  20  21
BRANCH  15  23
ATOM     23  O   UNL     1       1.026  -1.144   3.721  0.00  0.00    -0.484 OA
BRANCH  23  24
ATOM     24  C   UNL     1       0.787  -0.357   2.552  0.00  0.00    +0.265 C 
BRANCH  24  31
ATOM     25  C   UNL     1       0.434   0.793  -0.074  0.00  0.00    +0.044 C 
ATOM     26  C   UNL     1       0.864  -0.644   0.067  0.00  0.00    -0.044 A 
ATOM     27  C   UNL     1       1.096  -1.411  -1.060  0.00  0.00    +0.004 A 
ATOM     28  C   UNL     1       1.491  -2.729  -0.930  0.00  0.00    +0.000 A 
ATOM     29  C   UNL     1       1.654  -3.280   0.327  0.00  0.00    +0.000 A 
ATOM     30  C   UNL     1       1.424  -2.514   1.454  0.00  0.00    +0.007 A 
ATOM     31  C   UNL     1       1.033  -1.194   1.324  0.00  0.00    -0.007 A 
ENDBRANCH  24  31
ENDBRANCH  23  24
ENDBRANCH  15  23
ENDBRANCH   1  18
BRANCH  12  32
ATOM     32  S   UNL     1       0.741   1.981  13.936  0.00  0.00    +0.026 S 
ATOM     33  O   UNL     1       1.523   1.675  15.083  0.00  0.00    -0.167 OA
ATOM     34  O   UNL     1       1.337   2.572  12.790  0.00  0.00    -0.167 OA
ATOM     35  C   UNL     1      -0.740   2.910  14.420  0.00  0.00    +0.203 C 
ENDBRANCH  12  32
TORSDOF 6
