REMARK  Name = ZINC39532691
REMARK  10 active torsions:
REMARK  status: ('A' for Active; 'I' for Inactive)
REMARK    1  A    between atoms: C_1  and  C_2
REMARK    2  A    between atoms: C_4  and  C_21
REMARK    3  A    between atoms: C_7  and  C_10
REMARK    4  A    between atoms: C_15  and  N_16
REMARK    5  A    between atoms: N_16  and  S_17
REMARK    6  A    between atoms: S_17  and  C_20
REMARK    7  A    between atoms: C_21  and  N_22
REMARK    8  A    between atoms: N_22  and  C_23
REMARK    9  A    between atoms: N_22  and  C_24
REMARK   10  A    between atoms: C_24  and  C_25
REMARK                            x       y       z     vdW  Elec       q    Type
REMARK                         _______ _______ _______ _____ _____    ______ ____
ROOT
ATOM      1  C   UNL     1      -0.413   0.944   0.734  0.00  0.00    +0.039 C 
ATOM      2  C   UNL     1      -0.313  -0.553   0.435  0.00  0.00    +0.133 C 
ATOM      3  C   UNL     1       0.305  -0.777  -0.959  0.00  0.00    +0.068 C 
ATOM      4  N   UNL     1       1.557  -1.531  -0.699  0.00  0.00    -0.284 NA
ATOM      5  C   UNL     1       1.869  -1.209   0.718  0.00  0.00    +0.220 C 
ATOM      6  O   UNL     1       0.580  -1.188   1.371  0.00  0.00    -0.353 OA
ATOM      7  H   UNL     1       1.414  -2.522  -0.821  0.00  0.00    +0.125 HD
ENDROOT
BRANCH   5   8
ATOM      8  C   UNL     1       2.750  -2.274   1.319  0.00  0.00    +0.018 A 
ATOM      9  C   UNL     1       2.883  -3.497   0.691  0.00  0.00    +0.009 A 
ATOM     10  C   UNL     1       3.690  -4.475   1.242  0.00  0.00    +0.001 A 
ATOM     11  C   UNL     1       4.368  -4.232   2.423  0.00  0.00    +0.002 A 
ATOM     12  C   UNL     1       4.240  -3.011   3.056  0.00  0.00    +0.025 A 
ATOM     13  C   UNL     1       3.433  -2.025   2.502  0.00  0.00    +0.055 A 
BRANCH  13  14
ATOM     14  N   UNL     1       3.306  -0.787   3.137  0.00  0.00    -0.220 N 
ATOM     15  H   UNL     1       2.473  -0.294   3.076  0.00  0.00    +0.173 HD
BRANCH  14  16
ATOM     16  S   UNL     1       4.577  -0.161   3.994  0.00  0.00    +0.040 S 
ATOM     17  O   UNL     1       4.133   1.121   4.416  0.00  0.00    -0.155 OA
ATOM     18  O   UNL     1       4.902  -1.165   4.946  0.00  0.00    -0.155 OA
ATOM     19  C   UNL     1       5.917   0.008   2.783  0.00  0.00    +0.218 C 
ENDBRANCH  14  16
ENDBRANCH  13  14
ENDBRANCH   5   8
BRANCH   3  20
ATOM     20  C   UNL     1      -0.642  -1.599  -1.836  0.00  0.00    -0.057 C 
BRANCH  20  21
ATOM     21  N   UNL     1       0.003  -1.876  -3.127  0.00  0.00    +0.382 N 
ATOM     22  C   UNL     1      -0.842  -2.787  -3.910  0.00  0.00    -0.096 C 
ATOM     23  H   UNL     1       0.902  -2.304  -2.968  0.00  0.00    -0.082 HD
BRANCH  21  24
ATOM     24  C   UNL     1       0.182  -0.619  -3.865  0.00  0.00    -0.041 C 
BRANCH  24  25
ATOM     25  C   UNL     1       0.953  -0.886  -5.132  0.00  0.00    -0.039 A 
ATOM     26  C   UNL     1       0.414  -1.428  -6.381  0.00  0.00    +0.001 A 
ATOM     27  C   UNL     1      -0.854  -1.841  -6.793  0.00  0.00    +0.010 A 
ATOM     28  C   UNL     1      -1.036  -2.313  -8.062  0.00  0.00    +0.001 A 
ATOM     29  C   UNL     1       0.032  -2.386  -8.947  0.00  0.00    +0.002 A 
ATOM     30  C   UNL     1       1.292  -1.984  -8.561  0.00  0.00    +0.026 A 
ATOM     31  C   UNL     1       1.499  -1.500  -7.274  0.00  0.00    +0.047 A 
ATOM     32  N   UNL     1       2.608  -1.033  -6.604  0.00  0.00    -0.360 N 
ATOM     33  C   UNL     1       2.262  -0.667  -5.331  0.00  0.00    +0.085 A 
ATOM     34  H   UNL     1       3.500  -0.970  -6.979  0.00  0.00    +0.165 HD
ENDBRANCH  24  25
ENDBRANCH  21  24
ENDBRANCH  20  21
ENDBRANCH   3  20
TORSDOF 7
