REMARK  Name = ZINC12447341
REMARK  9 active torsions:
REMARK  status: ('A' for Active; 'I' for Inactive)
REMARK    1  A    between atoms: C_1  and  C_2
REMARK    2  A    between atoms: C_5  and  N_11
REMARK    3  A    between atoms: C_6  and  N_8
REMARK    4  A    between atoms: C_14  and  C_25
REMARK    5  A    between atoms: C_16  and  C_23
REMARK    6  A    between atoms: C_17  and  N_18
REMARK    7  A    between atoms: C_26  and  C_30
REMARK    8  A    between atoms: C_34  and  C_36
REMARK    9  A    between atoms: C_34  and  C_37
REMARK                            x       y       z     vdW  Elec       q    Type
REMARK                         _______ _______ _______ _____ _____    ______ ____
ROOT
ATOM      1  N   UNL     1      -2.339  -2.716   0.654  0.00  0.00    -0.255 N 
ATOM      2  C   UNL     1      -1.302  -2.054   0.052  0.00  0.00    +0.025 C 
ATOM      3  C   UNL     1      -0.388  -2.727  -0.678  0.00  0.00    +0.026 C 
ATOM      4  C   UNL     1      -0.494  -4.220  -0.864  0.00  0.00    +0.105 C 
ATOM      5  C   UNL     1      -1.397  -4.831   0.167  0.00  0.00    +0.081 C 
ATOM      6  C   UNL     1      -2.270  -4.073   0.871  0.00  0.00    +0.129 C 
ATOM      7  C   UNL     1       0.691  -2.060  -1.285  0.00  0.00    +0.162 C 
ATOM      8  O   UNL     1       1.489  -2.694  -1.946  0.00  0.00    -0.292 OA
ATOM      9  C   UNL     1       0.879  -0.575  -1.129  0.00  0.00    +0.086 C 
ATOM     10  C   UNL     1       0.264  -0.131   0.203  0.00  0.00    -0.023 C 
ATOM     11  C   UNL     1      -1.205  -0.558   0.229  0.00  0.00    +0.058 C 
ATOM     12  C   UNL     1       0.360   1.390   0.331  0.00  0.00    +0.011 C 
ATOM     13  C   UNL     1       1.013  -0.794   1.361  0.00  0.00    +0.011 C 
ENDROOT
BRANCH   1  18
ATOM     14  C   UNL     1      -6.953   0.163   2.269  0.00  0.00    +0.044 C 
ATOM     15  C   UNL     1      -5.728  -0.602   1.841  0.00  0.00    -0.048 A 
ATOM     16  C   UNL     1      -5.625  -1.068   0.542  0.00  0.00    +0.005 A 
ATOM     17  C   UNL     1      -4.501  -1.765   0.145  0.00  0.00    +0.026 A 
ATOM     18  C   UNL     1      -3.477  -2.006   1.053  0.00  0.00    +0.070 A 
ATOM     19  C   UNL     1      -3.584  -1.536   2.355  0.00  0.00    +0.148 A 
ATOM     20  C   UNL     1      -4.709  -0.836   2.745  0.00  0.00    +0.038 A 
BRANCH  19  21
ATOM     21  N   UNL     1      -2.494  -1.786   3.325  0.00  0.00    +0.058 N 
ATOM     22  O   UNL     1      -2.588  -1.373   4.467  0.00  0.00    -0.126 OA
ATOM     23  O   UNL     1      -1.502  -2.404   2.980  0.00  0.00    -0.126 OA
ENDBRANCH  19  21
ENDBRANCH   1  18
BRANCH   4  24
ATOM     24  C   UNL     1      -1.044  -4.510  -2.236  0.00  0.00    +0.005 A 
ATOM     25  C   UNL     1      -0.466  -5.178  -3.264  0.00  0.00    -0.039 A 
ATOM     26  C   UNL     1      -1.167  -5.327  -4.446  0.00  0.00    +0.011 A 
ATOM     27  C   UNL     1      -2.408  -4.792  -4.545  0.00  0.00    +0.046 A 
ATOM     28  S   UNL     1      -2.623  -4.054  -2.934  0.00  0.00    -0.100 S 
ATOM     29  C   UNL     1       0.920  -5.753  -3.119  0.00  0.00    +0.044 C 
ENDBRANCH   4  24
BRANCH   6  30
ATOM     30  N   UNL     1      -3.098  -4.666   1.811  0.00  0.00    -0.310 N 
ATOM     31  C   UNL     1      -2.694  -5.502   2.817  0.00  0.00    +0.092 A 
ATOM     32  C   UNL     1      -3.783  -5.869   3.521  0.00  0.00    +0.019 A 
ATOM     33  C   UNL     1      -4.902  -5.247   2.928  0.00  0.00    +0.019 A 
ATOM     34  C   UNL     1      -4.456  -4.518   1.886  0.00  0.00    +0.092 A 
ENDBRANCH   6  30
BRANCH   5  35
ATOM     35  C   UNL     1      -1.333  -6.241   0.411  0.00  0.00    +0.099 C 
ATOM     36  N   UNL     1      -1.282  -7.359   0.605  0.00  0.00    -0.191 NA
ENDBRANCH   5  35
TORSDOF 5
