REMARK  Name = ZINC02704073
REMARK  7 active torsions:
REMARK  status: ('A' for Active; 'I' for Inactive)
REMARK    1  A    between atoms: C_1  and  C_2
REMARK    2  A    between atoms: N_15  and  C_28
REMARK    3  A    between atoms: C_16  and  C_18
REMARK    4  A    between atoms: C_22  and  O_24
REMARK    5  A    between atoms: O_24  and  C_25
REMARK    6  A    between atoms: C_25  and  C_26
REMARK    7  A    between atoms: C_28  and  C_29
REMARK                            x       y       z     vdW  Elec       q    Type
REMARK                         _______ _______ _______ _____ _____    ______ ____
ROOT
ATOM      1  C   UNL     1      -4.913   5.194  -9.415  0.00  0.00    +0.044 C 
ATOM      2  C   UNL     1      -5.830   4.700  -8.326  0.00  0.00    -0.050 A 
ATOM      3  C   UNL     1      -7.162   5.087  -8.318  0.00  0.00    +0.007 A 
ATOM      4  C   UNL     1      -8.018   4.647  -7.332  0.00  0.00    +0.047 A 
ATOM      5  C   UNL     1      -7.547   3.804  -6.329  0.00  0.00    +0.139 A 
ATOM      6  C   UNL     1      -6.196   3.418  -6.346  0.00  0.00    +0.065 A 
ATOM      7  C   UNL     1      -5.344   3.872  -7.352  0.00  0.00    +0.018 A 
ATOM      8  C   UNL     1      -5.715   2.524  -5.274  0.00  0.00    +0.199 A 
ATOM      9  O   UNL     1      -4.557   2.148  -5.226  0.00  0.00    -0.287 OA
ATOM     10  C   UNL     1      -6.700   2.110  -4.272  0.00  0.00    +0.072 A 
ATOM     11  C   UNL     1      -7.979   2.549  -4.361  0.00  0.00    +0.199 A 
ATOM     12  O   UNL     1      -8.370   3.366  -5.359  0.00  0.00    -0.450 OA
ATOM     13  C   UNL     1      -8.749   1.980  -3.227  0.00  0.00    +0.283 C 
ATOM     14  O   UNL     1      -9.929   2.180  -3.018  0.00  0.00    -0.267 OA
ATOM     15  N   UNL     1      -7.954   1.210  -2.465  0.00  0.00    -0.279 N 
ATOM     16  C   UNL     1      -6.609   1.227  -3.054  0.00  0.00    +0.145 C 
ENDROOT
BRANCH  16  17
ATOM     17  C   UNL     1      -5.619   1.799  -2.072  0.00  0.00    -0.019 A 
ATOM     18  C   UNL     1      -5.971   2.883  -1.289  0.00  0.00    +0.006 A 
ATOM     19  C   UNL     1      -5.065   3.409  -0.387  0.00  0.00    +0.004 A 
ATOM     20  C   UNL     1      -3.806   2.853  -0.266  0.00  0.00    +0.045 A 
ATOM     21  C   UNL     1      -3.451   1.766  -1.051  0.00  0.00    +0.121 A 
ATOM     22  C   UNL     1      -4.360   1.243  -1.960  0.00  0.00    +0.051 A 
BRANCH  21  23
ATOM     23  O   UNL     1      -2.213   1.218  -0.933  0.00  0.00    -0.488 OA
BRANCH  23  24
ATOM     24  C   UNL     1      -1.328   1.812   0.018  0.00  0.00    +0.256 C 
BRANCH  24  25
ATOM     25  C   UNL     1      -0.013   1.076   0.008  0.00  0.00    +0.006 C 
ATOM     26  C   UNL     1       1.113   1.746   0.001  0.00  0.00    +0.007 C 
ENDBRANCH  24  25
ENDBRANCH  23  24
ENDBRANCH  21  23
ENDBRANCH  16  17
BRANCH  15  27
ATOM     27  C   UNL     1      -8.357   0.481  -1.260  0.00  0.00    +0.144 C 
BRANCH  27  28
ATOM     28  C   UNL     1      -8.162   1.361  -0.052  0.00  0.00    -0.026 A 
ATOM     29  C   UNL     1      -9.189   2.180   0.378  0.00  0.00    +0.009 A 
ATOM     30  C   UNL     1      -9.015   2.989   1.486  0.00  0.00    +0.050 A 
ATOM     31  C   UNL     1      -7.809   2.980   2.168  0.00  0.00    +0.166 A 
ATOM     32  C   UNL     1      -6.774   2.155   1.734  0.00  0.00    +0.167 A 
ATOM     33  C   UNL     1      -6.957   1.344   0.626  0.00  0.00    +0.054 A 
ATOM     34  O   UNL     1      -5.703   2.327   2.563  0.00  0.00    -0.453 OA
ATOM     35  C   UNL     1      -5.951   3.562   3.261  0.00  0.00    +0.466 C 
ATOM     36  O   UNL     1      -7.387   3.668   3.268  0.00  0.00    -0.453 OA
ENDBRANCH  27  28
ENDBRANCH  15  27
TORSDOF 6
