REMARK  Name = ZINC55758708
REMARK  7 active torsions:
REMARK  status: ('A' for Active; 'I' for Inactive)
REMARK    1  A    between atoms: C_1  and  C_2
REMARK    2  A    between atoms: C_5  and  C_31
REMARK    3  A    between atoms: N_8  and  C_10
REMARK    4  A    between atoms: C_10  and  C_11
REMARK    5  A    between atoms: C_11  and  C_13
REMARK    6  A    between atoms: C_11  and  N_14
REMARK    7  A    between atoms: C_15  and  C_17
REMARK                            x       y       z     vdW  Elec       q    Type
REMARK                         _______ _______ _______ _____ _____    ______ ____
ROOT
ATOM      1  N   UNL     1       3.510  -2.495   0.951  0.00  0.00    -0.310 N 
ATOM      2  C   UNL     1       4.540  -1.852   0.365  0.00  0.00    +0.249 C 
ATOM      3  O   UNL     1       5.040  -0.883   0.907  0.00  0.00    -0.270 OA
ATOM      4  H   UNL     1       3.112  -3.266   0.519  0.00  0.00    +0.149 HD
ENDROOT
BRANCH   2   5
ATOM      5  C   UNL     1       5.058  -2.319  -0.925  0.00  0.00    +0.101 A 
ATOM      6  C   UNL     1       4.582  -3.414  -1.672  0.00  0.00    +0.150 A 
ATOM      7  N   UNL     1       5.292  -3.516  -2.761  0.00  0.00    -0.172 NA
ATOM      8  N   UNL     1       6.260  -2.504  -2.784  0.00  0.00    -0.213 N 
ATOM      9  C   UNL     1       6.121  -1.754  -1.655  0.00  0.00    +0.172 A 
ATOM     10  N   UNL     1       6.907  -0.702  -1.395  0.00  0.00    -0.189 NA
ATOM     11  C   UNL     1       7.864  -0.324  -2.216  0.00  0.00    +0.281 A 
ATOM     12  O   UNL     1       8.641   0.744  -1.922  0.00  0.00    -0.265 OA
ATOM     13  C   UNL     1       8.073  -1.081  -3.454  0.00  0.00    +0.067 A 
ATOM     14  C   UNL     1       7.241  -2.189  -3.706  0.00  0.00    +0.080 A 
ATOM     15  C   UNL     1       7.413  -2.924  -4.871  0.00  0.00    +0.028 A 
ATOM     16  C   UNL     1       8.406  -2.568  -5.760  0.00  0.00    +0.002 A 
ATOM     17  C   UNL     1       9.234  -1.485  -5.502  0.00  0.00    +0.001 A 
ATOM     18  C   UNL     1       9.069  -0.736  -4.370  0.00  0.00    +0.015 A 
ENDBRANCH   2   5
BRANCH   1  19
ATOM     19  C   UNL     1       2.993  -2.028   2.239  0.00  0.00    +0.054 C 
ATOM     20  C   UNL     1       3.825  -2.634   3.372  0.00  0.00    +0.026 C 
BRANCH  19  21
ATOM     21  C   UNL     1       1.534  -2.461   2.390  0.00  0.00    -0.057 C 
BRANCH  21  27
ATOM     22  C   UNL     1      -0.019   1.526   0.010  0.00  0.00    +0.005 C 
ATOM     23  C   UNL     1       0.002  -0.004   0.002  0.00  0.00    -0.031 C 
ATOM     24  C   UNL     1      -1.434  -0.535   0.015  0.00  0.00    +0.003 C 
ATOM     25  C   UNL     1      -1.402  -2.064   0.086  0.00  0.00    -0.031 C 
ATOM     26  C   UNL     1      -0.613  -2.496   1.324  0.00  0.00    -0.076 C 
ATOM     27  N   UNL     1       0.758  -1.980   1.239  0.00  0.00    +0.381 N 
ATOM     28  C   UNL     1       0.740  -0.512   1.242  0.00  0.00    -0.076 C 
ATOM     29  C   UNL     1      -2.832  -2.602   0.177  0.00  0.00    +0.005 C 
ATOM     30  H   UNL     1       1.188  -2.307   0.386  0.00  0.00    -0.082 HD
ENDBRANCH  21  27
ENDBRANCH  19  21
ENDBRANCH   1  19
TORSDOF 4
