REMARK  Name = ZINC05864219
REMARK  8 active torsions:
REMARK  status: ('A' for Active; 'I' for Inactive)
REMARK    1  A    between atoms: C_1  and  C_2
REMARK    2  A    between atoms: C_2  and  C_3
REMARK    3  A    between atoms: C_8  and  N_9
REMARK    4  A    between atoms: C_12  and  C_17
REMARK    5  A    between atoms: C_17  and  S_18
REMARK    6  A    between atoms: S_18  and  C_19
REMARK    7  A    between atoms: C_22  and  C_24
REMARK    8  A    between atoms: C_27  and  C_30
REMARK                            x       y       z     vdW  Elec       q    Type
REMARK                         _______ _______ _______ _____ _____    ______ ____
ROOT
ATOM      1  N   UNL     1       8.177  -2.058   2.259  0.00  0.00    -0.283 N 
ATOM      2  C   UNL     1       7.490  -1.921   1.069  0.00  0.00    +0.224 A 
ATOM      3  N   UNL     1       6.181  -1.678   1.079  0.00  0.00    -0.198 NA
ATOM      4  C   UNL     1       5.523  -1.546  -0.059  0.00  0.00    +0.146 A 
ATOM      5  N   UNL     1       6.160  -1.660  -1.212  0.00  0.00    -0.199 NA
ATOM      6  C   UNL     1       7.470  -1.897  -1.230  0.00  0.00    +0.217 A 
ATOM      7  N   UNL     1       8.135  -2.030  -0.088  0.00  0.00    -0.181 NA
ATOM      8  N   UNL     1       8.135  -2.009  -2.434  0.00  0.00    -0.327 N 
ATOM      9  H   UNL     1       7.725  -1.894   3.102  0.00  0.00    +0.155 HD
ATOM     10  H   UNL     1       9.088  -2.186  -2.446  0.00  0.00    +0.145 HD
ATOM     11  H   UNL     1       7.648  -1.912  -3.268  0.00  0.00    +0.145 HD
ENDROOT
BRANCH   1  17
ATOM     12  C   UNL     1      10.348  -2.096   3.315  0.00  0.00    -0.026 A 
ATOM     13  C   UNL     1      11.678  -2.469   3.303  0.00  0.00    +0.005 A 
ATOM     14  C   UNL     1      12.189  -3.178   2.231  0.00  0.00    +0.000 A 
ATOM     15  C   UNL     1      11.371  -3.516   1.168  0.00  0.00    +0.002 A 
ATOM     16  C   UNL     1      10.039  -3.151   1.177  0.00  0.00    +0.023 A 
ATOM     17  C   UNL     1       9.524  -2.434   2.250  0.00  0.00    +0.037 A 
BRANCH  12  19
ATOM     18  C   UNL     1       9.151  -2.294   5.478  0.00  0.00    +0.009 C 
ATOM     19  C   UNL     1       9.792  -1.324   4.484  0.00  0.00    +0.033 C 
ENDBRANCH  12  19
ENDBRANCH   1  17
BRANCH   4  20
ATOM     20  C   UNL     1       4.041  -1.272  -0.043  0.00  0.00    +0.155 C 
BRANCH  20  21
ATOM     21  S   UNL     1       3.759   0.516  -0.022  0.00  0.00    -0.058 S 
BRANCH  21  22
ATOM     22  C   UNL     1       1.998   0.548  -0.006  0.00  0.00    +0.278 A 
ATOM     23  N   UNL     1       1.202  -0.496  -0.009  0.00  0.00    -0.101 NA
ATOM     24  N   UNL     1      -0.023  -0.102   0.005  0.00  0.00    -0.106 NA
ATOM     25  C   UNL     1      -0.058   1.209   0.019  0.00  0.00    +0.249 A 
ATOM     26  O   UNL     1       1.220   1.647   0.012  0.00  0.00    -0.411 OA
BRANCH  25  27
ATOM     27  C   UNL     1      -1.272   2.051   0.033  0.00  0.00    +0.039 A 
ATOM     28  C   UNL     1      -1.159   3.442   0.052  0.00  0.00    +0.013 A 
ATOM     29  C   UNL     1      -2.297   4.223   0.060  0.00  0.00    +0.004 A 
ATOM     30  C   UNL     1      -3.547   3.630   0.059  0.00  0.00    -0.050 A 
ATOM     31  C   UNL     1      -3.665   2.251   0.046  0.00  0.00    +0.004 A 
ATOM     32  C   UNL     1      -2.536   1.459   0.033  0.00  0.00    +0.013 A 
ATOM     33  C   UNL     1      -4.785   4.489   0.074  0.00  0.00    +0.044 C 
ENDBRANCH  25  27
ENDBRANCH  21  22
ENDBRANCH  20  21
ENDBRANCH   4  20
TORSDOF 6
