REMARK  Name = ZINC39674076
REMARK  8 active torsions:
REMARK  status: ('A' for Active; 'I' for Inactive)
REMARK    1  A    between atoms: C_1  and  C_2
REMARK    2  A    between atoms: C_4  and  C_12
REMARK    3  A    between atoms: C_12  and  C_13
REMARK    4  A    between atoms: C_13  and  N_14
REMARK    5  A    between atoms: C_15  and  C_17
REMARK    6  A    between atoms: C_28  and  C_30
REMARK    7  A    between atoms: C_33  and  C_41
REMARK    8  A    between atoms: C_35  and  C_37
REMARK                            x       y       z     vdW  Elec       q    Type
REMARK                         _______ _______ _______ _____ _____    ______ ____
ROOT
ATOM      1  C   UNL     1      -5.380   3.095   4.849  0.00  0.00    +0.100 C 
ATOM      2  C   UNL     1      -6.577   2.980   3.879  0.00  0.00    +0.121 C 
ATOM      3  N   UNL     1      -7.573   3.947   4.396  0.00  0.00    -0.300 N 
ATOM      4  C   UNL     1      -6.766   5.114   4.826  0.00  0.00    +0.115 C 
ATOM      5  C   UNL     1      -5.507   4.497   5.468  0.00  0.00    -0.004 C 
ATOM      6  C   UNL     1      -4.278   5.336   5.132  0.00  0.00    -0.010 C 
ATOM      7  C   UNL     1      -4.401   6.705   5.807  0.00  0.00    -0.082 C 
ATOM      8  N   UNL     1      -4.514   6.529   7.260  0.00  0.00    +0.379 N 
ATOM      9  C   UNL     1      -5.748   5.800   7.580  0.00  0.00    -0.082 C 
ATOM     10  C   UNL     1      -5.683   4.393   6.981  0.00  0.00    -0.010 C 
ATOM     11  C   UNL     1      -8.911   3.800   4.462  0.00  0.00    +0.226 C 
ATOM     12  O   UNL     1      -9.598   4.690   4.916  0.00  0.00    -0.275 OA
ATOM     13  H   UNL     1      -3.720   6.006   7.597  0.00  0.00    -0.086 HD
ATOM     14  H   UNL     1      -4.533   7.433   7.707  0.00  0.00    -0.086 HD
ENDROOT
BRANCH  11  15
ATOM     15  C   UNL     1      -9.554   2.528   3.972  0.00  0.00    +0.150 C 
ATOM     16  C   UNL     1     -10.890   2.814   3.308  0.00  0.00    +0.030 C 
ATOM     17  C   UNL     1     -11.833   2.483   4.164  0.00  0.00    +0.092 C 
ATOM     18  O   UNL     1     -11.357   2.014   5.340  0.00  0.00    -0.484 OA
ATOM     19  C   UNL     1      -9.979   1.628   5.158  0.00  0.00    +0.292 C 
ATOM     20  C   UNL     1     -13.304   2.614   3.864  0.00  0.00    +0.085 C 
BRANCH  19  21
ATOM     21  C   UNL     1      -9.152   1.942   6.407  0.00  0.00    +0.427 C 
ATOM     22  F   UNL     1      -9.442   3.239   6.844  0.00  0.00    -0.167 F 
ATOM     23  F   UNL     1      -9.469   1.028   7.418  0.00  0.00    -0.167 F 
ATOM     24  F   UNL     1      -7.791   1.846   6.101  0.00  0.00    -0.167 F 
ENDBRANCH  19  21
ENDBRANCH  11  15
BRANCH   1  26
ATOM     25  N   UNL     1      -2.990   2.473   4.715  0.00  0.00    -0.315 N 
ATOM     26  C   UNL     1      -4.081   2.969   4.097  0.00  0.00    +0.218 C 
ATOM     27  O   UNL     1      -4.016   3.314   2.936  0.00  0.00    -0.275 OA
ATOM     28  H   UNL     1      -3.042   2.197   5.643  0.00  0.00    +0.149 HD
BRANCH  25  29
ATOM     29  C   UNL     1      -1.727   2.351   3.983  0.00  0.00    +0.109 C 
BRANCH  29  30
ATOM     30  C   UNL     1      -0.657   1.765   4.907  0.00  0.00    +0.056 C 
BRANCH  30  34
ATOM     31  C   UNL     1       1.562   3.926   4.718  0.00  0.00    +0.063 C 
ATOM     32  C   UNL     1       1.608   2.568   4.068  0.00  0.00    +0.017 A 
ATOM     33  H   UNL     1       3.445   2.594   3.087  0.00  0.00    +0.166 HD
ATOM     34  C   UNL     1       0.643   1.639   4.155  0.00  0.00    -0.018 A 
ATOM     35  C   UNL     1       1.093   0.480   3.381  0.00  0.00    +0.003 A 
ATOM     36  C   UNL     1       0.541  -0.771   3.098  0.00  0.00    +0.010 A 
ATOM     37  C   UNL     1       1.233  -1.657   2.320  0.00  0.00    +0.001 A 
ATOM     38  C   UNL     1       2.479  -1.323   1.809  0.00  0.00    +0.002 A 
ATOM     39  C   UNL     1       3.042  -0.094   2.076  0.00  0.00    +0.026 A 
ATOM     40  C   UNL     1       2.356   0.823   2.865  0.00  0.00    +0.047 A 
ATOM     41  N   UNL     1       2.637   2.100   3.296  0.00  0.00    -0.358 N 
ENDBRANCH  30  34
ENDBRANCH  29  30
ENDBRANCH  25  29
ENDBRANCH   1  26
TORSDOF 6
