REMARK  Name = ZINC40905701
REMARK  11 active torsions:
REMARK  status: ('A' for Active; 'I' for Inactive)
REMARK    1  A    between atoms: C_1  and  C_2
REMARK    2  A    between atoms: C_3  and  C_33
REMARK    3  A    between atoms: C_4  and  C_24
REMARK    4  A    between atoms: C_11  and  S_15
REMARK    5  A    between atoms: S_15  and  C_16
REMARK    6  A    between atoms: C_16  and  C_17
REMARK    7  A    between atoms: C_27  and  O_32
REMARK    8  A    between atoms: C_28  and  O_30
REMARK    9  A    between atoms: O_30  and  C_31
REMARK   10  A    between atoms: C_33  and  O_35
REMARK   11  A    between atoms: O_35  and  C_36
REMARK                            x       y       z     vdW  Elec       q    Type
REMARK                         _______ _______ _______ _____ _____    ______ ____
ROOT
ATOM      1  C   UNL     1      -0.018   1.503   0.010  0.00  0.00    +0.061 C 
ATOM      2  C   UNL     1       0.002  -0.004   0.002  0.00  0.00    +0.017 C 
ATOM      3  C   UNL     1      -1.159  -0.678   0.004  0.00  0.00    +0.065 C 
ATOM      4  C   UNL     1      -1.210  -2.178   0.006  0.00  0.00    +0.096 C 
ATOM      5  C   UNL     1       0.117  -2.761  -0.389  0.00  0.00    +0.069 A 
ATOM      6  C   UNL     1       0.208  -4.102  -0.777  0.00  0.00    +0.258 A 
ATOM      7  O   UNL     1      -0.785  -4.811  -0.801  0.00  0.00    -0.267 OA
ATOM      8  N   UNL     1       1.415  -4.597  -1.125  0.00  0.00    -0.302 N 
ATOM      9  H   UNL     1       1.498  -5.524  -1.398  0.00  0.00    +0.171 HD
ATOM     10  C   UNL     1       2.517  -3.797  -1.093  0.00  0.00    +0.171 A 
ATOM     11  N   UNL     1       2.436  -2.533  -0.729  0.00  0.00    -0.208 NA
ATOM     12  C   UNL     1       1.266  -1.989  -0.377  0.00  0.00    +0.135 A 
ATOM     13  N   UNL     1       1.202  -0.657  -0.013  0.00  0.00    -0.302 N 
ATOM     14  H   UNL     1       2.013  -0.187   0.237  0.00  0.00    +0.153 HD
ENDROOT
BRANCH   4  15
ATOM     15  C   UNL     1      -1.569  -2.660   1.388  0.00  0.00    -0.031 A 
ATOM     16  C   UNL     1      -0.758  -2.341   2.462  0.00  0.00    +0.008 A 
ATOM     17  C   UNL     1      -1.083  -2.780   3.732  0.00  0.00    +0.049 A 
ATOM     18  C   UNL     1      -2.224  -3.541   3.931  0.00  0.00    +0.158 A 
ATOM     19  C   UNL     1      -3.040  -3.861   2.851  0.00  0.00    +0.162 A 
ATOM     20  C   UNL     1      -2.711  -3.414   1.581  0.00  0.00    +0.054 A 
BRANCH  19  21
ATOM     21  O   UNL     1      -4.161  -4.607   3.041  0.00  0.00    -0.491 OA
ATOM     22  C   UNL     1      -4.951  -4.897   1.886  0.00  0.00    +0.277 C 
ENDBRANCH  19  21
BRANCH  18  23
ATOM     23  O   UNL     1      -2.544  -3.974   5.179  0.00  0.00    -0.503 OA
ATOM     24  H   UNL     1      -3.105  -3.363   5.676  0.00  0.00    +0.292 HD
ENDBRANCH  18  23
ENDBRANCH   4  15
BRANCH   3  25
ATOM     25  C   UNL     1      -2.372   0.048   0.004  0.00  0.00    +0.337 C 
ATOM     26  O   UNL     1      -2.353   1.265   0.003  0.00  0.00    -0.245 OA
BRANCH  25  27
ATOM     27  O   UNL     1      -3.551  -0.608   0.006  0.00  0.00    -0.465 OA
ATOM     28  C   UNL     1      -4.737   0.189   0.007  0.00  0.00    +0.280 C 
ENDBRANCH  25  27
ENDBRANCH   3  25
BRANCH  10  29
ATOM     29  S   UNL     1       4.082  -4.465  -1.548  0.00  0.00    -0.083 S 
BRANCH  29  30
ATOM     30  C   UNL     1       5.227  -3.071  -1.359  0.00  0.00    +0.114 C 
BRANCH  30  31
ATOM     31  C   UNL     1       6.621  -3.513  -1.721  0.00  0.00    -0.019 A 
ATOM     32  C   UNL     1       7.455  -4.036  -0.751  0.00  0.00    +0.006 A 
ATOM     33  C   UNL     1       8.734  -4.441  -1.083  0.00  0.00    +0.000 A 
ATOM     34  C   UNL     1       9.180  -4.324  -2.387  0.00  0.00    +0.001 A 
ATOM     35  C   UNL     1       8.348  -3.800  -3.358  0.00  0.00    +0.020 A 
ATOM     36  C   UNL     1       7.065  -3.400  -3.027  0.00  0.00    +0.045 A 
ATOM     37 CL   UNL     1       6.016  -2.748  -4.247  0.00  0.00    -0.083 Cl
ENDBRANCH  30  31
ENDBRANCH  29  30
ENDBRANCH  10  29
TORSDOF 8
