REMARK  Name = ZINC01485736
REMARK  8 active torsions:
REMARK  status: ('A' for Active; 'I' for Inactive)
REMARK    1  A    between atoms: C_4  and  C_7
REMARK    2  A    between atoms: C_7  and  C_8
REMARK    3  A    between atoms: C_8  and  C_9
REMARK    4  A    between atoms: C_9  and  C_10
REMARK    5  A    between atoms: C_12  and  C_14
REMARK    6  A    between atoms: C_12  and  C_24
REMARK    7  A    between atoms: C_14  and  N_15
REMARK    8  A    between atoms: C_24  and  O_25
REMARK                            x       y       z     vdW  Elec       q    Type
REMARK                         _______ _______ _______ _____ _____    ______ ____
ROOT
ATOM      1  C   UNL     1       0.019  -0.014  -0.022  0.00  0.00    -0.010 C 
ATOM      2  C   UNL     1       0.048  -0.635  -1.429  0.00  0.00    +0.014 C 
ATOM      3  C   UNL     1      -0.939  -1.689  -0.898  0.00  0.00    +0.010 C 
ATOM      4  C   UNL     1      -1.375  -0.642   0.141  0.00  0.00    +0.014 C 
ENDROOT
BRANCH   1   5
ATOM      5  C   UNL     1       0.004   1.516  -0.029  0.00  0.00    +0.004 C 
BRANCH   5   6
ATOM      6  C   UNL     1       1.441   2.040  -0.070  0.00  0.00    +0.005 C 
BRANCH   6   7
ATOM      7  C   UNL     1       1.426   3.570  -0.076  0.00  0.00    +0.035 C 
BRANCH   7  11
ATOM      8  C   UNL     1       5.438   5.032  -0.191  0.00  0.00    +0.000 A 
ATOM      9  C   UNL     1       4.757   4.790  -1.369  0.00  0.00    +0.000 A 
ATOM     10  C   UNL     1       3.459   4.317  -1.332  0.00  0.00    +0.003 A 
ATOM     11  C   UNL     1       2.842   4.085  -0.117  0.00  0.00    -0.047 A 
ATOM     12  C   UNL     1       3.521   4.333   1.062  0.00  0.00    +0.003 A 
ATOM     13  C   UNL     1       4.821   4.801   1.025  0.00  0.00    +0.000 A 
ENDBRANCH   7  11
ENDBRANCH   6   7
ENDBRANCH   5   6
ENDBRANCH   1   5
BRANCH   3  14
ATOM     14  C   UNL     1      -0.258  -2.914  -0.285  0.00  0.00    +0.112 C 
BRANCH  14  15
ATOM     15  N   UNL     1      -1.220  -3.643   0.546  0.00  0.00    -0.328 N 
ATOM     16  C   UNL     1      -0.806  -4.737   1.288  0.00  0.00    +0.125 A 
ATOM     17  C   UNL     1       0.525  -5.156   1.248  0.00  0.00    +0.083 A 
ATOM     18  C   UNL     1       0.894  -6.249   2.011  0.00  0.00    +0.136 A 
ATOM     19  N   UNL     1      -0.022  -6.869   2.743  0.00  0.00    -0.203 NA
ATOM     20  C   UNL     1      -1.279  -6.451   2.757  0.00  0.00    +0.216 A 
ATOM     21  N   UNL     1      -1.671  -5.404   2.045  0.00  0.00    -0.200 NA
ATOM     22  N   UNL     1      -2.205  -7.124   3.534  0.00  0.00    -0.327 N 
ATOM     23 CL   UNL     1       2.538  -6.809   2.004  0.00  0.00    -0.062 Cl
ATOM     24  H   UNL     1      -2.147  -3.360   0.575  0.00  0.00    +0.147 HD
ATOM     25  H   UNL     1      -3.129  -6.828   3.553  0.00  0.00    +0.145 HD
ATOM     26  H   UNL     1      -1.931  -7.891   4.060  0.00  0.00    +0.145 HD
ENDBRANCH  14  15
ENDBRANCH   3  14
BRANCH   3  27
ATOM     27  C   UNL     1      -2.038  -2.057  -1.897  0.00  0.00    +0.164 C 
BRANCH  27  28
ATOM     28  O   UNL     1      -1.504  -2.936  -2.889  0.00  0.00    -0.394 OA
ATOM     29  H   UNL     1      -2.147  -3.212  -3.557  0.00  0.00    +0.209 HD
ENDBRANCH  27  28
ENDBRANCH   3  27
TORSDOF 8
