REMARK  Name = ZINC39696242
REMARK  10 active torsions:
REMARK  status: ('A' for Active; 'I' for Inactive)
REMARK    1  A    between atoms: C_1  and  C_2
REMARK    2  A    between atoms: C_2  and  C_3
REMARK    3  A    between atoms: C_6  and  C_9
REMARK    4  A    between atoms: C_9  and  C_11
REMARK    5  A    between atoms: C_9  and  N_12
REMARK    6  A    between atoms: C_13  and  C_15
REMARK    7  A    between atoms: C_26  and  C_28
REMARK    8  A    between atoms: C_28  and  O_29
REMARK    9  A    between atoms: O_29  and  C_30
REMARK   10  A    between atoms: C_40  and  C_41
REMARK                            x       y       z     vdW  Elec       q    Type
REMARK                         _______ _______ _______ _____ _____    ______ ____
ROOT
ATOM      1  C   UNL     1      -6.692  -4.983  -1.997  0.00  0.00    +0.100 C 
ATOM      2  C   UNL     1      -7.214  -4.319  -3.291  0.00  0.00    +0.121 C 
ATOM      3  N   UNL     1      -8.149  -5.312  -3.871  0.00  0.00    -0.297 N 
ATOM      4  C   UNL     1      -8.862  -5.875  -2.699  0.00  0.00    +0.115 C 
ATOM      5  C   UNL     1      -7.777  -6.003  -1.612  0.00  0.00    -0.004 C 
ATOM      6  C   UNL     1      -7.198  -7.414  -1.608  0.00  0.00    -0.010 C 
ATOM      7  C   UNL     1      -8.280  -8.404  -1.167  0.00  0.00    -0.082 C 
ATOM      8  N   UNL     1      -8.756  -8.045   0.174  0.00  0.00    +0.379 N 
ATOM      9  C   UNL     1      -9.395  -6.724   0.143  0.00  0.00    -0.082 C 
ATOM     10  C   UNL     1      -8.360  -5.663  -0.243  0.00  0.00    -0.010 C 
ATOM     11  C   UNL     1      -8.314  -5.631  -5.170  0.00  0.00    +0.253 C 
ATOM     12  O   UNL     1      -9.128  -6.472  -5.489  0.00  0.00    -0.272 OA
ATOM     13  H   UNL     1      -9.425  -8.733   0.488  0.00  0.00    -0.086 HD
ATOM     14  H   UNL     1      -7.975  -8.024   0.813  0.00  0.00    -0.086 HD
ENDROOT
BRANCH   1  16
ATOM     15  N   UNL     1      -5.604  -4.133   0.054  0.00  0.00    -0.308 N 
ATOM     16  C   UNL     1      -6.529  -3.954  -0.909  0.00  0.00    +0.219 C 
ATOM     17  O   UNL     1      -7.231  -2.965  -0.899  0.00  0.00    -0.275 OA
ATOM     18  H   UNL     1      -5.042  -4.924   0.047  0.00  0.00    +0.149 HD
BRANCH  15  19
ATOM     19  C   UNL     1      -5.445  -3.133   1.113  0.00  0.00    +0.100 C 
ATOM     20  C   UNL     1      -4.512  -2.021   0.628  0.00  0.00    +0.033 C 
BRANCH  19  24
ATOM     21  C   UNL     1      -3.773  -4.984   4.581  0.00  0.00    -0.048 A 
ATOM     22  C   UNL     1      -4.772  -4.038   4.716  0.00  0.00    +0.004 A 
ATOM     23  C   UNL     1      -5.313  -3.439   3.594  0.00  0.00    +0.006 A 
ATOM     24  C   UNL     1      -4.854  -3.785   2.336  0.00  0.00    -0.027 A 
ATOM     25  C   UNL     1      -3.855  -4.730   2.201  0.00  0.00    +0.006 A 
ATOM     26  C   UNL     1      -3.311  -5.326   3.324  0.00  0.00    +0.004 A 
BRANCH  21  28
ATOM     27  C   UNL     1      -1.993  -4.814   6.298  0.00  0.00    +0.009 C 
ATOM     28  C   UNL     1      -3.184  -5.637   5.804  0.00  0.00    +0.032 C 
ENDBRANCH  21  28
ENDBRANCH  19  24
ENDBRANCH  15  19
ENDBRANCH   1  16
BRANCH  11  29
ATOM     29  C   UNL     1      -7.488  -4.943  -6.226  0.00  0.00    +0.324 C 
BRANCH  29  30
ATOM     30  O   UNL     1      -7.843  -5.449  -7.514  0.00  0.00    -0.479 OA
BRANCH  30  31
ATOM     31  C   UNL     1      -7.186  -4.930  -8.585  0.00  0.00    +0.164 A 
ATOM     32  C   UNL     1      -6.217  -3.960  -8.399  0.00  0.00    +0.049 A 
ATOM     33  C   UNL     1      -5.539  -3.422  -9.483  0.00  0.00    +0.004 A 
ATOM     34  C   UNL     1      -5.821  -3.847 -10.762  0.00  0.00    +0.012 A 
ATOM     35  C   UNL     1      -6.798  -4.827 -10.967  0.00  0.00    +0.024 A 
ATOM     36  C   UNL     1      -7.482  -5.377  -9.870  0.00  0.00    +0.181 A 
ATOM     37  O   UNL     1      -8.421  -6.327 -10.071  0.00  0.00    -0.418 OA
ATOM     38  C   UNL     1      -8.719  -6.769 -11.303  0.00  0.00    +0.338 A 
ATOM     39  O   UNL     1      -9.573  -7.626 -11.435  0.00  0.00    -0.245 OA
ATOM     40  C   UNL     1      -8.066  -6.264 -12.449  0.00  0.00    +0.096 A 
ATOM     41  C   UNL     1      -7.121  -5.300 -12.317  0.00  0.00    -0.033 A 
ATOM     42  C   UNL     1      -6.410  -4.743 -13.523  0.00  0.00    +0.045 C 
ENDBRANCH  30  31
ENDBRANCH  29  30
ENDBRANCH  11  29
TORSDOF 7
