REMARK  Name = ZINC60238803
REMARK  8 active torsions:
REMARK  status: ('A' for Active; 'I' for Inactive)
REMARK    1  A    between atoms: C_1  and  C_2
REMARK    2  A    between atoms: C_5  and  C_8
REMARK    3  A    between atoms: C_8  and  C_10
REMARK    4  A    between atoms: C_8  and  N_28
REMARK    5  A    between atoms: C_10  and  N_11
REMARK    6  A    between atoms: C_12  and  C_14
REMARK    7  A    between atoms: C_14  and  N_15
REMARK    8  A    between atoms: C_21  and  C_24
REMARK                            x       y       z     vdW  Elec       q    Type
REMARK                         _______ _______ _______ _____ _____    ______ ____
ROOT
ATOM      1  N   UNL     1      -1.243  -6.321   0.358  0.00  0.00    -0.315 N 
ATOM      2  C   UNL     1      -2.354  -7.052   0.573  0.00  0.00    +0.231 C 
ATOM      3  O   UNL     1      -3.414  -6.499   0.779  0.00  0.00    -0.274 OA
ATOM      4  H   UNL     1      -0.396  -6.763   0.193  0.00  0.00    +0.149 HD
ENDROOT
BRANCH   1   5
ATOM      5  C   UNL     1      -1.315  -4.857   0.372  0.00  0.00    +0.093 C 
BRANCH   5   6
ATOM      6  C   UNL     1       0.042  -4.276  -0.029  0.00  0.00    -0.020 C 
BRANCH   6  11
ATOM      7  C   UNL     1       1.182  -5.664  -5.521  0.00  0.00    +0.044 C 
ATOM      8  C   UNL     1       0.884  -5.302  -4.089  0.00  0.00    -0.050 A 
ATOM      9  C   UNL     1       1.460  -6.023  -3.060  0.00  0.00    +0.003 A 
ATOM     10  C   UNL     1       1.188  -5.691  -1.746  0.00  0.00    +0.002 A 
ATOM     11  C   UNL     1       0.340  -4.637  -1.461  0.00  0.00    -0.059 A 
ATOM     12  C   UNL     1      -0.235  -3.915  -2.490  0.00  0.00    +0.002 A 
ATOM     13  C   UNL     1       0.041  -4.245  -3.804  0.00  0.00    +0.003 A 
ENDBRANCH   6  11
BRANCH   6  14
ATOM     14  N   UNL     1       0.009  -2.814   0.110  0.00  0.00    +0.385 N 
ATOM     15  C   UNL     1      -0.207  -2.440   1.532  0.00  0.00    -0.078 C 
ATOM     16  C   UNL     1       0.334  -0.990   1.602  0.00  0.00    -0.020 C 
ATOM     17  C   UNL     1       1.563  -1.034   0.666  0.00  0.00    -0.020 C 
ATOM     18  C   UNL     1       1.317  -2.236  -0.264  0.00  0.00    -0.078 C 
ATOM     19  H   UNL     1      -0.722  -2.425  -0.468  0.00  0.00    -0.081 HD
ENDBRANCH   6  14
ENDBRANCH   5   6
ENDBRANCH   1   5
BRANCH   2  20
ATOM     20  C   UNL     1      -2.280  -8.557   0.558  0.00  0.00    +0.213 C 
BRANCH  20  21
ATOM     21  N   UNL     1      -3.610  -9.114   0.816  0.00  0.00    -0.215 N 
ATOM     22  C   UNL     1      -4.088  -9.398   2.046  0.00  0.00    +0.247 C 
ATOM     23  O   UNL     1      -3.521  -9.247   3.106  0.00  0.00    -0.273 OA
ATOM     24  C   UNL     1      -5.480  -9.944   1.822  0.00  0.00    +0.113 C 
ATOM     25  C   UNL     1      -6.515  -9.056   2.503  0.00  0.00    +0.035 C 
ATOM     26  C   UNL     1      -7.918  -9.610   2.239  0.00  0.00    +0.006 C 
ATOM     27  C   UNL     1      -8.012 -11.038   2.778  0.00  0.00    -0.014 C 
ATOM     28  C   UNL     1      -6.984 -11.921   2.068  0.00  0.00    +0.006 C 
ATOM     29  C   UNL     1      -5.577 -11.377   2.332  0.00  0.00    +0.035 C 
ATOM     30  C   UNL     1      -9.417 -11.588   2.525  0.00  0.00    +0.007 C 
ATOM     31  N   UNL     1      -5.648  -9.905   0.363  0.00  0.00    -0.285 N 
ATOM     32  C   UNL     1      -4.505  -9.400  -0.138  0.00  0.00    +0.310 C 
ATOM     33  O   UNL     1      -4.306  -9.226  -1.325  0.00  0.00    -0.252 OA
ATOM     34  H   UNL     1      -6.429 -10.183  -0.139  0.00  0.00    +0.151 HD
ENDBRANCH  20  21
ENDBRANCH   2  20
TORSDOF 6
