REMARK  Name = ZINC12660302
REMARK  6 active torsions:
REMARK  status: ('A' for Active; 'I' for Inactive)
REMARK    1  A    between atoms: C_1  and  C_2
REMARK    2  A    between atoms: N_14  and  N_15
REMARK    3  A    between atoms: N_15  and  C_16
REMARK    4  A    between atoms: C_16  and  N_18
REMARK    5  A    between atoms: C_22  and  C_29
REMARK    6  A    between atoms: C_25  and  O_28
REMARK                            x       y       z     vdW  Elec       q    Type
REMARK                         _______ _______ _______ _____ _____    ______ ____
ROOT
ATOM      1  C   UNL     1       4.144   2.262  -2.667  0.00  0.00    +0.018 C 
ATOM      2  C   UNL     1       3.418   2.618  -1.362  0.00  0.00    +0.011 C 
ATOM      3  C   UNL     1       4.301   2.215  -0.213  0.00  0.00    +0.013 C 
ATOM      4  C   UNL     1       3.630   2.013   1.126  0.00  0.00    +0.005 C 
ATOM      5  C   UNL     1       2.248   1.382   1.066  0.00  0.00    +0.003 C 
ATOM      6  C   UNL     1       1.400   2.051  -0.000  0.00  0.00    +0.001 C 
ATOM      7  C   UNL     1       2.039   1.933  -1.381  0.00  0.00    +0.005 C 
ATOM      8  C   UNL     1       1.240   2.859  -2.343  0.00  0.00    +0.010 C 
ATOM      9  C   UNL     1       1.762   4.274  -2.013  0.00  0.00    +0.053 C 
ATOM     10  C   UNL     1       3.130   4.102  -1.381  0.00  0.00    +0.043 C 
ATOM     11  N   UNL     1       3.894   5.034  -0.948  0.00  0.00    -0.189 NA
ATOM     12  C   UNL     1      -0.018   1.494   0.010  0.00  0.00    +0.031 C 
ATOM     13  C   UNL     1       0.002  -0.004   0.002  0.00  0.00    -0.027 C 
ATOM     14  C   UNL     1       0.993  -0.711   0.451  0.00  0.00    -0.065 C 
ATOM     15  C   UNL     1       2.264  -0.128   1.005  0.00  0.00    -0.008 C 
ATOM     16  C   UNL     1       2.466  -0.691   2.421  0.00  0.00    +0.014 C 
ATOM     17  C   UNL     1       2.407  -2.214   2.417  0.00  0.00    +0.032 C 
ATOM     18  C   UNL     1       1.065  -2.714   1.887  0.00  0.00    +0.119 C 
ATOM     19  C   UNL     1       0.856  -2.225   0.451  0.00  0.00    +0.062 C 
ATOM     20  C   UNL     1       3.418  -0.627   0.140  0.00  0.00    +0.016 C 
ENDROOT
BRANCH  11  21
ATOM     21  N   UNL     1       3.486   6.371  -1.035  0.00  0.00    -0.219 N 
ATOM     22  H   UNL     1       2.624   6.591  -1.422  0.00  0.00    +0.176 HD
BRANCH  21  23
ATOM     23  C   UNL     1       4.290   7.352  -0.580  0.00  0.00    +0.147 C 
ATOM     24  S   UNL     1       3.791   8.986  -0.685  0.00  0.00    -0.017 S 
BRANCH  23  25
ATOM     25  N   UNL     1       5.487   7.046  -0.041  0.00  0.00    -0.339 N 
ATOM     26  H   UNL     1       5.770   6.121   0.019  0.00  0.00    +0.144 HD
ATOM     27  H   UNL     1       6.066   7.753   0.287  0.00  0.00    +0.144 HD
ENDBRANCH  23  25
ENDBRANCH  21  23
ENDBRANCH  11  21
BRANCH  18  28
ATOM     28  O   UNL     1       0.008  -2.226   2.716  0.00  0.00    -0.391 OA
ATOM     29  H   UNL     1      -0.874  -2.507   2.436  0.00  0.00    +0.210 HD
ENDBRANCH  18  28
TORSDOF 4
