REMARK  Name = ZINC39510762
REMARK  6 active torsions:
REMARK  status: ('A' for Active; 'I' for Inactive)
REMARK    1  A    between atoms: C_4  and  O_7
REMARK    2  A    between atoms: O_7  and  S_8
REMARK    3  A    between atoms: S_8  and  N_11
REMARK    4  A    between atoms: C_15  and  O_30
REMARK    5  A    between atoms: C_20  and  C_23
REMARK    6  A    between atoms: C_28  and  O_29
REMARK                            x       y       z     vdW  Elec       q    Type
REMARK                         _______ _______ _______ _____ _____    ______ ____
ROOT
ATOM      1  N   UNL     1       3.429  -2.126   2.035  0.00  0.00    -0.139 NA
ATOM      2  C   UNL     1       2.157  -1.944   2.750  0.00  0.00    +0.113 C 
ATOM      3  C   UNL     1       1.127  -2.924   2.179  0.00  0.00    +0.020 C 
ATOM      4  C   UNL     1       1.683  -4.348   2.252  0.00  0.00    +0.034 C 
ATOM      5  C   UNL     1       2.955  -4.444   1.403  0.00  0.00    +0.137 C 
ATOM      6  C   UNL     1       3.997  -3.473   1.943  0.00  0.00    +0.072 C 
ATOM      7  C   UNL     1       5.231  -3.463   1.030  0.00  0.00    +0.027 C 
ATOM      8  C   UNL     1       6.421  -3.925   1.899  0.00  0.00    +0.010 C 
ATOM      9  C   UNL     1       5.982  -3.600   3.349  0.00  0.00    +0.025 C 
ATOM     10  C   UNL     1       4.469  -3.936   3.333  0.00  0.00    +0.035 C 
ENDROOT
BRANCH   9  11
ATOM     11  C   UNL     1       6.715  -4.470   4.337  0.00  0.00    -0.003 A 
ATOM     12  C   UNL     1       6.621  -5.846   4.250  0.00  0.00    +0.007 A 
ATOM     13  C   UNL     1       7.293  -6.644   5.156  0.00  0.00    +0.001 A 
ATOM     14  C   UNL     1       8.062  -6.069   6.152  0.00  0.00    +0.004 A 
ATOM     15  C   UNL     1       8.159  -4.694   6.242  0.00  0.00    +0.046 A 
ATOM     16  C   UNL     1       7.490  -3.890   5.331  0.00  0.00    +0.120 A 
BRANCH  16  17
ATOM     17  O   UNL     1       7.589  -2.538   5.415  0.00  0.00    -0.506 OA
ATOM     18  H   UNL     1       6.916  -2.128   5.975  0.00  0.00    +0.292 HD
ENDBRANCH  16  17
ENDBRANCH   9  11
BRANCH   1  19
ATOM     19  S   UNL     1       4.199  -0.835   1.341  0.00  0.00    +0.195 S 
ATOM     20  O   UNL     1       5.586  -1.003   1.600  0.00  0.00    -0.119 OA
ATOM     21  O   UNL     1       3.485   0.327   1.740  0.00  0.00    -0.119 OA
BRANCH  19  22
ATOM     22  O   UNL     1       4.020  -0.960  -0.165  0.00  0.00    -0.333 OA
BRANCH  22  26
ATOM     23  C   UNL     1       0.365   0.375  -1.537  0.00  0.00    +0.000 A 
ATOM     24  C   UNL     1       1.397   1.273  -1.336  0.00  0.00    +0.004 A 
ATOM     25  C   UNL     1       2.622   0.829  -0.877  0.00  0.00    +0.048 A 
ATOM     26  C   UNL     1       2.816  -0.520  -0.617  0.00  0.00    +0.158 A 
ATOM     27  C   UNL     1       1.779  -1.419  -0.818  0.00  0.00    +0.048 A 
ATOM     28  C   UNL     1       0.556  -0.970  -1.278  0.00  0.00    +0.004 A 
ENDBRANCH  22  26
ENDBRANCH  19  22
ENDBRANCH   1  19
BRANCH   5  29
ATOM     29  O   UNL     1       2.650  -4.109   0.048  0.00  0.00    -0.390 OA
ATOM     30  H   UNL     1       1.990  -4.685  -0.361  0.00  0.00    +0.210 HD
ENDBRANCH   5  29
TORSDOF 6
