REMARK  Name = ZINC39634704
REMARK  12 active torsions:
REMARK  status: ('A' for Active; 'I' for Inactive)
REMARK    1  A    between atoms: C_1  and  C_2
REMARK    2  A    between atoms: C_2  and  C_3
REMARK    3  A    between atoms: C_2  and  N_4
REMARK    4  A    between atoms: N_4  and  C_5
REMARK    5  A    between atoms: N_4  and  C_33
REMARK    6  A    between atoms: C_5  and  C_6
REMARK    7  A    between atoms: C_6  and  N_7
REMARK    8  A    between atoms: C_8  and  C_10
REMARK    9  A    between atoms: C_21  and  C_23
REMARK   10  A    between atoms: C_28  and  C_29
REMARK   11  A    between atoms: C_33  and  C_34
REMARK   12  A    between atoms: C_33  and  C_35
REMARK                            x       y       z     vdW  Elec       q    Type
REMARK                         _______ _______ _______ _____ _____    ______ ____
ROOT
ATOM      1  C   UNL     1      -8.115  -1.633  -1.333  0.00  0.00    +0.100 C 
ATOM      2  C   UNL     1      -8.271  -2.775  -2.362  0.00  0.00    +0.121 C 
ATOM      3  N   UNL     1      -9.579  -3.392  -2.042  0.00  0.00    -0.296 N 
ATOM      4  C   UNL     1     -10.456  -2.245  -1.707  0.00  0.00    +0.115 C 
ATOM      5  C   UNL     1      -9.551  -1.286  -0.907  0.00  0.00    -0.004 C 
ATOM      6  C   UNL     1      -9.872   0.163  -1.263  0.00  0.00    -0.010 C 
ATOM      7  C   UNL     1     -11.284   0.502  -0.778  0.00  0.00    -0.082 C 
ATOM      8  N   UNL     1     -11.366   0.304   0.674  0.00  0.00    +0.379 N 
ATOM      9  C   UNL     1     -11.148  -1.111   1.000  0.00  0.00    -0.082 C 
ATOM     10  C   UNL     1      -9.730  -1.518   0.590  0.00  0.00    -0.010 C 
ATOM     11  C   UNL     1      -9.899  -4.701  -2.052  0.00  0.00    +0.247 C 
ATOM     12  O   UNL     1     -11.051  -5.046  -1.876  0.00  0.00    -0.270 OA
ATOM     13  H   UNL     1     -10.661   0.865   1.129  0.00  0.00    -0.086 HD
ATOM     14  H   UNL     1     -12.278   0.586   1.000  0.00  0.00    -0.086 HD
ENDROOT
BRANCH  11  15
ATOM     15  C   UNL     1      -8.850  -5.717  -2.279  0.00  0.00    +0.049 A 
ATOM     16  C   UNL     1      -7.843  -5.488  -3.218  0.00  0.00    +0.013 A 
ATOM     17  C   UNL     1      -6.866  -6.440  -3.425  0.00  0.00    +0.001 A 
ATOM     18  C   UNL     1      -6.883  -7.620  -2.703  0.00  0.00    +0.001 A 
ATOM     19  C   UNL     1      -7.878  -7.854  -1.771  0.00  0.00    +0.013 A 
ATOM     20  C   UNL     1      -8.857  -6.908  -1.550  0.00  0.00    +0.067 A 
BRANCH  20  21
ATOM     21  C   UNL     1      -9.937  -7.162  -0.530  0.00  0.00    +0.418 C 
ATOM     22  F   UNL     1      -9.733  -8.411   0.064  0.00  0.00    -0.166 F 
ATOM     23  F   UNL     1      -9.894  -6.166   0.452  0.00  0.00    -0.166 F 
ATOM     24  F   UNL     1     -11.187  -7.143  -1.159  0.00  0.00    -0.166 F 
ENDBRANCH  20  21
ENDBRANCH  11  15
BRANCH   1  26
ATOM     25  N   UNL     1      -6.686  -1.208   0.641  0.00  0.00    -0.317 N 
ATOM     26  C   UNL     1      -7.315  -2.104  -0.145  0.00  0.00    +0.218 C 
ATOM     27  O   UNL     1      -7.238  -3.288   0.103  0.00  0.00    -0.275 OA
ATOM     28  H   UNL     1      -6.748  -0.261   0.443  0.00  0.00    +0.149 HD
BRANCH  25  29
ATOM     29  C   UNL     1      -5.909  -1.666   1.796  0.00  0.00    +0.085 C 
BRANCH  29  30
ATOM     30  C   UNL     1      -5.303  -0.458   2.514  0.00  0.00    -0.059 C 
BRANCH  30  31
ATOM     31  N   UNL     1      -4.453  -0.921   3.619  0.00  0.00    +0.384 N 
ATOM     32  H   UNL     1      -4.983  -1.541   4.213  0.00  0.00    -0.081 HD
BRANCH  31  34
ATOM     33  C   UNL     1      -5.204   0.955   5.003  0.00  0.00    -0.014 C 
ATOM     34  C   UNL     1      -3.995   0.235   4.402  0.00  0.00    -0.074 C 
ATOM     35  C   UNL     1      -3.075  -0.243   5.526  0.00  0.00    -0.014 C 
ENDBRANCH  31  34
BRANCH  31  36
ATOM     36  C   UNL     1      -3.291  -1.637   3.077  0.00  0.00    -0.074 C 
ATOM     37  C   UNL     1      -2.210  -0.629   2.681  0.00  0.00    -0.014 C 
ATOM     38  C   UNL     1      -2.736  -2.588   4.139  0.00  0.00    -0.014 C 
ENDBRANCH  31  36
ENDBRANCH  30  31
ENDBRANCH  29  30
ENDBRANCH  25  29
ENDBRANCH   1  26
TORSDOF 8
