REMARK  Name = ZINC09937191
REMARK  7 active torsions:
REMARK  status: ('A' for Active; 'I' for Inactive)
REMARK    1  A    between atoms: C_1  and  C_2
REMARK    2  A    between atoms: C_5  and  N_9
REMARK    3  A    between atoms: C_7  and  C_8
REMARK    4  A    between atoms: C_10  and  O_17
REMARK    5  A    between atoms: C_12  and  C_14
REMARK    6  A    between atoms: C_14  and  C_15
REMARK    7  A    between atoms: C_14  and  C_16
REMARK                            x       y       z     vdW  Elec       q    Type
REMARK                         _______ _______ _______ _____ _____    ______ ____
ROOT
ATOM      1  N   UNL     1      -4.319   0.878   1.025  0.00  0.00    -0.200 N 
ATOM      2  C   UNL     1      -3.896  -0.284   1.590  0.00  0.00    +0.216 A 
ATOM      3  C   UNL     1      -2.549  -0.195   1.749  0.00  0.00    +0.092 A 
ATOM      4  C   UNL     1      -2.143   1.058   1.278  0.00  0.00    +0.070 A 
ATOM      5  N   UNL     1      -3.198   1.698   0.842  0.00  0.00    -0.168 NA
ENDROOT
BRANCH   1  10
ATOM      6  C   UNL     1      -9.671   2.176  -0.347  0.00  0.00    +0.044 C 
ATOM      7  C   UNL     1      -8.250   1.831   0.018  0.00  0.00    -0.047 A 
ATOM      8  C   UNL     1      -7.801   0.529  -0.109  0.00  0.00    +0.006 A 
ATOM      9  C   UNL     1      -6.499   0.210   0.224  0.00  0.00    +0.028 A 
ATOM     10  C   UNL     1      -5.641   1.199   0.686  0.00  0.00    +0.069 A 
ATOM     11  C   UNL     1      -6.095   2.504   0.818  0.00  0.00    +0.031 A 
ATOM     12  C   UNL     1      -7.397   2.817   0.478  0.00  0.00    -0.046 A 
ATOM     13  C   UNL     1      -7.890   4.235   0.614  0.00  0.00    +0.044 C 
ENDBRANCH   1  10
BRANCH   4  14
ATOM     14  C   UNL     1      -0.729   1.579   1.267  0.00  0.00    +0.033 C 
ATOM     15  C   UNL     1      -0.013   1.086   0.008  0.00  0.00    +0.014 C 
ATOM     16  C   UNL     1       0.011   1.072   2.506  0.00  0.00    +0.014 C 
ENDBRANCH   4  14
BRANCH   2  17
ATOM     17  O   UNL     1      -4.675  -1.343   1.928  0.00  0.00    -0.492 OA
ATOM     18  H   UNL     1      -4.779  -1.996   1.222  0.00  0.00    +0.294 HD
ENDBRANCH   2  17
TORSDOF 3
