REMARK  Name = ZINC13099000
REMARK  10 active torsions:
REMARK  status: ('A' for Active; 'I' for Inactive)
REMARK    1  A    between atoms: C_1  and  C_2
REMARK    2  A    between atoms: C_2  and  N_3
REMARK    3  A    between atoms: C_6  and  C_19
REMARK    4  A    between atoms: C_7  and  N_18
REMARK    5  A    between atoms: N_8  and  C_11
REMARK    6  A    between atoms: C_11  and  C_12
REMARK    7  A    between atoms: C_19  and  C_21
REMARK    8  A    between atoms: C_21  and  N_22
REMARK    9  A    between atoms: N_22  and  C_23
REMARK   10  A    between atoms: C_28  and  N_29
REMARK                            x       y       z     vdW  Elec       q    Type
REMARK                         _______ _______ _______ _____ _____    ______ ____
ROOT
ATOM      1  N   UNL     1       0.125   0.947   2.333  0.00  0.00    -0.260 N 
ATOM      2  C   UNL     1      -0.327  -0.140   2.992  0.00  0.00    +0.269 A 
ATOM      3  O   UNL     1      -1.192  -0.846   2.507  0.00  0.00    -0.267 OA
ATOM      4  C   UNL     1       0.250  -0.455   4.306  0.00  0.00    +0.121 A 
ATOM      5  C   UNL     1       1.240   0.404   4.812  0.00  0.00    +0.116 A 
ATOM      6  N   UNL     1       1.623   1.482   4.066  0.00  0.00    -0.277 N 
ATOM      7  C   UNL     1       1.074   1.732   2.867  0.00  0.00    +0.334 A 
ATOM      8  O   UNL     1       1.450   2.704   2.243  0.00  0.00    -0.246 OA
ENDROOT
BRANCH   5   9
ATOM      9  N   UNL     1       1.807   0.166   6.026  0.00  0.00    -0.344 N 
ATOM     10  H   UNL     1       1.318  -0.331   6.700  0.00  0.00    +0.144 HD
ATOM     11  H   UNL     1       2.700   0.494   6.217  0.00  0.00    +0.144 HD
ENDBRANCH   5   9
BRANCH   1  13
ATOM     12  C   UNL     1       0.393   0.593  -0.072  0.00  0.00    +0.027 C 
ATOM     13  C   UNL     1      -0.432   1.279   1.019  0.00  0.00    +0.126 C 
ENDBRANCH   1  13
BRANCH   4  14
ATOM     14  C   UNL     1      -0.181  -1.582   5.038  0.00  0.00    +0.188 C 
ATOM     15  O   UNL     1       0.379  -1.884   6.073  0.00  0.00    -0.290 OA
BRANCH  14  16
ATOM     16  C   UNL     1      -1.335  -2.411   4.536  0.00  0.00    +0.181 C 
BRANCH  16  17
ATOM     17  N   UNL     1      -1.584  -3.515   5.467  0.00  0.00    -0.335 N 
ATOM     18  H   UNL     1      -1.035  -3.614   6.260  0.00  0.00    +0.147 HD
BRANCH  17  19
ATOM     19  C   UNL     1      -2.616  -4.427   5.211  0.00  0.00    +0.050 A 
ATOM     20  C   UNL     1      -3.402  -4.287   4.078  0.00  0.00    +0.044 A 
ATOM     21  C   UNL     1      -4.420  -5.189   3.827  0.00  0.00    +0.043 A 
ATOM     22  C   UNL     1      -4.657  -6.232   4.705  0.00  0.00    +0.022 A 
ATOM     23  C   UNL     1      -3.877  -6.378   5.837  0.00  0.00    +0.026 A 
ATOM     24  C   UNL     1      -2.851  -5.481   6.093  0.00  0.00    +0.051 A 
ATOM     25 CL   UNL     1      -5.404  -5.013   2.407  0.00  0.00    -0.083 Cl
BRANCH  24  26
ATOM     26  N   UNL     1      -2.057  -5.631   7.237  0.00  0.00    -0.328 N 
ATOM     27  C   UNL     1      -1.286  -6.879   7.183  0.00  0.00    +0.105 C 
ATOM     28  C   UNL     1      -0.325  -6.939   8.373  0.00  0.00    +0.019 C 
ATOM     29  C   UNL     1      -1.128  -6.869   9.675  0.00  0.00    +0.003 C 
ATOM     30  C   UNL     1      -1.959  -5.583   9.684  0.00  0.00    +0.019 C 
ATOM     31  C   UNL     1      -2.872  -5.562   8.456  0.00  0.00    +0.105 C 
ENDBRANCH  24  26
ENDBRANCH  17  19
ENDBRANCH  16  17
ENDBRANCH  14  16
ENDBRANCH   4  14
BRANCH   6  32
ATOM     32  C   UNL     1       2.655   2.384   4.585  0.00  0.00    +0.163 C 
BRANCH  32  33
ATOM     33  C   UNL     1       2.005   3.482   5.387  0.00  0.00    -0.028 A 
ATOM     34  C   UNL     1       1.625   4.657   4.767  0.00  0.00    +0.005 A 
ATOM     35  C   UNL     1       1.024   5.663   5.502  0.00  0.00    +0.000 A 
ATOM     36  C   UNL     1       0.814   5.497   6.858  0.00  0.00    +0.000 A 
ATOM     37  C   UNL     1       1.200   4.324   7.479  0.00  0.00    +0.000 A 
ATOM     38  C   UNL     1       1.795   3.316   6.743  0.00  0.00    +0.005 A 
ENDBRANCH  32  33
ENDBRANCH   6  32
TORSDOF 9
