REMARK  Name = ZINC44483946
REMARK  5 active torsions:
REMARK  status: ('A' for Active; 'I' for Inactive)
REMARK    1  A    between atoms: C_3  and  C_9
REMARK    2  A    between atoms: C_4  and  O_8
REMARK    3  A    between atoms: N_11  and  C_12
REMARK    4  A    between atoms: C_12  and  C_17
REMARK    5  A    between atoms: C_17  and  N_19
REMARK                            x       y       z     vdW  Elec       q    Type
REMARK                         _______ _______ _______ _____ _____    ______ ____
ROOT
ATOM      1  C   UNL     1       2.745   3.784  -1.073  0.00  0.00    +0.248 C 
ATOM      2  O   UNL     1       3.040   4.554  -1.966  0.00  0.00    -0.270 OA
ATOM      3  N   UNL     1       3.602   3.574  -0.054  0.00  0.00    -0.300 N 
ATOM      4  H   UNL     1       3.337   3.020   0.697  0.00  0.00    +0.150 HD
ENDROOT
BRANCH   1   7
ATOM      5  C   UNL     1      -0.102   1.535  -0.116  0.00  0.00    +0.016 A 
ATOM      6  C   UNL     1       1.109   2.191  -0.081  0.00  0.00    +0.018 A 
ATOM      7  C   UNL     1       1.451   3.078  -1.105  0.00  0.00    +0.078 A 
ATOM      8  C   UNL     1       0.557   3.293  -2.163  0.00  0.00    +0.130 A 
ATOM      9  C   UNL     1      -0.658   2.625  -2.183  0.00  0.00    +0.061 A 
ATOM     10  C   UNL     1      -0.984   1.751  -1.164  0.00  0.00    +0.021 A 
ATOM     11 BR   UNL     1      -2.643   0.843  -1.199  0.00  0.00    -0.050 Br
BRANCH   8  12
ATOM     12  O   UNL     1       0.878   4.152  -3.163  0.00  0.00    -0.506 OA
ATOM     13  H   UNL     1       1.344   3.738  -3.902  0.00  0.00    +0.292 HD
ENDBRANCH   8  12
ENDBRANCH   1   7
BRANCH   3  14
ATOM     14  C   UNL     1       4.934   4.184  -0.079  0.00  0.00    +0.079 C 
ATOM     15  C   UNL     1       5.736   3.788   1.185  0.00  0.00    +0.032 C 
ATOM     16  C   UNL     1       5.190   4.764   2.257  0.00  0.00    +0.003 C 
ATOM     17  C   UNL     1       4.989   6.089   1.493  0.00  0.00    +0.003 C 
ATOM     18  C   UNL     1       4.826   5.721   0.008  0.00  0.00    +0.032 C 
BRANCH  14  19
ATOM     19  C   UNL     1       5.675   3.777  -1.326  0.00  0.00    +0.070 C 
ATOM     20  S   UNL     1       6.430   4.881  -2.204  0.00  0.00    -0.038 S 
BRANCH  19  21
ATOM     21  N   UNL     1       5.702   2.483  -1.703  0.00  0.00    -0.354 N 
ATOM     22  H   UNL     1       5.309   1.804  -1.133  0.00  0.00    +0.143 HD
ATOM     23  H   UNL     1       6.115   2.231  -2.543  0.00  0.00    +0.143 HD
ENDBRANCH  19  21
ENDBRANCH  14  19
ENDBRANCH   3  14
TORSDOF 5
