REMARK  Name = ZINC10858842
REMARK  5 active torsions:
REMARK  status: ('A' for Active; 'I' for Inactive)
REMARK    1  A    between atoms: C_1  and  C_2
REMARK    2  A    between atoms: C_2  and  C_28
REMARK    3  A    between atoms: C_13  and  C_15
REMARK    4  A    between atoms: C_15  and  N_16
REMARK    5  A    between atoms: N_16  and  C_17
REMARK                            x       y       z     vdW  Elec       q    Type
REMARK                         _______ _______ _______ _____ _____    ______ ____
ROOT
ATOM      1  C   UNL     1       4.997   1.111  -0.173  0.00  0.00    +0.042 C 
ATOM      2  C   UNL     1       3.755   1.968  -0.421  0.00  0.00    +0.113 C 
ATOM      3  C   UNL     1       3.998   3.367   0.085  0.00  0.00    +0.241 C 
ATOM      4  O   UNL     1       5.121   3.826   0.062  0.00  0.00    -0.273 OA
ATOM      5  N   UNL     1       2.985   4.113   0.564  0.00  0.00    -0.282 N 
ATOM      6  C   UNL     1       1.690   3.590   0.649  0.00  0.00    +0.055 A 
ATOM      7  C   UNL     1       0.602   4.421   0.863  0.00  0.00    +0.025 A 
ATOM      8  C   UNL     1      -0.669   3.884   0.950  0.00  0.00    +0.002 A 
ATOM      9  C   UNL     1      -0.861   2.520   0.820  0.00  0.00    +0.002 A 
ATOM     10  C   UNL     1       0.219   1.682   0.610  0.00  0.00    +0.025 A 
ATOM     11  C   UNL     1       1.493   2.214   0.520  0.00  0.00    +0.059 A 
ATOM     12  N   UNL     1       2.608   1.391   0.296  0.00  0.00    -0.254 N 
ATOM     13  C   UNL     1       2.627   0.114   0.725  0.00  0.00    +0.238 C 
ATOM     14  O   UNL     1       3.551  -0.613   0.426  0.00  0.00    -0.274 OA
ATOM     15  C   UNL     1       3.452   2.010  -1.920  0.00  0.00    +0.042 C 
ATOM     16  H   UNL     1       3.154   5.023   0.853  0.00  0.00    +0.155 HD
ENDROOT
BRANCH  13  17
ATOM     17  C   UNL     1       1.500  -0.412   1.576  0.00  0.00    +0.198 C 
BRANCH  17  18
ATOM     18  N   UNL     1       1.946  -1.612   2.289  0.00  0.00    -0.334 N 
ATOM     19  H   UNL     1       2.850  -1.942   2.166  0.00  0.00    +0.147 HD
BRANCH  18  20
ATOM     20  C   UNL     1       1.067  -2.283   3.147  0.00  0.00    +0.050 A 
ATOM     21  C   UNL     1      -0.227  -1.812   3.324  0.00  0.00    +0.073 A 
ATOM     22  C   UNL     1      -1.098  -2.478   4.173  0.00  0.00    +0.164 A 
ATOM     23  C   UNL     1      -0.674  -3.617   4.846  0.00  0.00    +0.164 A 
ATOM     24  C   UNL     1       0.620  -4.085   4.670  0.00  0.00    +0.071 A 
ATOM     25  C   UNL     1       1.487  -3.424   3.819  0.00  0.00    +0.065 A 
ATOM     26 CL   UNL     1       3.103  -4.018   3.595  0.00  0.00    -0.082 Cl
ATOM     27  O   UNL     1      -1.516  -4.286   5.682  0.00  0.00    -0.485 OA
ATOM     28  C   UNL     1      -2.680  -3.579   6.124  0.00  0.00    +0.270 C 
ATOM     29  C   UNL     1      -3.321  -2.900   4.905  0.00  0.00    +0.270 C 
ATOM     30  O   UNL     1      -2.362  -2.001   4.338  0.00  0.00    -0.485 OA
ENDBRANCH  18  20
ENDBRANCH  17  18
ENDBRANCH  13  17
TORSDOF 3
