REMARK  Name = ZINC22130653
REMARK  5 active torsions:
REMARK  status: ('A' for Active; 'I' for Inactive)
REMARK    1  A    between atoms: C_4  and  C_7
REMARK    2  A    between atoms: N_12  and  N_13
REMARK    3  A    between atoms: N_13  and  C_14
REMARK    4  A    between atoms: C_14  and  N_16
REMARK    5  A    between atoms: C_17  and  C_19
REMARK                            x       y       z     vdW  Elec       q    Type
REMARK                         _______ _______ _______ _____ _____    ______ ____
ROOT
ATOM      1  C   UNL     1       6.013   5.993  -0.026  0.00  0.00    +0.153 C 
ATOM      2  S   UNL     1       7.491   5.128  -0.046  0.00  0.00    -0.017 S 
ENDROOT
BRANCH   1   3
ATOM      3  N   UNL     1       4.842   5.325  -0.018  0.00  0.00    -0.262 N 
ATOM      4  C   UNL     1       4.834   3.978  -0.025  0.00  0.00    +0.256 C 
ATOM      5  O   UNL     1       5.884   3.364  -0.038  0.00  0.00    -0.270 OA
ATOM      6  H   UNL     1       3.893   5.881  -0.006  0.00  0.00    +0.157 HD
BRANCH   4   7
ATOM      7  C   UNL     1       3.555   3.249  -0.015  0.00  0.00    +0.122 A 
ATOM      8  C   UNL     1       2.353   3.936   0.000  0.00  0.00    +0.031 A 
ATOM      9  C   UNL     1       1.145   3.194   0.008  0.00  0.00    +0.018 A 
ATOM     10  C   UNL     1      -0.091   3.857   0.024  0.00  0.00    +0.011 A 
ATOM     11  C   UNL     1      -1.250   3.137   0.031  0.00  0.00    +0.001 A 
ATOM     12  C   UNL     1      -1.216   1.749   0.017  0.00  0.00    +0.004 A 
ATOM     13  C   UNL     1      -0.013   1.076   0.008  0.00  0.00    +0.047 A 
ATOM     14  C   UNL     1       1.182   1.788   0.000  0.00  0.00    +0.139 A 
ATOM     15  O   UNL     1       2.359   1.126  -0.015  0.00  0.00    -0.422 OA
ATOM     16  C   UNL     1       3.532   1.782  -0.023  0.00  0.00    +0.350 A 
ATOM     17  O   UNL     1       4.576   1.158  -0.037  0.00  0.00    -0.244 OA
ENDBRANCH   4   7
ENDBRANCH   1   3
BRANCH   1  18
ATOM     18  N   UNL     1       6.021   7.340  -0.020  0.00  0.00    -0.246 N 
ATOM     19  H   UNL     1       6.977   7.885  -0.027  0.00  0.00    +0.172 HD
BRANCH  18  25
ATOM     20  C   UNL     1       3.997  11.591   0.023  0.00  0.00    +0.080 A 
ATOM     21  C   UNL     1       5.273  12.077   0.013  0.00  0.00    +0.077 A 
ATOM     22  S   UNL     1       6.211  10.555   0.003  0.00  0.00    -0.059 S 
ATOM     23  C   UNL     1       4.820   9.433   0.003  0.00  0.00    +0.175 A 
ATOM     24  N   UNL     1       3.802  10.274   0.018  0.00  0.00    -0.224 NA
ATOM     25  N   UNL     1       4.812   8.048  -0.004  0.00  0.00    -0.243 N 
ATOM     26  H   UNL     1       3.856   7.503   0.003  0.00  0.00    +0.172 HD
BRANCH  20  30
ATOM     27  C   UNL     1       0.682  14.253   0.070  0.00  0.00    +0.000 A 
ATOM     28  C   UNL     1       0.468  12.887   0.064  0.00  0.00    +0.001 A 
ATOM     29  C   UNL     1       1.540  12.018   0.049  0.00  0.00    +0.010 A 
ATOM     30  C   UNL     1       2.841  12.519   0.039  0.00  0.00    +0.001 A 
ATOM     31  C   UNL     1       3.050  13.898   0.049  0.00  0.00    +0.010 A 
ATOM     32  C   UNL     1       1.971  14.757   0.059  0.00  0.00    +0.001 A 
ENDBRANCH  20  30
ENDBRANCH  18  25
ENDBRANCH   1  18
TORSDOF 5
