REMARK  Name = ZINC23231482
REMARK  3 active torsions:
REMARK  status: ('A' for Active; 'I' for Inactive)
REMARK    1  A    between atoms: N_11  and  C_12
REMARK    2  A    between atoms: C_18  and  C_20
REMARK    3  A    between atoms: C_23  and  C_25
REMARK                            x       y       z     vdW  Elec       q    Type
REMARK                         _______ _______ _______ _____ _____    ______ ____
ROOT
ATOM      1  C   UNL     1       4.439   3.897   0.698  0.00  0.00    +0.095 C 
ATOM      2  C   UNL     1       5.253   4.194  -0.563  0.00  0.00    +0.044 C 
ATOM      3  C   UNL     1       4.998   5.640  -1.001  0.00  0.00    +0.110 C 
ATOM      4  N   UNL     1       5.287   6.534   0.128  0.00  0.00    -0.297 N 
ATOM      5  C   UNL     1       4.627   6.282   1.416  0.00  0.00    +0.110 C 
ATOM      6  C   UNL     1       4.885   4.829   1.827  0.00  0.00    +0.044 C 
ATOM      7  C   UNL     1       6.142   7.566  -0.015  0.00  0.00    +0.253 C 
ATOM      8  O   UNL     1       6.329   8.334   0.911  0.00  0.00    -0.269 OA
ENDROOT
BRANCH   1  19
ATOM      9  C   UNL     1       2.206  -0.793   1.596  0.00  0.00    +0.002 A 
ATOM     10  C   UNL     1       1.572   0.370   1.194  0.00  0.00    +0.002 A 
ATOM     11  C   UNL     1       2.299   1.527   0.998  0.00  0.00    +0.028 A 
ATOM     12  C   UNL     1       3.669   1.526   1.210  0.00  0.00    +0.070 A 
ATOM     13  C   UNL     1       4.309   0.354   1.619  0.00  0.00    +0.067 A 
ATOM     14  C   UNL     1       3.570  -0.803   1.814  0.00  0.00    +0.028 A 
ATOM     15  N   UNL     1       5.662   0.657   1.747  0.00  0.00    -0.306 N 
ATOM     16  H   UNL     1       6.372  -0.120   2.064  0.00  0.00    +0.170 HD
ATOM     17  C   UNL     1       5.838   1.954   1.430  0.00  0.00    +0.328 A 
ATOM     18  O   UNL     1       6.905   2.539   1.439  0.00  0.00    -0.247 OA
ATOM     19  N   UNL     1       4.654   2.505   1.101  0.00  0.00    -0.289 N 
ENDBRANCH   1  19
BRANCH   7  20
ATOM     20  C   UNL     1       6.847   7.764  -1.285  0.00  0.00    +0.074 A 
ATOM     21  C   UNL     1       8.139   8.213  -1.506  0.00  0.00    +0.021 A 
ATOM     22  C   UNL     1       8.555   8.302  -2.811  0.00  0.00    +0.010 A 
ATOM     23  C   UNL     1       7.694   7.965  -3.806  0.00  0.00    -0.023 A 
ATOM     24  S   UNL     1       6.261   7.498  -2.949  0.00  0.00    -0.090 S 
BRANCH  23  25
ATOM     25  C   UNL     1       7.927   7.990  -5.295  0.00  0.00    -0.034 C 
ATOM     26  C   UNL     1       7.297   9.261  -5.904  0.00  0.00    -0.013 C 
ATOM     27  C   UNL     1       6.719   8.749  -7.253  0.00  0.00    -0.020 C 
ATOM     28  C   UNL     1       6.251   7.322  -6.874  0.00  0.00    -0.082 C 
ATOM     29  N   UNL     1       7.272   6.829  -5.925  0.00  0.00    +0.384 N 
ATOM     30  H   UNL     1       8.024   6.230  -6.461  0.00  0.00    -0.085 HD
ATOM     31  H   UNL     1       6.796   6.211  -5.150  0.00  0.00    -0.085 HD
ENDBRANCH  23  25
ENDBRANCH   7  20
TORSDOF 3
