REMARK  Name = ZINC04151222
REMARK  6 active torsions:
REMARK  status: ('A' for Active; 'I' for Inactive)
REMARK    1  A    between atoms: C_1  and  C_2
REMARK    2  A    between atoms: C_3  and  C_21
REMARK    3  A    between atoms: C_4  and  C_12
REMARK    4  A    between atoms: C_15  and  C_18
REMARK    5  A    between atoms: C_18  and  C_19
REMARK    6  A    between atoms: C_18  and  C_20
REMARK                            x       y       z     vdW  Elec       q    Type
REMARK                         _______ _______ _______ _____ _____    ______ ____
ROOT
ATOM      1  C   UNL     1      -0.017   1.501   0.028  0.00  0.00    +0.061 C 
ATOM      2  C   UNL     1       0.002  -0.005   0.013  0.00  0.00    +0.018 C 
ATOM      3  C   UNL     1      -1.163  -0.669   0.009  0.00  0.00    +0.060 C 
ATOM      4  C   UNL     1      -1.254  -2.171  -0.017  0.00  0.00    +0.177 C 
ATOM      5  N   UNL     1       0.063  -2.743   0.255  0.00  0.00    -0.221 N 
ATOM      6  C   UNL     1       1.209  -2.018   0.254  0.00  0.00    +0.218 A 
ATOM      7  N   UNL     1       2.197  -2.828   0.524  0.00  0.00    -0.201 NA
ATOM      8  C   UNL     1       1.724  -4.065   0.706  0.00  0.00    +0.247 A 
ATOM      9  N   UNL     1       0.423  -4.056   0.551  0.00  0.00    -0.156 NA
ATOM     10  N   UNL     1       1.213  -0.653  -0.002  0.00  0.00    -0.287 N 
ATOM     11  H   UNL     1       2.038  -0.175  -0.182  0.00  0.00    +0.155 HD
ENDROOT
BRANCH   3  12
ATOM     12  C   UNL     1      -2.364   0.078   0.032  0.00  0.00    +0.249 C 
ATOM     13  O   UNL     1      -2.324   1.295   0.053  0.00  0.00    -0.270 OA
ATOM     14  N   UNL     1      -3.553  -0.557   0.029  0.00  0.00    -0.267 N 
ATOM     15  C   UNL     1      -4.732   0.173   0.155  0.00  0.00    +0.125 A 
ATOM     16  C   UNL     1      -5.948  -0.494   0.262  0.00  0.00    +0.044 A 
ATOM     17  C   UNL     1      -7.112   0.243   0.388  0.00  0.00    +0.005 A 
ATOM     18  C   UNL     1      -7.020   1.628   0.402  0.00  0.00    +0.020 A 
ATOM     19  C   UNL     1      -5.780   2.225   0.291  0.00  0.00    +0.113 A 
ATOM     20  N   UNL     1      -4.686   1.496   0.178  0.00  0.00    -0.240 NA
ATOM     21  H   UNL     1      -3.587  -1.522  -0.061  0.00  0.00    +0.157 HD
ENDBRANCH   3  12
BRANCH   4  22
ATOM     22  C   UNL     1      -1.727  -2.623  -1.375  0.00  0.00    -0.018 A 
ATOM     23  C   UNL     1      -0.987  -2.318  -2.501  0.00  0.00    +0.006 A 
ATOM     24  C   UNL     1      -1.421  -2.732  -3.747  0.00  0.00    +0.004 A 
ATOM     25  C   UNL     1      -2.595  -3.451  -3.865  0.00  0.00    -0.045 A 
ATOM     26  C   UNL     1      -3.335  -3.757  -2.738  0.00  0.00    +0.004 A 
ATOM     27  C   UNL     1      -2.899  -3.347  -1.492  0.00  0.00    +0.006 A 
BRANCH  25  28
ATOM     28  C   UNL     1      -3.069  -3.902  -5.223  0.00  0.00    +0.013 C 
ATOM     29  C   UNL     1      -3.167  -5.429  -5.248  0.00  0.00    +0.012 C 
ATOM     30  C   UNL     1      -4.445  -3.298  -5.509  0.00  0.00    +0.012 C 
ENDBRANCH  25  28
ENDBRANCH   4  22
TORSDOF 3
