REMARK  Name = ZINC29050823
REMARK  8 active torsions:
REMARK  status: ('A' for Active; 'I' for Inactive)
REMARK    1  A    between atoms: C_1  and  C_2
REMARK    2  A    between atoms: C_2  and  C_3
REMARK    3  A    between atoms: C_2  and  C_4
REMARK    4  A    between atoms: C_4  and  C_6
REMARK    5  A    between atoms: C_4  and  N_13
REMARK    6  A    between atoms: C_14  and  C_16
REMARK    7  A    between atoms: C_16  and  N_17
REMARK    8  A    between atoms: C_26  and  C_28
REMARK                            x       y       z     vdW  Elec       q    Type
REMARK                         _______ _______ _______ _____ _____    ______ ____
ROOT
ATOM      1  C   UNL     1      -1.235   7.513  -0.350  0.00  0.00    +0.020 C 
ENDROOT
BRANCH   1   2
ATOM      2  N   UNL     1      -1.190   6.120   0.116  0.00  0.00    +0.396 N 
ATOM      3  C   UNL     1       0.063   5.473  -0.284  0.00  0.00    -0.041 C 
ATOM      4  C   UNL     1       0.055   4.019   0.112  0.00  0.00    -0.061 A 
ATOM      5  C   UNL     1       1.263   3.340   0.154  0.00  0.00    +0.002 A 
ATOM      6  C   UNL     1       1.302   2.006   0.508  0.00  0.00    +0.000 A 
ATOM      7  C   UNL     1       0.131   1.342   0.821  0.00  0.00    +0.000 A 
ATOM      8  C   UNL     1      -1.073   2.016   0.775  0.00  0.00    +0.004 A 
ATOM      9  C   UNL     1      -1.113   3.358   0.427  0.00  0.00    -0.047 A 
ATOM     10  C   UNL     1      -2.449   4.055   0.402  0.00  0.00    +0.029 C 
ATOM     11  C   UNL     1      -2.343   5.358  -0.391  0.00  0.00    +0.024 C 
ATOM     12  H   UNL     1      -1.236   6.135   1.215  0.00  0.00    -0.080 HD
BRANCH  11  13
ATOM     13  C   UNL     1      -3.602   6.167  -0.214  0.00  0.00    +0.197 C 
ATOM     14  O   UNL     1      -3.717   6.910   0.737  0.00  0.00    -0.278 OA
ATOM     15  N   UNL     1      -4.600   6.064  -1.114  0.00  0.00    -0.331 N 
ATOM     16  H   UNL     1      -5.520   6.654  -0.985  0.00  0.00    +0.145 HD
ATOM     17  H   UNL     1      -4.496   5.389  -1.977  0.00  0.00    +0.145 HD
ENDBRANCH  11  13
ENDBRANCH   1   2
BRANCH   1  19
ATOM     18  N   UNL     1      -1.277   8.717  -2.510  0.00  0.00    -0.310 N 
ATOM     19  C   UNL     1      -1.239   7.539  -1.857  0.00  0.00    +0.197 C 
ATOM     20  O   UNL     1      -1.208   6.500  -2.481  0.00  0.00    -0.278 OA
ATOM     21  H   UNL     1      -1.305   9.660  -1.944  0.00  0.00    +0.149 HD
BRANCH  18  22
ATOM     22  C   UNL     1      -1.281   8.742  -3.975  0.00  0.00    +0.106 C 
BRANCH  22  23
ATOM     23  C   UNL     1      -0.722  10.057  -4.456  0.00  0.00    -0.027 A 
ATOM     24  C   UNL     1      -1.056  11.229  -3.804  0.00  0.00    +0.008 A 
ATOM     25  C   UNL     1      -0.539  12.434  -4.240  0.00  0.00    +0.038 A 
ATOM     26  C   UNL     1       0.302  12.469  -5.339  0.00  0.00    +0.123 A 
ATOM     27  C   UNL     1       0.631  11.294  -5.995  0.00  0.00    +0.038 A 
ATOM     28  C   UNL     1       0.118  10.090  -5.553  0.00  0.00    +0.008 A 
ATOM     29  F   UNL     1       0.802  13.647  -5.771  0.00  0.00    -0.205 F 
ENDBRANCH  22  23
BRANCH  22  31
ATOM     30  C   UNL     1      -3.282   7.246  -3.995  0.00  0.00    +0.009 C 
ATOM     31  C   UNL     1      -2.715   8.581  -4.484  0.00  0.00    +0.008 C 
ATOM     32  C   UNL     1      -3.577   9.727  -3.952  0.00  0.00    +0.009 C 
ENDBRANCH  22  31
ENDBRANCH  18  22
ENDBRANCH   1  19
TORSDOF 6
