REMARK  Name = ZINC05078336
REMARK  6 active torsions:
REMARK  status: ('A' for Active; 'I' for Inactive)
REMARK    1  A    between atoms: C_4  and  C_7
REMARK    2  A    between atoms: N_9  and  C_10
REMARK    3  A    between atoms: C_11  and  N_30
REMARK    4  A    between atoms: C_13  and  S_18
REMARK    5  A    between atoms: S_18  and  C_19
REMARK    6  A    between atoms: C_19  and  C_20
REMARK                            x       y       z     vdW  Elec       q    Type
REMARK                         _______ _______ _______ _____ _____    ______ ____
ROOT
ATOM      1  C   UNL     1      -7.061   6.160  -0.866  0.00  0.00    +0.139 A 
ATOM      2  C   UNL     1      -6.244   5.716   0.169  0.00  0.00    +0.146 A 
ATOM      3  N   UNL     1      -5.093   5.097  -0.115  0.00  0.00    -0.207 NA
ATOM      4  C   UNL     1      -4.709   4.907  -1.359  0.00  0.00    +0.171 A 
ATOM      5  N   UNL     1      -5.471   5.321  -2.409  0.00  0.00    -0.300 N 
ATOM      6  H   UNL     1      -5.160   5.161  -3.346  0.00  0.00    +0.171 HD
ATOM      7  C   UNL     1      -6.646   5.948  -2.189  0.00  0.00    +0.275 A 
ATOM      8  O   UNL     1      -7.336   6.322  -3.124  0.00  0.00    -0.266 OA
ENDROOT
BRANCH   1  11
ATOM      9  C   UNL     1      -8.489   8.066  -1.035  0.00  0.00    +0.248 C 
ATOM     10  O   UNL     1      -7.662   8.605  -1.745  0.00  0.00    -0.270 OA
ATOM     11  N   UNL     1      -8.279   6.811  -0.591  0.00  0.00    -0.274 N 
ATOM     12  H   UNL     1      -8.968   6.355  -0.082  0.00  0.00    +0.155 HD
BRANCH   9  16
ATOM     13  C   UNL     1     -12.037  10.136   0.045  0.00  0.00    +0.000 A 
ATOM     14  C   UNL     1     -11.098  10.753  -0.763  0.00  0.00    +0.001 A 
ATOM     15  C   UNL     1      -9.943  10.086  -1.117  0.00  0.00    +0.013 A 
ATOM     16  C   UNL     1      -9.723   8.786  -0.659  0.00  0.00    +0.037 A 
ATOM     17  C   UNL     1     -10.677   8.168   0.151  0.00  0.00    +0.013 A 
ATOM     18  C   UNL     1     -11.825   8.848   0.502  0.00  0.00    +0.001 A 
ENDBRANCH   9  16
ENDBRANCH   1  11
BRANCH   2  19
ATOM     19  N   UNL     1      -6.623   5.910   1.485  0.00  0.00    -0.341 N 
ATOM     20  H   UNL     1      -7.460   6.356   1.688  0.00  0.00    +0.144 HD
ATOM     21  H   UNL     1      -6.052   5.600   2.205  0.00  0.00    +0.144 HD
ENDBRANCH   2  19
BRANCH   4  22
ATOM     22  S   UNL     1      -3.179   4.092  -1.674  0.00  0.00    -0.083 S 
BRANCH  22  23
ATOM     23  C   UNL     1      -2.630   3.787   0.023  0.00  0.00    +0.113 C 
BRANCH  23  24
ATOM     24  C   UNL     1      -1.301   3.077   0.002  0.00  0.00    -0.029 A 
ATOM     25  C   UNL     1      -1.252   1.717  -0.022  0.00  0.00    +0.005 A 
ATOM     26  C   UNL     1      -0.032   1.043  -0.037  0.00  0.00    +0.001 A 
ATOM     27  C   UNL     1       1.146   1.726  -0.041  0.00  0.00    +0.008 A 
ATOM     28  C   UNL     1       1.135   3.130  -0.023  0.00  0.00    -0.018 A 
ATOM     29  C   UNL     1      -0.105   3.816  -0.002  0.00  0.00    -0.014 A 
ATOM     30  C   UNL     1      -0.116   5.221   0.015  0.00  0.00    +0.009 A 
ATOM     31  C   UNL     1       1.062   5.903   0.012  0.00  0.00    +0.001 A 
ATOM     32  C   UNL     1       2.281   5.229  -0.009  0.00  0.00    +0.001 A 
ATOM     33  C   UNL     1       2.330   3.869  -0.026  0.00  0.00    +0.008 A 
ENDBRANCH  23  24
ENDBRANCH  22  23
ENDBRANCH   4  22
TORSDOF 6
