REMARK  Name = ZINC40320398
REMARK  13 active torsions:
REMARK  status: ('A' for Active; 'I' for Inactive)
REMARK    1  A    between atoms: C_1  and  C_2
REMARK    2  A    between atoms: C_2  and  O_3
REMARK    3  A    between atoms: O_3  and  C_4
REMARK    4  A    between atoms: C_6  and  C_34
REMARK    5  A    between atoms: C_9  and  O_10
REMARK    6  A    between atoms: O_10  and  C_11
REMARK    7  A    between atoms: C_11  and  C_12
REMARK    8  A    between atoms: C_12  and  C_14
REMARK    9  A    between atoms: C_12  and  O_33
REMARK   10  A    between atoms: C_14  and  N_15
REMARK   11  A    between atoms: N_15  and  C_16
REMARK   12  A    between atoms: N_15  and  C_25
REMARK   13  A    between atoms: C_16  and  C_17
REMARK                            x       y       z     vdW  Elec       q    Type
REMARK                         _______ _______ _______ _____ _____    ______ ____
ROOT
ATOM      1  N   UNL     1       5.200  -0.767  -7.288  0.00  0.00    +0.387 N 
ATOM      2  H   UNL     1       6.027  -0.192  -7.233  0.00  0.00    -0.081 HD
ENDROOT
BRANCH   1   3
ATOM      3  C   UNL     1       4.022   0.033  -6.927  0.00  0.00    -0.045 C 
ATOM      4  C   UNL     1       2.756  -0.833  -7.028  0.00  0.00    +0.009 C 
ATOM      5  C   UNL     1       1.496   0.064  -6.967  0.00  0.00    +0.164 C 
ATOM      6  S   UNL     1       2.101   1.657  -7.659  0.00  0.00    -0.033 S 
ATOM      7  O   UNL     1       2.011   2.661  -6.657  0.00  0.00    -0.174 OA
ATOM      8  O   UNL     1       1.489   1.873  -8.923  0.00  0.00    -0.174 OA
ATOM      9  C   UNL     1       3.873   1.224  -7.916  0.00  0.00    +0.151 C 
ENDBRANCH   1   3
BRANCH   1  10
ATOM     10  C   UNL     1       5.328  -1.897  -6.358  0.00  0.00    -0.043 C 
BRANCH  10  11
ATOM     11  C   UNL     1       5.673  -1.374  -4.963  0.00  0.00    +0.135 C 
BRANCH  11  12
ATOM     12  O   UNL     1       4.556  -0.658  -4.433  0.00  0.00    -0.390 OA
ATOM     13  H   UNL     1       3.776  -1.207  -4.274  0.00  0.00    +0.210 HD
ENDBRANCH  11  12
BRANCH  11  14
ATOM     14  C   UNL     1       6.007  -2.551  -4.044  0.00  0.00    +0.258 C 
BRANCH  14  15
ATOM     15  O   UNL     1       6.441  -2.057  -2.776  0.00  0.00    -0.486 OA
BRANCH  15  21
ATOM     16  C   UNL     1       7.211  -2.564  -0.579  0.00  0.00    +0.163 A 
ATOM     17  C   UNL     1       7.549  -3.499   0.379  0.00  0.00    +0.060 A 
ATOM     18  C   UNL     1       7.462  -4.864   0.080  0.00  0.00    +0.018 A 
ATOM     19  C   UNL     1       7.032  -5.273  -1.189  0.00  0.00    +0.015 A 
ATOM     20  C   UNL     1       6.697  -4.333  -2.137  0.00  0.00    +0.050 A 
ATOM     21  C   UNL     1       6.779  -2.979  -1.838  0.00  0.00    +0.162 A 
BRANCH  18  22
ATOM     22  C   UNL     1       7.821  -5.865   1.093  0.00  0.00    +0.258 C 
ATOM     23  O   UNL     1       7.744  -7.047   0.832  0.00  0.00    -0.296 OA
ENDBRANCH  18  22
BRANCH  16  24
ATOM     24  O   UNL     1       7.295  -1.237  -0.292  0.00  0.00    -0.489 OA
BRANCH  24  26
ATOM     25  C   UNL     1       7.774   0.640   1.153  0.00  0.00    +0.048 C 
ATOM     26  C   UNL     1       7.745  -0.883   1.018  0.00  0.00    +0.226 C 
ENDBRANCH  24  26
ENDBRANCH  16  24
ENDBRANCH  15  21
ENDBRANCH  14  15
ENDBRANCH  11  14
ENDBRANCH  10  11
ENDBRANCH   1  10
BRANCH   1  27
ATOM     27  C   UNL     1       5.047  -1.275  -8.658  0.00  0.00    -0.038 C 
BRANCH  27  28
ATOM     28  C   UNL     1       5.610  -0.271  -9.631  0.00  0.00    -0.010 A 
ATOM     29  C   UNL     1       4.800   0.268 -10.616  0.00  0.00    +0.126 A 
ATOM     30  C   UNL     1       5.318   1.189 -11.510  0.00  0.00    +0.038 A 
ATOM     31  C   UNL     1       6.644   1.571 -11.418  0.00  0.00    +0.004 A 
ATOM     32  C   UNL     1       7.452   1.033 -10.435  0.00  0.00    +0.020 A 
ATOM     33  C   UNL     1       6.934   0.116  -9.537  0.00  0.00    +0.045 A 
ATOM     34 CL   UNL     1       7.949  -0.554  -8.298  0.00  0.00    -0.083 Cl
ATOM     35  F   UNL     1       3.505  -0.106 -10.706  0.00  0.00    -0.205 F 
ENDBRANCH  27  28
ENDBRANCH   1  27
TORSDOF 12
