REMARK  Name = ZINC39276693
REMARK  9 active torsions:
REMARK  status: ('A' for Active; 'I' for Inactive)
REMARK    1  A    between atoms: C_1  and  C_2
REMARK    2  A    between atoms: C_2  and  N_3
REMARK    3  A    between atoms: C_5  and  C_18
REMARK    4  A    between atoms: N_20  and  C_21
REMARK    5  A    between atoms: C_21  and  C_22
REMARK    6  A    between atoms: C_22  and  C_23
REMARK    7  A    between atoms: N_25  and  C_26
REMARK    8  A    between atoms: C_26  and  C_27
REMARK    9  A    between atoms: C_27  and  C_28
REMARK                            x       y       z     vdW  Elec       q    Type
REMARK                         _______ _______ _______ _____ _____    ______ ____
ROOT
ATOM      1  C   UNL     1      -1.632  -3.210   1.067  0.00  0.00    +0.225 C 
ATOM      2  O   UNL     1      -0.465  -2.885   0.998  0.00  0.00    -0.275 OA
ATOM      3  N   UNL     1      -1.974  -4.512   0.996  0.00  0.00    -0.314 N 
ATOM      4  H   UNL     1      -2.907  -4.772   1.052  0.00  0.00    +0.149 HD
ENDROOT
BRANCH   1   7
ATOM      5  N   UNL     1      -1.372  -0.511   0.012  0.00  0.00    -0.328 N 
ATOM      6  C   UNL     1      -2.052  -0.767   1.288  0.00  0.00    +0.126 C 
ATOM      7  C   UNL     1      -2.698  -2.159   1.234  0.00  0.00    +0.163 C 
ATOM      8  C   UNL     1      -3.639  -2.187   0.046  0.00  0.00    +0.178 C 
ATOM      9  O   UNL     1      -4.741  -2.690   0.128  0.00  0.00    -0.291 OA
ATOM     10  C   UNL     1      -3.170  -1.585  -1.207  0.00  0.00    +0.043 A 
ATOM     11  C   UNL     1      -2.037  -0.746  -1.185  0.00  0.00    +0.044 A 
ATOM     12  C   UNL     1      -1.590  -0.165  -2.361  0.00  0.00    +0.073 A 
ATOM     13  C   UNL     1      -2.257  -0.406  -3.553  0.00  0.00    +0.168 A 
ATOM     14  C   UNL     1      -3.384  -1.235  -3.577  0.00  0.00    +0.167 A 
ATOM     15  C   UNL     1      -3.836  -1.830  -2.413  0.00  0.00    +0.062 A 
ATOM     16  O   UNL     1      -3.845  -1.304  -4.861  0.00  0.00    -0.453 OA
ATOM     17  C   UNL     1      -3.241  -0.190  -5.545  0.00  0.00    +0.466 C 
ATOM     18  O   UNL     1      -2.019   0.038  -4.819  0.00  0.00    -0.453 OA
BRANCH   5  20
ATOM     19  C   UNL     1      -0.019   1.526   0.010  0.00  0.00    +0.024 C 
ATOM     20  C   UNL     1       0.002  -0.004   0.002  0.00  0.00    +0.102 C 
ENDBRANCH   5  20
ENDBRANCH   1   7
BRANCH   3  21
ATOM     21  C   UNL     1      -0.937  -5.534   0.834  0.00  0.00    +0.113 C 
BRANCH  21  22
ATOM     22  C   UNL     1      -1.589  -6.918   0.781  0.00  0.00    +0.114 C 
BRANCH  22  23
ATOM     23  C   UNL     1      -0.522  -7.969   0.614  0.00  0.00    +0.215 C 
ATOM     24  O   UNL     1       0.644  -7.644   0.544  0.00  0.00    -0.276 OA
ATOM     25  N   UNL     1      -0.865  -9.271   0.543  0.00  0.00    -0.315 N 
ATOM     26  H   UNL     1      -1.798  -9.531   0.599  0.00  0.00    +0.149 HD
BRANCH  25  27
ATOM     27  C   UNL     1       0.172 -10.293   0.381  0.00  0.00    +0.109 C 
BRANCH  27  28
ATOM     28  C   UNL     1      -0.479 -11.676   0.328  0.00  0.00    +0.056 C 
BRANCH  28  29
ATOM     29  C   UNL     1       0.587 -12.728   0.161  0.00  0.00    -0.021 A 
ATOM     30  C   UNL     1       1.371 -13.352   1.230  0.00  0.00    +0.003 A 
ATOM     31  C   UNL     1       1.403 -13.210   2.619  0.00  0.00    +0.010 A 
ATOM     32  C   UNL     1       2.274 -13.961   3.357  0.00  0.00    +0.001 A 
ATOM     33  C   UNL     1       3.128 -14.863   2.737  0.00  0.00    +0.002 A 
ATOM     34  C   UNL     1       3.113 -15.018   1.368  0.00  0.00    +0.026 A 
ATOM     35  C   UNL     1       2.234 -14.265   0.597  0.00  0.00    +0.047 A 
ATOM     36  N   UNL     1       1.983 -14.191  -0.754  0.00  0.00    -0.360 N 
ATOM     37  C   UNL     1       0.995 -13.275  -0.995  0.00  0.00    +0.087 A 
ATOM     38  H   UNL     1       2.436 -14.713  -1.435  0.00  0.00    +0.165 HD
ENDBRANCH  28  29
ENDBRANCH  27  28
ENDBRANCH  25  27
ENDBRANCH  22  23
ENDBRANCH  21  22
ENDBRANCH   3  21
TORSDOF 8
