REMARK  Name = ZINC63830746
REMARK  8 active torsions:
REMARK  status: ('A' for Active; 'I' for Inactive)
REMARK    1  A    between atoms: C_1  and  C_2
REMARK    2  A    between atoms: C_2  and  C_3
REMARK    3  A    between atoms: C_10  and  C_12
REMARK    4  A    between atoms: C_12  and  C_13
REMARK    5  A    between atoms: C_13  and  C_14
REMARK    6  A    between atoms: C_22  and  C_24
REMARK    7  A    between atoms: C_27  and  O_30
REMARK    8  A    between atoms: O_30  and  C_31
REMARK                            x       y       z     vdW  Elec       q    Type
REMARK                         _______ _______ _______ _____ _____    ______ ____
ROOT
ATOM      1  C   UNL     1      -2.558  -6.365   6.979  0.00  0.00    -0.034 C 
ATOM      2  C   UNL     1      -3.201  -5.651   7.930  0.00  0.00    -0.000 A 
ATOM      3  C   UNL     1      -3.407  -4.210   8.123  0.00  0.00    +0.010 A 
ATOM      4  C   UNL     1      -4.110  -3.785   9.197  0.00  0.00    +0.001 A 
ATOM      5  C   UNL     1      -4.646  -4.684  10.129  0.00  0.00    +0.002 A 
ATOM      6  C   UNL     1      -4.499  -6.022  10.020  0.00  0.00    +0.026 A 
ATOM      7  C   UNL     1      -3.778  -6.579   8.929  0.00  0.00    +0.043 A 
ATOM      8  N   UNL     1      -3.502  -7.820   8.608  0.00  0.00    -0.374 N 
ATOM      9  C   UNL     1      -2.723  -7.819   7.364  0.00  0.00    +0.137 C 
ATOM     10  H   UNL     1      -3.771  -8.607   9.106  0.00  0.00    +0.161 HD
ENDROOT
BRANCH   9  11
ATOM     11  C   UNL     1      -1.375  -8.450   7.599  0.00  0.00    -0.021 A 
ATOM     12  C   UNL     1      -0.721  -8.256   8.801  0.00  0.00    +0.009 A 
ATOM     13  C   UNL     1       0.515  -8.833   9.019  0.00  0.00    +0.046 A 
ATOM     14  C   UNL     1       1.100  -9.609   8.029  0.00  0.00    +0.120 A 
ATOM     15  C   UNL     1       0.442  -9.803   6.823  0.00  0.00    +0.046 A 
ATOM     16  C   UNL     1      -0.796  -9.228   6.613  0.00  0.00    +0.009 A 
BRANCH  14  17
ATOM     17  O   UNL     1       2.316 -10.178   8.240  0.00  0.00    -0.495 OA
ATOM     18  C   UNL     1       2.858 -10.964   7.176  0.00  0.00    +0.277 C 
ENDBRANCH  14  17
ENDBRANCH   9  11
BRANCH   1  19
ATOM     19  C   UNL     1      -1.830  -5.824   5.776  0.00  0.00    +0.043 C 
BRANCH  19  20
ATOM     20  C   UNL     1      -1.911  -4.296   5.776  0.00  0.00    +0.100 C 
BRANCH  20  27
ATOM     21  C   UNL     1       0.742  -0.511   1.242  0.00  0.00    +0.153 C 
ATOM     22  N   UNL     1       0.806  -1.990   1.264  0.00  0.00    -0.253 N 
ATOM     23  N   UNL     1       0.168  -2.588   2.328  0.00  0.00    -0.163 NA
ATOM     24  C   UNL     1      -0.449  -1.924   3.254  0.00  0.00    +0.179 C 
ATOM     25  S   UNL     1      -0.235  -0.216   2.773  0.00  0.00    -0.065 S 
ATOM     26  N   UNL     1      -1.122  -2.424   4.365  0.00  0.00    -0.264 N 
ATOM     27  C   UNL     1      -1.182  -3.754   4.573  0.00  0.00    +0.219 C 
ATOM     28  O   UNL     1      -0.651  -4.515   3.793  0.00  0.00    -0.275 OA
ATOM     29  H   UNL     1       1.264  -2.501   0.578  0.00  0.00    +0.169 HD
ATOM     30  H   UNL     1      -1.547  -1.815   4.989  0.00  0.00    +0.157 HD
BRANCH  21  32
ATOM     31  C   UNL     1      -0.019   1.526   0.010  0.00  0.00    +0.006 C 
ATOM     32  C   UNL     1       0.002  -0.004   0.002  0.00  0.00    +0.032 C 
ENDBRANCH  21  32
ENDBRANCH  20  27
ENDBRANCH  19  20
ENDBRANCH   1  19
TORSDOF 6
