REMARK  Name = ZINC39992626
REMARK  8 active torsions:
REMARK  status: ('A' for Active; 'I' for Inactive)
REMARK    1  A    between atoms: C_3  and  O_33
REMARK    2  A    between atoms: C_6  and  C_7
REMARK    3  A    between atoms: C_8  and  C_9
REMARK    4  A    between atoms: C_8  and  C_11
REMARK    5  A    between atoms: N_13  and  C_14
REMARK    6  A    between atoms: C_15  and  C_23
REMARK    7  A    between atoms: N_25  and  C_26
REMARK    8  A    between atoms: C_26  and  C_27
REMARK                            x       y       z     vdW  Elec       q    Type
REMARK                         _______ _______ _______ _____ _____    ______ ____
ROOT
ATOM      1  C   UNL     1      -3.670  -4.923  -0.409  0.00  0.00    +0.085 A 
ATOM      2  C   UNL     1      -3.843  -6.294  -0.521  0.00  0.00    +0.069 A 
ATOM      3  C   UNL     1      -5.207  -6.786  -0.607  0.00  0.00    -0.023 A 
ATOM      4  C   UNL     1      -6.147  -5.817  -0.566  0.00  0.00    -0.004 A 
ATOM      5  S   UNL     1      -5.234  -4.311  -0.409  0.00  0.00    -0.077 S 
ATOM      6  C   UNL     1      -7.632  -6.002  -0.635  0.00  0.00    +0.043 C 
ATOM      7  C   UNL     1      -7.919  -7.424  -1.138  0.00  0.00    +0.005 C 
ATOM      8  C   UNL     1      -7.060  -8.413  -0.345  0.00  0.00    +0.005 C 
ATOM      9  C   UNL     1      -5.588  -8.254  -0.733  0.00  0.00    +0.037 C 
ENDROOT
BRANCH   1  12
ATOM     10  C   UNL     1      -2.499  -2.876  -0.203  0.00  0.00    +0.259 C 
ATOM     11  O   UNL     1      -3.560  -2.281  -0.190  0.00  0.00    -0.269 OA
ATOM     12  N   UNL     1      -2.481  -4.220  -0.312  0.00  0.00    -0.275 N 
ATOM     13  H   UNL     1      -1.635  -4.694  -0.324  0.00  0.00    +0.156 HD
BRANCH  10  15
ATOM     14  C   UNL     1      -1.254  -0.756   0.011  0.00  0.00    +0.032 C 
ATOM     15  C   UNL     1      -1.236  -2.130  -0.101  0.00  0.00    +0.114 C 
BRANCH  14  21
ATOM     16  C   UNL     1       0.971  -0.590   1.104  0.00  0.00    +0.011 A 
ATOM     17  C   UNL     1       2.127   0.095   1.349  0.00  0.00    +0.046 A 
ATOM     18  C   UNL     1       2.329   1.349   0.782  0.00  0.00    +0.117 A 
ATOM     19  C   UNL     1       1.357   1.914  -0.037  0.00  0.00    +0.046 A 
ATOM     20  C   UNL     1       0.196   1.238  -0.290  0.00  0.00    +0.011 A 
ATOM     21  C   UNL     1      -0.013  -0.027   0.278  0.00  0.00    -0.023 A 
BRANCH  18  22
ATOM     22  O   UNL     1       3.479   2.026   1.031  0.00  0.00    -0.507 OA
ATOM     23  H   UNL     1       4.187   1.843   0.398  0.00  0.00    +0.292 HD
ENDBRANCH  18  22
ENDBRANCH  14  21
BRANCH  15  24
ATOM     24  C   UNL     1       0.013  -2.830  -0.117  0.00  0.00    +0.104 C 
ATOM     25  N   UNL     1       1.004  -3.385  -0.131  0.00  0.00    -0.191 NA
ENDBRANCH  15  24
ENDBRANCH  10  15
ENDBRANCH   1  12
BRANCH   2  26
ATOM     26  C   UNL     1      -2.698  -7.208  -0.551  0.00  0.00    +0.247 C 
ATOM     27  O   UNL     1      -2.260  -7.670   0.486  0.00  0.00    -0.270 OA
ATOM     28  N   UNL     1      -2.130  -7.538  -1.728  0.00  0.00    -0.309 N 
ATOM     29  H   UNL     1      -2.480  -7.171  -2.555  0.00  0.00    +0.149 HD
BRANCH  28  30
ATOM     30  C   UNL     1      -0.986  -8.452  -1.759  0.00  0.00    +0.136 C 
BRANCH  30  31
ATOM     31  C   UNL     1      -0.536  -8.659  -3.207  0.00  0.00    +0.135 C 
ATOM     32  C   UNL     1       0.653  -9.651  -3.264  0.00  0.00    +0.035 C 
ATOM     33  C   UNL     1       0.512 -10.196  -4.712  0.00  0.00    +0.031 C 
ATOM     34  C   UNL     1      -1.019 -10.201  -4.913  0.00  0.00    +0.160 C 
ATOM     35  O   UNL     1      -1.583  -9.280  -3.970  0.00  0.00    -0.375 OA
ENDBRANCH  30  31
ENDBRANCH  28  30
ENDBRANCH   2  26
TORSDOF 8
