REMARK  Name = ZINC35375510
REMARK  6 active torsions:
REMARK  status: ('A' for Active; 'I' for Inactive)
REMARK    1  A    between atoms: C_1  and  C_2
REMARK    2  A    between atoms: C_2  and  C_3
REMARK    3  A    between atoms: C_3  and  C_5
REMARK    4  A    between atoms: C_3  and  N_6
REMARK    5  A    between atoms: C_11  and  C_29
REMARK    6  A    between atoms: C_29  and  C_30
REMARK                            x       y       z     vdW  Elec       q    Type
REMARK                         _______ _______ _______ _____ _____    ______ ____
ROOT
ATOM      1  N   UNL     1       2.148  -0.104   1.172  0.00  0.00    -0.239 N 
ATOM      2  C   UNL     1       2.959  -0.473   0.174  0.00  0.00    +0.227 C 
ATOM      3  O   UNL     1       2.641  -1.167  -0.768  0.00  0.00    -0.275 OA
ATOM      4  C   UNL     1       4.335   0.112   0.402  0.00  0.00    +0.107 C 
ATOM      5  C   UNL     1       5.323  -1.030   0.724  0.00  0.00    +0.076 C 
ATOM      6  N   UNL     1       6.097  -0.545   1.897  0.00  0.00    -0.295 NA
ATOM      7  C   UNL     1       5.098   0.159   2.723  0.00  0.00    +0.136 C 
ATOM      8  C   UNL     1       4.171   0.903   1.730  0.00  0.00    +0.122 C 
ATOM      9  C   UNL     1       2.723   0.672   2.098  0.00  0.00    +0.228 C 
ATOM     10  O   UNL     1       2.171   1.117   3.080  0.00  0.00    -0.275 OA
ATOM     11  C   UNL     1       4.333  -0.797   3.595  0.00  0.00    +0.005 A 
ATOM     12  C   UNL     1       3.537  -1.889   3.333  0.00  0.00    +0.008 A 
ATOM     13  C   UNL     1       2.955  -2.588   4.376  0.00  0.00    +0.002 A 
ATOM     14  C   UNL     1       3.175  -2.187   5.681  0.00  0.00    +0.022 A 
ATOM     15  C   UNL     1       3.972  -1.092   5.949  0.00  0.00    +0.062 A 
ATOM     16  C   UNL     1       4.562  -0.383   4.903  0.00  0.00    +0.057 A 
ATOM     17  N   UNL     1       5.395   0.738   4.917  0.00  0.00    -0.282 N 
ATOM     18  C   UNL     1       5.754   1.119   3.676  0.00  0.00    +0.243 C 
ATOM     19  O   UNL     1       6.469   2.055   3.384  0.00  0.00    -0.273 OA
ATOM     20 CL   UNL     1       4.240  -0.598   7.591  0.00  0.00    -0.082 Cl
ATOM     21  H   UNL     1       6.507  -1.315   2.403  0.00  0.00    +0.124 HD
ATOM     22  H   UNL     1       5.681   1.190   5.726  0.00  0.00    +0.155 HD
ENDROOT
BRANCH   1  23
ATOM     23  C   UNL     1       0.742  -0.511   1.242  0.00  0.00    +0.081 C 
ATOM     24  C   UNL     1       0.655  -2.037   1.299  0.00  0.00    +0.028 C 
BRANCH  23  26
ATOM     25  C   UNL     1      -0.019   1.526   0.010  0.00  0.00    +0.006 C 
ATOM     26  C   UNL     1       0.002  -0.004   0.002  0.00  0.00    +0.019 C 
ENDBRANCH  23  26
ENDBRANCH   1  23
BRANCH   5  27
ATOM     27  C   UNL     1       6.253  -1.279  -0.465  0.00  0.00    +0.115 C 
BRANCH  27  28
ATOM     28  C   UNL     1       7.125  -2.475  -0.178  0.00  0.00    +0.212 C 
ATOM     29  O   UNL     1       7.013  -3.069   0.873  0.00  0.00    -0.276 OA
ATOM     30  N   UNL     1       8.029  -2.884  -1.091  0.00  0.00    -0.329 N 
ATOM     31  H   UNL     1       8.119  -2.409  -1.931  0.00  0.00    +0.145 HD
ATOM     32  H   UNL     1       8.590  -3.653  -0.906  0.00  0.00    +0.145 HD
ENDBRANCH  27  28
ENDBRANCH   5  27
TORSDOF 4
