REMARK  Name = ZINC63393376
REMARK  9 active torsions:
REMARK  status: ('A' for Active; 'I' for Inactive)
REMARK    1  A    between atoms: C_1  and  C_2
REMARK    2  A    between atoms: C_2  and  C_3
REMARK    3  A    between atoms: C_5  and  C_17
REMARK    4  A    between atoms: C_7  and  C_15
REMARK    5  A    between atoms: C_8  and  N_14
REMARK    6  A    between atoms: C_19  and  O_26
REMARK    7  A    between atoms: C_20  and  O_24
REMARK    8  A    between atoms: O_24  and  C_25
REMARK    9  A    between atoms: O_26  and  C_27
REMARK                            x       y       z     vdW  Elec       q    Type
REMARK                         _______ _______ _______ _____ _____    ______ ____
ROOT
ATOM      1  C   UNL     1       0.707  -0.490  -1.238  0.00  0.00    +0.069 C 
ATOM      2  C   UNL     1       1.976  -0.816  -1.299  0.00  0.00    +0.030 C 
ATOM      3  C   UNL     1       3.060  -0.961  -0.266  0.00  0.00    +0.098 C 
ATOM      4  C   UNL     1       3.816  -2.221  -0.645  0.00  0.00    +0.097 C 
ATOM      5  C   UNL     1       3.588  -2.862  -1.810  0.00  0.00    +0.195 C 
ATOM      6  O   UNL     1       2.690  -2.522  -2.752  0.00  0.00    -0.448 OA
ATOM      7  C   UNL     1       2.226  -1.170  -2.765  0.00  0.00    +0.343 C 
ATOM      8  N   UNL     1       0.883  -1.050  -3.341  0.00  0.00    -0.138 NA
ATOM      9  N   UNL     1       0.119  -0.659  -2.450  0.00  0.00    -0.155 NA
ENDROOT
BRANCH   3  10
ATOM     10  C   UNL     1       2.456  -1.105   1.107  0.00  0.00    -0.030 A 
ATOM     11  C   UNL     1       2.748  -0.178   2.090  0.00  0.00    +0.054 A 
ATOM     12  C   UNL     1       2.193  -0.308   3.353  0.00  0.00    +0.163 A 
ATOM     13  C   UNL     1       1.342  -1.374   3.628  0.00  0.00    +0.175 A 
ATOM     14  C   UNL     1       1.052  -2.300   2.639  0.00  0.00    +0.063 A 
ATOM     15  C   UNL     1       1.606  -2.161   1.378  0.00  0.00    +0.023 A 
ATOM     16 BR   UNL     1      -0.104  -3.749   3.009  0.00  0.00    -0.046 Br
BRANCH  13  17
ATOM     17  O   UNL     1       0.795  -1.506   4.867  0.00  0.00    -0.490 OA
ATOM     18  C   UNL     1      -0.463  -0.867   5.093  0.00  0.00    +0.277 C 
ENDBRANCH  13  17
BRANCH  12  19
ATOM     19  O   UNL     1       2.481   0.603   4.321  0.00  0.00    -0.491 OA
ATOM     20  C   UNL     1       3.363   1.669   3.966  0.00  0.00    +0.277 C 
ENDBRANCH  12  19
ENDBRANCH   3  10
BRANCH   5  21
ATOM     21  N   UNL     1       4.352  -3.974  -2.061  0.00  0.00    -0.329 N 
ATOM     22  H   UNL     1       5.015  -4.263  -1.414  0.00  0.00    +0.145 HD
ATOM     23  H   UNL     1       4.228  -4.472  -2.884  0.00  0.00    +0.145 HD
ENDBRANCH   5  21
BRANCH   1  25
ATOM     24  C   UNL     1      -0.019   1.526   0.010  0.00  0.00    +0.010 C 
ATOM     25  C   UNL     1       0.002  -0.004   0.002  0.00  0.00    +0.054 C 
ENDBRANCH   1  25
BRANCH   4  26
ATOM     26  C   UNL     1       4.797  -2.744   0.258  0.00  0.00    +0.101 C 
ATOM     27  N   UNL     1       5.575  -3.158   0.975  0.00  0.00    -0.191 NA
ENDBRANCH   4  26
TORSDOF 6
