REMARK  Name = ZINC35128681
REMARK  12 active torsions:
REMARK  status: ('A' for Active; 'I' for Inactive)
REMARK    1  A    between atoms: C_1  and  C_2
REMARK    2  A    between atoms: N_11  and  C_12
REMARK    3  A    between atoms: N_11  and  C_13
REMARK    4  A    between atoms: C_14  and  C_16
REMARK    5  A    between atoms: C_16  and  C_17
REMARK    6  A    between atoms: C_17  and  C_18
REMARK    7  A    between atoms: C_18  and  S_19
REMARK    8  A    between atoms: S_19  and  C_20
REMARK    9  A    between atoms: C_23  and  C_33
REMARK   10  A    between atoms: N_24  and  C_25
REMARK   11  A    between atoms: C_28  and  O_31
REMARK   12  A    between atoms: O_31  and  C_32
REMARK                            x       y       z     vdW  Elec       q    Type
REMARK                         _______ _______ _______ _____ _____    ______ ____
ROOT
ATOM      1  C   UNL     1      -4.040  -9.937   2.212  0.00  0.00    +0.196 A 
ATOM      2  N   UNL     1      -3.069 -10.174   3.066  0.00  0.00    -0.122 NA
ATOM      3  N   UNL     1      -3.192 -11.353   3.561  0.00  0.00    -0.128 NA
ATOM      4  C   UNL     1      -4.250 -11.944   3.055  0.00  0.00    +0.169 A 
ATOM      5  N   UNL     1      -4.829 -11.054   2.178  0.00  0.00    -0.270 N 
ENDROOT
BRANCH   5   6
ATOM      6  C   UNL     1      -5.986 -11.252   1.409  0.00  0.00    +0.051 A 
ATOM      7  C   UNL     1      -7.217 -11.405   2.032  0.00  0.00    +0.030 A 
ATOM      8  C   UNL     1      -8.355 -11.600   1.275  0.00  0.00    +0.047 A 
ATOM      9  C   UNL     1      -8.268 -11.643  -0.109  0.00  0.00    +0.120 A 
ATOM     10  C   UNL     1      -7.038 -11.490  -0.733  0.00  0.00    +0.047 A 
ATOM     11  C   UNL     1      -5.901 -11.289   0.024  0.00  0.00    +0.030 A 
BRANCH   9  12
ATOM     12  O   UNL     1      -9.389 -11.835  -0.855  0.00  0.00    -0.495 OA
ATOM     13  C   UNL     1      -9.226 -11.869  -2.274  0.00  0.00    +0.277 C 
ENDBRANCH   9  12
ENDBRANCH   5   6
BRANCH   4  14
ATOM     14  C   UNL     1      -4.730 -13.306   3.370  0.00  0.00    +0.020 A 
ATOM     15  C   UNL     1      -5.665 -13.929   2.542  0.00  0.00    +0.011 A 
ATOM     16  C   UNL     1      -6.110 -15.200   2.841  0.00  0.00    +0.001 A 
ATOM     17  C   UNL     1      -5.631 -15.857   3.961  0.00  0.00    +0.000 A 
ATOM     18  C   UNL     1      -4.704 -15.246   4.786  0.00  0.00    +0.001 A 
ATOM     19  C   UNL     1      -4.247 -13.977   4.494  0.00  0.00    +0.011 A 
ENDBRANCH   4  14
BRANCH   1  20
ATOM     20  S   UNL     1      -4.283  -8.456   1.289  0.00  0.00    -0.086 S 
BRANCH  20  21
ATOM     21  C   UNL     1      -2.902  -7.393   1.793  0.00  0.00    +0.078 C 
BRANCH  21  22
ATOM     22  C   UNL     1      -2.993  -6.056   1.056  0.00  0.00    +0.020 C 
BRANCH  22  23
ATOM     23  C   UNL     1      -1.829  -5.159   1.481  0.00  0.00    +0.097 C 
BRANCH  23  36
ATOM     24  C   UNL     1      -0.874   0.875   0.617  0.00  0.00    +0.030 C 
ATOM     25  C   UNL     1      -1.068  -0.473   1.315  0.00  0.00    +0.092 C 
ATOM     26  C   UNL     1      -1.066  -1.598   0.273  0.00  0.00    +0.130 C 
ATOM     27  N   UNL     1      -0.991  -2.888   0.974  0.00  0.00    -0.298 N 
ATOM     28  C   UNL     1       0.112  -3.119   1.916  0.00  0.00    +0.127 C 
ATOM     29  C   UNL     1       0.110  -1.994   2.959  0.00  0.00    +0.128 C 
ATOM     30  N   UNL     1       0.033  -0.702   2.261  0.00  0.00    -0.280 N 
ATOM     31  C   UNL     1       0.959   0.253   2.481  0.00  0.00    +0.305 C 
ATOM     32  O   UNL     1       0.706   1.414   2.224  0.00  0.00    -0.252 OA
ATOM     33  N   UNL     1       2.163  -0.080   2.985  0.00  0.00    -0.292 N 
ATOM     34  C   UNL     1       3.040   0.959   3.532  0.00  0.00    +0.133 C 
ATOM     35  C   UNL     1       2.596  -1.479   2.986  0.00  0.00    +0.133 C 
ATOM     36  C   UNL     1      -1.918  -3.841   0.755  0.00  0.00    +0.216 C 
ATOM     37  O   UNL     1      -2.824  -3.639  -0.025  0.00  0.00    -0.276 OA
ENDBRANCH  23  36
ENDBRANCH  22  23
ENDBRANCH  21  22
ENDBRANCH  20  21
ENDBRANCH   1  20
TORSDOF 8
