REMARK  Name = ZINC21323424
REMARK  7 active torsions:
REMARK  status: ('A' for Active; 'I' for Inactive)
REMARK    1  A    between atoms: C_1  and  C_2
REMARK    2  A    between atoms: C_2  and  C_25
REMARK    3  A    between atoms: N_3  and  N_4
REMARK    4  A    between atoms: C_8  and  S_11
REMARK    5  A    between atoms: N_9  and  N_10
REMARK    6  A    between atoms: S_11  and  C_12
REMARK    7  A    between atoms: C_12  and  C_13
REMARK                            x       y       z     vdW  Elec       q    Type
REMARK                         _______ _______ _______ _____ _____    ______ ____
ROOT
ATOM      1  N   UNL     1       1.754  -1.722  -0.024  0.00  0.00    -0.204 N 
ATOM      2  C   UNL     1       1.308  -0.409  -0.013  0.00  0.00    +0.254 A 
ATOM      3  N   UNL     1       2.064   0.662  -0.014  0.00  0.00    -0.109 NA
ATOM      4  N   UNL     1       1.225   1.784  -0.000  0.00  0.00    -0.119 NA
ATOM      5  C   UNL     1      -0.016   1.362   0.009  0.00  0.00    +0.210 A 
ATOM      6  N   UNL     1       0.002  -0.004   0.002  0.00  0.00    -0.211 N 
ATOM      7  H   UNL     1       1.030  -2.550  -0.021  0.00  0.00    +0.178 HD
ENDROOT
BRANCH   1  10
ATOM      8  C   UNL     1       2.553  -4.358  -0.044  0.00  0.00    +0.068 C 
ATOM      9  C   UNL     1       3.546  -3.225  -0.048  0.00  0.00    +0.063 C 
ATOM     10  N   UNL     1       3.128  -1.995  -0.038  0.00  0.00    -0.184 NA
BRANCH   9  11
ATOM     11  C   UNL     1       4.992  -3.512  -0.064  0.00  0.00    -0.002 A 
ATOM     12  C   UNL     1       5.445  -4.833  -0.069  0.00  0.00    +0.012 A 
ATOM     13  C   UNL     1       6.799  -5.096  -0.088  0.00  0.00    +0.039 A 
ATOM     14  C   UNL     1       7.710  -4.051  -0.092  0.00  0.00    +0.123 A 
ATOM     15  C   UNL     1       7.267  -2.738  -0.081  0.00  0.00    +0.039 A 
ATOM     16  C   UNL     1       5.916  -2.463  -0.067  0.00  0.00    +0.012 A 
ATOM     17  F   UNL     1       9.035  -4.314  -0.106  0.00  0.00    -0.205 F 
ENDBRANCH   9  11
ENDBRANCH   1  10
BRANCH   6  18
ATOM     18  N   UNL     1      -1.092  -0.822   0.007  0.00  0.00    -0.294 N 
ATOM     19  H   UNL     1      -2.103  -0.388   0.019  0.00  0.00    +0.163 HD
ATOM     20  H   UNL     1      -0.962  -1.914  -0.000  0.00  0.00    +0.163 HD
ENDBRANCH   6  18
BRANCH   5  21
ATOM     21  S   UNL     1      -1.456   2.378   0.022  0.00  0.00    -0.075 S 
BRANCH  21  22
ATOM     22  C   UNL     1      -0.799   4.069   0.028  0.00  0.00    +0.173 C 
BRANCH  22  23
ATOM     23  C   UNL     1      -1.942   5.051   0.039  0.00  0.00    +0.229 C 
ATOM     24  O   UNL     1      -3.086   4.650   0.043  0.00  0.00    -0.275 OA
ATOM     25  N   UNL     1      -1.692   6.376   0.045  0.00  0.00    -0.264 N 
ATOM     26  C   UNL     1      -2.742   7.279   0.055  0.00  0.00    +0.165 A 
ATOM     27  N   UNL     1      -2.700   8.591   0.062  0.00  0.00    -0.225 NA
ATOM     28  C   UNL     1      -3.815   9.353   0.071  0.00  0.00    +0.080 A 
ATOM     29  C   UNL     1      -3.908  10.764   0.079  0.00  0.00    +0.029 A 
ATOM     30  C   UNL     1      -5.129  11.385   0.088  0.00  0.00    +0.002 A 
ATOM     31  C   UNL     1      -6.312  10.660   0.089  0.00  0.00    +0.001 A 
ATOM     32  C   UNL     1      -6.258   9.278   0.082  0.00  0.00    +0.017 A 
ATOM     33  C   UNL     1      -5.039   8.647   0.073  0.00  0.00    +0.041 A 
ATOM     34  S   UNL     1      -4.500   6.954   0.054  0.00  0.00    -0.052 S 
ATOM     35  H   UNL     1      -0.654   6.739   0.042  0.00  0.00    +0.157 HD
ENDBRANCH  22  23
ENDBRANCH  21  22
ENDBRANCH   5  21
TORSDOF 6
