REMARK  Name = ZINC51951918
REMARK  6 active torsions:
REMARK  status: ('A' for Active; 'I' for Inactive)
REMARK    1  A    between atoms: C_1  and  N_2
REMARK    2  A    between atoms: N_2  and  C_3
REMARK    3  A    between atoms: C_3  and  C_5
REMARK    4  A    between atoms: C_3  and  C_18
REMARK    5  A    between atoms: N_12  and  C_17
REMARK    6  A    between atoms: N_15  and  C_16
REMARK                            x       y       z     vdW  Elec       q    Type
REMARK                         _______ _______ _______ _____ _____    ______ ____
ROOT
ATOM      1  C   UNL     1      -1.617  -1.938   0.557  0.00  0.00    -0.045 A 
ATOM      2  C   UNL     1      -0.676  -2.911   0.280  0.00  0.00    +0.031 A 
ATOM      3  C   UNL     1      -0.904  -4.222   0.670  0.00  0.00    +0.070 A 
ATOM      4  C   UNL     1      -2.083  -4.553   1.342  0.00  0.00    +0.071 A 
ATOM      5  C   UNL     1      -3.021  -3.571   1.616  0.00  0.00    +0.043 A 
ATOM      6  C   UNL     1      -2.783  -2.265   1.228  0.00  0.00    +0.022 A 
ATOM      7 BR   UNL     1      -4.059  -0.922   1.609  0.00  0.00    -0.050 Br
ATOM      8  N   UNL     1      -2.028  -5.921   1.600  0.00  0.00    -0.295 N 
ATOM      9  C   UNL     1      -0.869  -6.399   1.108  0.00  0.00    +0.330 A 
ATOM     10  O   UNL     1      -0.510  -7.561   1.167  0.00  0.00    -0.246 OA
ATOM     11  N   UNL     1      -0.169  -5.399   0.541  0.00  0.00    -0.295 N 
ATOM     12  C   UNL     1       1.141  -5.526  -0.102  0.00  0.00    +0.154 C 
ATOM     13  C   UNL     1      -3.055  -6.705   2.289  0.00  0.00    +0.154 C 
ENDROOT
BRANCH   1  14
ATOM     14  C   UNL     1      -1.370  -0.513   0.133  0.00  0.00    -0.037 C 
BRANCH  14  16
ATOM     15  C   UNL     1       0.326   1.103  -0.383  0.00  0.00    -0.100 C 
ATOM     16  N   UNL     1       0.066  -0.316  -0.107  0.00  0.00    +0.382 N 
ATOM     17  H   UNL     1       0.354  -0.870  -0.900  0.00  0.00    -0.085 HD
ATOM     18  H   UNL     1       0.586  -0.601   0.709  0.00  0.00    -0.085 HD
ENDBRANCH  14  16
BRANCH  14  19
ATOM     19  C   UNL     1      -2.147  -0.221  -1.152  0.00  0.00    -0.021 C 
ATOM     20  C   UNL     1      -3.486  -0.971  -1.245  0.00  0.00    +0.002 C 
ATOM     21  C   UNL     1      -3.169  -1.193  -2.733  0.00  0.00    +0.000 C 
ATOM     22  C   UNL     1      -1.684  -1.060  -2.356  0.00  0.00    +0.002 C 
ENDBRANCH  14  19
ENDBRANCH   1  14
TORSDOF 3
