REMARK  Name = ZINC08624547
REMARK  8 active torsions:
REMARK  status: ('A' for Active; 'I' for Inactive)
REMARK    1  A    between atoms: C_4  and  N_7
REMARK    2  A    between atoms: C_13  and  C_15
REMARK    3  A    between atoms: C_15  and  C_16
REMARK    4  A    between atoms: C_18  and  O_35
REMARK    5  A    between atoms: C_20  and  O_34
REMARK    6  A    between atoms: C_22  and  C_25
REMARK    7  A    between atoms: C_25  and  N_26
REMARK    8  A    between atoms: C_27  and  C_29
REMARK                            x       y       z     vdW  Elec       q    Type
REMARK                         _______ _______ _______ _____ _____    ______ ____
ROOT
ATOM      1  C   UNL     1      -0.013   1.086   0.008  0.00  0.00    +0.159 C 
ATOM      2  C   UNL     1       1.429   1.629  -0.003  0.00  0.00    +0.175 C 
ATOM      3  C   UNL     1       1.553   2.402   1.333  0.00  0.00    +0.176 C 
ATOM      4  C   UNL     1       0.413   1.778   2.177  0.00  0.00    +0.167 C 
ATOM      5  O   UNL     1      -0.639   1.560   1.212  0.00  0.00    -0.366 OA
ENDROOT
BRANCH   3   6
ATOM      6  O   UNL     1       2.825   2.168   1.941  0.00  0.00    -0.387 OA
ATOM      7  H   UNL     1       3.576   2.461   1.407  0.00  0.00    +0.210 HD
ENDBRANCH   3   6
BRANCH   2   8
ATOM      8  O   UNL     1       2.369   0.554  -0.048  0.00  0.00    -0.387 OA
ATOM      9  H   UNL     1       3.293   0.839  -0.056  0.00  0.00    +0.210 HD
ENDBRANCH   2   8
BRANCH   1  10
ATOM     10  C   UNL     1      -0.773   1.602  -1.215  0.00  0.00    +0.130 C 
BRANCH  10  17
ATOM     11  N   UNL     1      -4.281   1.131  -4.722  0.00  0.00    -0.327 N 
ATOM     12  C   UNL     1      -4.543   0.095  -3.715  0.00  0.00    +0.124 C 
ATOM     13  C   UNL     1      -4.336   0.683  -2.315  0.00  0.00    +0.126 C 
ATOM     14  N   UNL     1      -2.994   1.284  -2.255  0.00  0.00    -0.298 N 
ATOM     15  C   UNL     1      -2.610   2.236  -3.308  0.00  0.00    +0.126 C 
ATOM     16  C   UNL     1      -2.883   1.581  -4.672  0.00  0.00    +0.124 C 
ATOM     17  C   UNL     1      -2.142   0.975  -1.258  0.00  0.00    +0.218 C 
ATOM     18  O   UNL     1      -2.477   0.192  -0.395  0.00  0.00    -0.276 OA
BRANCH  11  22
ATOM     19  C   UNL     1      -5.279  -0.209  -8.536  0.00  0.00    +0.000 A 
ATOM     20  C   UNL     1      -4.775   1.067  -8.363  0.00  0.00    +0.002 A 
ATOM     21  C   UNL     1      -4.442   1.515  -7.100  0.00  0.00    +0.023 A 
ATOM     22  C   UNL     1      -4.616   0.682  -6.002  0.00  0.00    +0.030 A 
ATOM     23  C   UNL     1      -5.118  -0.601  -6.179  0.00  0.00    +0.023 A 
ATOM     24  C   UNL     1      -5.454  -1.040  -7.445  0.00  0.00    +0.002 A 
ENDBRANCH  11  22
ENDBRANCH  10  17
ENDBRANCH   1  10
BRANCH   4  25
ATOM     25  C   UNL     1      -0.047   2.750   3.265  0.00  0.00    +0.138 C 
BRANCH  25  26
ATOM     26  N   UNL     1      -1.038   2.093   4.120  0.00  0.00    -0.306 N 
ATOM     27  C   UNL     1      -1.587   2.763   5.152  0.00  0.00    +0.279 C 
ATOM     28  O   UNL     1      -1.259   3.913   5.375  0.00  0.00    -0.267 OA
ATOM     29  H   UNL     1      -1.300   1.176   3.943  0.00  0.00    +0.149 HD
BRANCH  27  30
ATOM     30  C   UNL     1      -2.580   2.105   6.009  0.00  0.00    +0.189 A 
ATOM     31  C   UNL     1      -3.211   2.665   7.082  0.00  0.00    +0.054 A 
ATOM     32  C   UNL     1      -4.071   1.685   7.601  0.00  0.00    +0.042 A 
ATOM     33  C   UNL     1      -3.929   0.583   6.832  0.00  0.00    +0.196 A 
ATOM     34  O   UNL     1      -3.034   0.842   5.870  0.00  0.00    -0.458 OA
ENDBRANCH  27  30
ENDBRANCH  25  26
ENDBRANCH   4  25
TORSDOF 8
