REMARK  Name = ZINC14234305
REMARK  11 active torsions:
REMARK  status: ('A' for Active; 'I' for Inactive)
REMARK    1  A    between atoms: C_1  and  C_2
REMARK    2  A    between atoms: C_2  and  O_3
REMARK    3  A    between atoms: O_3  and  C_4
REMARK    4  A    between atoms: C_9  and  C_10
REMARK    5  A    between atoms: N_12  and  N_13
REMARK    6  A    between atoms: C_14  and  C_16
REMARK    7  A    between atoms: C_19  and  C_22
REMARK    8  A    between atoms: C_22  and  S_23
REMARK    9  A    between atoms: S_23  and  C_24
REMARK   10  A    between atoms: C_26  and  C_31
REMARK   11  A    between atoms: C_28  and  C_30
REMARK                            x       y       z     vdW  Elec       q    Type
REMARK                         _______ _______ _______ _____ _____    ______ ____
ROOT
ATOM      1  N   UNL     1       2.333   4.249   0.002  0.00  0.00    -0.230 N 
ATOM      2  C   UNL     1       1.172   3.565   0.009  0.00  0.00    +0.260 C 
ATOM      3  O   UNL     1       0.114   4.164   0.022  0.00  0.00    -0.269 OA
ATOM      4  H   UNL     1       3.177   3.771  -0.008  0.00  0.00    +0.173 HD
ENDROOT
BRANCH   2   5
ATOM      5  C   UNL     1       1.184   2.087   0.002  0.00  0.00    +0.038 A 
ATOM      6  C   UNL     1      -0.017   1.375   0.010  0.00  0.00    +0.013 A 
ATOM      7  C   UNL     1       0.002  -0.004   0.002  0.00  0.00    +0.005 A 
ATOM      8  C   UNL     1       1.208  -0.682  -0.013  0.00  0.00    -0.037 A 
ATOM      9  C   UNL     1       2.402   0.016  -0.020  0.00  0.00    +0.005 A 
ATOM     10  C   UNL     1       2.397   1.396  -0.013  0.00  0.00    +0.013 A 
BRANCH   8  11
ATOM     11  C   UNL     1       1.221  -2.189  -0.020  0.00  0.00    +0.112 C 
BRANCH  11  12
ATOM     12  S   UNL     1       1.209  -2.785  -1.729  0.00  0.00    -0.081 S 
BRANCH  12  13
ATOM     13  C   UNL     1       1.227  -4.524  -1.448  0.00  0.00    +0.189 A 
ATOM     14  N   UNL     1       1.248  -4.978  -0.202  0.00  0.00    -0.227 NA
ATOM     15  C   UNL     1       1.256  -6.277   0.043  0.00  0.00    +0.043 A 
ATOM     16  C   UNL     1       1.254  -7.167  -1.020  0.00  0.00    +0.046 A 
ATOM     17  C   UNL     1       1.237  -6.658  -2.309  0.00  0.00    +0.043 A 
ATOM     18  N   UNL     1       1.224  -5.348  -2.486  0.00  0.00    -0.227 NA
ATOM     19  C   UNL     1       1.233  -7.588  -3.495  0.00  0.00    +0.066 C 
ATOM     20  C   UNL     1       1.274  -6.785   1.462  0.00  0.00    +0.066 C 
ENDBRANCH  12  13
ENDBRANCH  11  12
ENDBRANCH   8  11
ENDBRANCH   2   5
BRANCH   1  23
ATOM     21  C   UNL     1       3.483   6.333   0.002  0.00  0.00    +0.264 C 
ATOM     22  O   UNL     1       4.541   5.734  -0.011  0.00  0.00    -0.269 OA
ATOM     23  N   UNL     1       2.321   5.650   0.009  0.00  0.00    -0.230 N 
ATOM     24  H   UNL     1       1.477   6.128   0.020  0.00  0.00    +0.173 HD
BRANCH  21  30
ATOM     25  C   UNL     1       4.675   8.524   0.002  0.00  0.00    +0.133 A 
ATOM     26  C   UNL     1       4.652   9.911   0.009  0.00  0.00    +0.046 A 
ATOM     27  C   UNL     1       3.446  10.582   0.022  0.00  0.00    +0.004 A 
ATOM     28  C   UNL     1       2.252   9.879   0.030  0.00  0.00    +0.001 A 
ATOM     29  C   UNL     1       2.257   8.501   0.018  0.00  0.00    +0.017 A 
ATOM     30  C   UNL     1       3.470   7.809   0.009  0.00  0.00    +0.080 A 
BRANCH  25  31
ATOM     31  O   UNL     1       5.860   7.863  -0.013  0.00  0.00    -0.491 OA
BRANCH  31  33
ATOM     32  C   UNL     1       8.274   7.744  -0.036  0.00  0.00    +0.048 C 
ATOM     33  C   UNL     1       7.047   8.658  -0.020  0.00  0.00    +0.226 C 
ENDBRANCH  31  33
ENDBRANCH  25  31
ENDBRANCH  21  30
ENDBRANCH   1  23
TORSDOF 8
