REMARK  Name = ZINC20290535
REMARK  9 active torsions:
REMARK  status: ('A' for Active; 'I' for Inactive)
REMARK    1  A    between atoms: C_1  and  C_2
REMARK    2  A    between atoms: C_7  and  N_8
REMARK    3  A    between atoms: C_9  and  C_11
REMARK    4  A    between atoms: C_11  and  C_12
REMARK    5  A    between atoms: C_12  and  S_13
REMARK    6  A    between atoms: S_13  and  C_14
REMARK    7  A    between atoms: C_17  and  C_20
REMARK    8  A    between atoms: N_18  and  N_19
REMARK    9  A    between atoms: C_25  and  O_26
REMARK                            x       y       z     vdW  Elec       q    Type
REMARK                         _______ _______ _______ _____ _____    ______ ____
ROOT
ATOM      1  C   UNL     1      -0.466  -1.310   8.832  0.00  0.00    +0.209 A 
ATOM      2  N   UNL     1      -0.403  -2.601   8.595  0.00  0.00    -0.121 NA
ATOM      3  N   UNL     1      -0.478  -3.257   9.698  0.00  0.00    -0.127 NA
ATOM      4  C   UNL     1      -0.594  -2.425  10.707  0.00  0.00    +0.185 A 
ATOM      5  N   UNL     1      -0.584  -1.152  10.184  0.00  0.00    -0.224 N 
ENDROOT
BRANCH   4   6
ATOM      6  C   UNL     1      -0.708  -2.786  12.136  0.00  0.00    +0.062 A 
ATOM      7  C   UNL     1      -1.714  -2.225  12.923  0.00  0.00    +0.015 A 
ATOM      8  C   UNL     1      -1.816  -2.566  14.255  0.00  0.00    +0.001 A 
ATOM      9  C   UNL     1      -0.923  -3.464  14.816  0.00  0.00    +0.004 A 
ATOM     10  C   UNL     1       0.078  -4.026  14.046  0.00  0.00    +0.046 A 
ATOM     11  C   UNL     1       0.189  -3.698  12.704  0.00  0.00    +0.128 A 
BRANCH  11  12
ATOM     12  O   UNL     1       1.168  -4.255  11.945  0.00  0.00    -0.506 OA
ATOM     13  H   UNL     1       1.994  -3.752  11.937  0.00  0.00    +0.292 HD
ENDBRANCH  11  12
ENDBRANCH   4   6
BRANCH   5  14
ATOM     14  N   UNL     1      -0.677   0.024  10.872  0.00  0.00    -0.295 N 
ATOM     15  H   UNL     1      -1.631   0.349  10.907  0.00  0.00    +0.163 HD
ATOM     16  H   UNL     1      -0.293  -0.069  11.801  0.00  0.00    +0.163 HD
ENDBRANCH   5  14
BRANCH   1  17
ATOM     17  S   UNL     1      -0.402  -0.023   7.630  0.00  0.00    -0.084 S 
BRANCH  17  18
ATOM     18  C   UNL     1      -0.244  -0.904   6.052  0.00  0.00    +0.086 C 
BRANCH  18  19
ATOM     19  C   UNL     1      -0.177   0.110   4.908  0.00  0.00    +0.107 C 
BRANCH  19  21
ATOM     20  N   UNL     1       0.032   0.071   2.443  0.00  0.00    -0.285 N 
ATOM     21  C   UNL     1      -0.045  -0.622   3.597  0.00  0.00    +0.218 C 
ATOM     22  O   UNL     1      -0.009  -1.834   3.579  0.00  0.00    -0.275 OA
ATOM     23  H   UNL     1       0.063   1.040   2.461  0.00  0.00    +0.155 HD
BRANCH  20  30
ATOM     24  C   UNL     1      -1.256   1.267   0.206  0.00  0.00    +0.045 C 
ATOM     25  C   UNL     1      -0.549  -0.060   0.103  0.00  0.00    -0.029 A 
ATOM     26  C   UNL     1      -0.508  -0.729  -1.105  0.00  0.00    +0.006 A 
ATOM     27  C   UNL     1       0.140  -1.946  -1.201  0.00  0.00    +0.020 A 
ATOM     28  C   UNL     1       0.751  -2.498  -0.088  0.00  0.00    +0.043 A 
ATOM     29  C   UNL     1       0.713  -1.833   1.123  0.00  0.00    +0.043 A 
ATOM     30  C   UNL     1       0.067  -0.608   1.220  0.00  0.00    +0.038 A 
ATOM     31 CL   UNL     1       1.564  -4.027  -0.213  0.00  0.00    -0.083 Cl
ENDBRANCH  20  30
ENDBRANCH  19  21
ENDBRANCH  18  19
ENDBRANCH  17  18
ENDBRANCH   1  17
TORSDOF 8
