REMARK  Name = ZINC03311608
REMARK  7 active torsions:
REMARK  status: ('A' for Active; 'I' for Inactive)
REMARK    1  A    between atoms: C_1  and  C_2
REMARK    2  A    between atoms: C_4  and  C_32
REMARK    3  A    between atoms: C_6  and  N_8
REMARK    4  A    between atoms: C_9  and  N_31
REMARK    5  A    between atoms: C_10  and  C_21
REMARK    6  A    between atoms: N_23  and  C_24
REMARK    7  A    between atoms: C_24  and  C_25
REMARK                            x       y       z     vdW  Elec       q    Type
REMARK                         _______ _______ _______ _____ _____    ______ ____
ROOT
ATOM      1  N   UNL     1      -1.107  -0.797   0.014  0.00  0.00    -0.280 N 
ATOM      2  C   UNL     1       0.002  -0.004   0.002  0.00  0.00    +0.117 A 
ATOM      3  C   UNL     1       1.155  -0.782  -0.013  0.00  0.00    +0.104 A 
ATOM      4  C   UNL     1       0.712  -2.186  -0.016  0.00  0.00    +0.123 A 
ATOM      5  C   UNL     1      -0.752  -2.132  -0.002  0.00  0.00    +0.166 A 
ATOM      6  N   UNL     1      -1.441  -3.253  -0.002  0.00  0.00    -0.225 NA
ATOM      7  C   UNL     1      -0.800  -4.429  -0.013  0.00  0.00    +0.092 A 
ATOM      8  C   UNL     1      -1.529  -5.633  -0.013  0.00  0.00    +0.030 A 
ATOM      9  C   UNL     1      -0.870  -6.824  -0.025  0.00  0.00    +0.002 A 
ATOM     10  C   UNL     1       0.523  -6.872  -0.038  0.00  0.00    +0.002 A 
ATOM     11  C   UNL     1       1.262  -5.730  -0.039  0.00  0.00    +0.030 A 
ATOM     12  C   UNL     1       0.616  -4.479  -0.026  0.00  0.00    +0.090 A 
ATOM     13  N   UNL     1       1.333  -3.349  -0.027  0.00  0.00    -0.241 NA
ENDROOT
BRANCH   1  19
ATOM     14  C   UNL     1      -5.415  -0.372   2.347  0.00  0.00    +0.044 C 
ATOM     15  C   UNL     1      -4.535  -0.103   1.154  0.00  0.00    -0.048 A 
ATOM     16  C   UNL     1      -5.028   0.613   0.079  0.00  0.00    +0.006 A 
ATOM     17  C   UNL     1      -4.224   0.862  -1.018  0.00  0.00    -0.048 A 
ATOM     18  C   UNL     1      -2.924   0.396  -1.043  0.00  0.00    +0.029 A 
ATOM     19  C   UNL     1      -2.425  -0.323   0.036  0.00  0.00    +0.050 A 
ATOM     20  C   UNL     1      -3.237  -0.576   1.133  0.00  0.00    +0.029 A 
ATOM     21  C   UNL     1      -4.766   1.642  -2.188  0.00  0.00    +0.044 C 
ENDBRANCH   1  19
BRANCH   3  22
ATOM     22  C   UNL     1       2.534  -0.300  -0.024  0.00  0.00    +0.250 C 
ATOM     23  O   UNL     1       3.119  -0.104   1.026  0.00  0.00    -0.270 OA
ATOM     24  N   UNL     1       3.159  -0.071  -1.196  0.00  0.00    -0.307 N 
ATOM     25  H   UNL     1       2.693  -0.227  -2.032  0.00  0.00    +0.149 HD
BRANCH  24  26
ATOM     26  C   UNL     1       4.542   0.412  -1.207  0.00  0.00    +0.139 C 
BRANCH  26  27
ATOM     27  C   UNL     1       5.003   0.585  -2.631  0.00  0.00    -0.030 A 
ATOM     28  C   UNL     1       5.614  -0.464  -3.292  0.00  0.00    +0.005 A 
ATOM     29  C   UNL     1       6.032  -0.307  -4.600  0.00  0.00    +0.000 A 
ATOM     30  C   UNL     1       5.848   0.902  -5.244  0.00  0.00    +0.000 A 
ATOM     31  C   UNL     1       5.242   1.953  -4.581  0.00  0.00    +0.000 A 
ATOM     32  C   UNL     1       4.819   1.794  -3.275  0.00  0.00    +0.005 A 
ENDBRANCH  26  27
ENDBRANCH  24  26
ENDBRANCH   3  22
BRANCH   2  33
ATOM     33  N   UNL     1      -0.017   1.367   0.010  0.00  0.00    -0.343 N 
ATOM     34  H   UNL     1       0.817   1.863   0.004  0.00  0.00    +0.144 HD
ATOM     35  H   UNL     1      -0.863   1.840   0.016  0.00  0.00    +0.144 HD
ENDBRANCH   2  33
TORSDOF 5
