REMARK  Name = ZINC40319675
REMARK  17 active torsions:
REMARK  status: ('A' for Active; 'I' for Inactive)
REMARK    1  A    between atoms: C_1  and  C_2
REMARK    2  A    between atoms: C_2  and  C_4
REMARK    3  A    between atoms: C_9  and  O_10
REMARK    4  A    between atoms: O_10  and  C_11
REMARK    5  A    between atoms: C_11  and  C_12
REMARK    6  A    between atoms: C_12  and  C_14
REMARK    7  A    between atoms: C_12  and  O_37
REMARK    8  A    between atoms: C_14  and  N_15
REMARK    9  A    between atoms: N_15  and  C_16
REMARK   10  A    between atoms: N_15  and  C_29
REMARK   11  A    between atoms: C_16  and  C_17
REMARK   12  A    between atoms: C_19  and  O_27
REMARK   13  A    between atoms: C_20  and  O_25
REMARK   14  A    between atoms: C_21  and  O_23
REMARK   15  A    between atoms: O_23  and  C_24
REMARK   16  A    between atoms: O_25  and  C_26
REMARK   17  A    between atoms: O_27  and  C_28
REMARK                            x       y       z     vdW  Elec       q    Type
REMARK                         _______ _______ _______ _____ _____    ______ ____
ROOT
ATOM      1  N   UNL     1      -1.315  -7.702   2.240  0.00  0.00    +0.387 N 
ATOM      2  H   UNL     1      -1.707  -8.453   2.787  0.00  0.00    -0.081 HD
ENDROOT
BRANCH   1   3
ATOM      3  C   UNL     1      -1.421  -6.443   2.989  0.00  0.00    -0.045 C 
ATOM      4  C   UNL     1      -1.216  -6.712   4.489  0.00  0.00    +0.009 C 
ATOM      5  C   UNL     1      -1.639  -5.470   5.311  0.00  0.00    +0.164 C 
ATOM      6  S   UNL     1      -2.918  -4.694   4.241  0.00  0.00    -0.033 S 
ATOM      7  O   UNL     1      -2.466  -3.408   3.839  0.00  0.00    -0.174 OA
ATOM      8  O   UNL     1      -4.187  -4.826   4.867  0.00  0.00    -0.174 OA
ATOM      9  C   UNL     1      -2.840  -5.835   2.796  0.00  0.00    +0.151 C 
ENDBRANCH   1   3
BRANCH   1  10
ATOM     10  C   UNL     1      -2.050  -7.582   0.974  0.00  0.00    -0.043 C 
BRANCH  10  11
ATOM     11  C   UNL     1      -2.881  -8.846   0.745  0.00  0.00    +0.135 C 
BRANCH  11  12
ATOM     12  O   UNL     1      -3.693  -9.096   1.894  0.00  0.00    -0.390 OA
ATOM     13  H   UNL     1      -4.369  -8.423   2.053  0.00  0.00    +0.210 HD
ENDBRANCH  11  12
BRANCH  11  14
ATOM     14  C   UNL     1      -3.777  -8.653  -0.480  0.00  0.00    +0.258 C 
BRANCH  14  15
ATOM     15  O   UNL     1      -4.466  -9.872  -0.763  0.00  0.00    -0.489 OA
BRANCH  15  21
ATOM     16  C   UNL     1      -6.019 -11.033  -2.165  0.00  0.00    +0.059 A 
ATOM     17  C   UNL     1      -6.889 -11.015  -3.262  0.00  0.00    +0.015 A 
ATOM     18  C   UNL     1      -7.036  -9.864  -4.003  0.00  0.00    +0.001 A 
ATOM     19  C   UNL     1      -6.326  -8.721  -3.668  0.00  0.00    +0.004 A 
ATOM     20  C   UNL     1      -5.465  -8.723  -2.590  0.00  0.00    +0.046 A 
ATOM     21  C   UNL     1      -5.308  -9.870  -1.827  0.00  0.00    +0.131 A 
BRANCH  16  23
ATOM     22  C   UNL     1      -6.624 -13.501  -1.737  0.00  0.00    +0.092 C 
ATOM     23  C   UNL     1      -5.858 -12.256  -1.370  0.00  0.00    +0.164 C 
ATOM     24  O   UNL     1      -5.107 -12.265  -0.417  0.00  0.00    -0.292 OA
ENDBRANCH  16  23
ENDBRANCH  15  21
ENDBRANCH  14  15
ENDBRANCH  11  14
ENDBRANCH  10  11
ENDBRANCH   1  10
BRANCH   1  25
ATOM     25  C   UNL     1       0.099  -7.987   1.960  0.00  0.00    -0.042 C 
BRANCH  25  26
ATOM     26  C   UNL     1       0.791  -8.394   3.236  0.00  0.00    -0.057 A 
ATOM     27  C   UNL     1       2.140  -8.139   3.400  0.00  0.00    +0.051 A 
ATOM     28  C   UNL     1       2.781  -8.512   4.571  0.00  0.00    +0.165 A 
ATOM     29  C   UNL     1       2.065  -9.142   5.582  0.00  0.00    +0.204 A 
ATOM     30  C   UNL     1       0.709  -9.396   5.414  0.00  0.00    +0.165 A 
ATOM     31  C   UNL     1       0.074  -9.015   4.241  0.00  0.00    +0.051 A 
BRANCH  30  32
ATOM     32  O   UNL     1       0.004 -10.012   6.400  0.00  0.00    -0.491 OA
ATOM     33  C   UNL     1      -1.386 -10.241   6.159  0.00  0.00    +0.277 C 
ENDBRANCH  30  32
BRANCH  29  34
ATOM     34  O   UNL     1       2.690  -9.510   6.734  0.00  0.00    -0.488 OA
ATOM     35  C   UNL     1       2.713  -8.552   7.794  0.00  0.00    +0.277 C 
ENDBRANCH  29  34
BRANCH  28  36
ATOM     36  O   UNL     1       4.108  -8.262   4.731  0.00  0.00    -0.491 OA
ATOM     37  C   UNL     1       4.780  -7.612   3.651  0.00  0.00    +0.277 C 
ENDBRANCH  28  36
ENDBRANCH  25  26
ENDBRANCH   1  25
TORSDOF 13
