REMARK  Name = ZINC31843970
REMARK  13 active torsions:
REMARK  status: ('A' for Active; 'I' for Inactive)
REMARK    1  A    between atoms: C_1  and  C_2
REMARK    2  A    between atoms: C_2  and  C_3
REMARK    3  A    between atoms: C_2  and  N_4
REMARK    4  A    between atoms: C_5  and  N_9
REMARK    5  A    between atoms: C_10  and  C_12
REMARK    6  A    between atoms: C_12  and  S_13
REMARK    7  A    between atoms: S_13  and  C_14
REMARK    8  A    between atoms: N_27  and  C_28
REMARK    9  A    between atoms: C_28  and  C_29
REMARK   10  A    between atoms: C_29  and  C_30
REMARK   11  A    between atoms: C_30  and  N_31
REMARK   12  A    between atoms: N_31  and  C_32
REMARK   13  A    between atoms: N_31  and  C_33
REMARK                            x       y       z     vdW  Elec       q    Type
REMARK                         _______ _______ _______ _____ _____    ______ ____
ROOT
ATOM      1  C   UNL     1      -2.547  -5.088   4.534  0.00  0.00    +0.173 A 
ATOM      2  N   UNL     1      -1.940  -5.563   3.466  0.00  0.00    -0.216 NA
ATOM      3  C   UNL     1      -1.825  -6.872   3.275  0.00  0.00    +0.117 A 
ATOM      4  C   UNL     1      -2.338  -7.808   4.189  0.00  0.00    +0.076 A 
ATOM      5  C   UNL     1      -2.134  -9.216   3.843  0.00  0.00    -0.023 A 
ATOM      6  C   UNL     1      -1.480  -9.476   2.693  0.00  0.00    -0.004 A 
ATOM      7  S   UNL     1      -1.101  -7.885   2.010  0.00  0.00    -0.073 S 
ATOM      8  C   UNL     1      -1.148 -10.821   2.121  0.00  0.00    +0.043 C 
ATOM      9  C   UNL     1      -1.338 -11.875   3.221  0.00  0.00    +0.005 C 
ATOM     10  C   UNL     1      -2.689 -11.638   3.902  0.00  0.00    +0.005 C 
ATOM     11  C   UNL     1      -2.633 -10.354   4.731  0.00  0.00    +0.037 C 
ATOM     12  C   UNL     1      -2.992  -7.263   5.339  0.00  0.00    +0.263 A 
ATOM     13  O   UNL     1      -3.468  -8.000   6.186  0.00  0.00    -0.267 OA
ATOM     14  N   UNL     1      -3.070  -5.927   5.475  0.00  0.00    -0.287 N 
ENDROOT
BRANCH   1  15
ATOM     15  S   UNL     1      -2.681  -3.344   4.754  0.00  0.00    -0.078 S 
BRANCH  15  16
ATOM     16  C   UNL     1      -1.836  -2.773   3.259  0.00  0.00    +0.173 C 
BRANCH  16  18
ATOM     17  N   UNL     1      -1.249  -0.615   2.203  0.00  0.00    -0.270 N 
ATOM     18  C   UNL     1      -1.828  -1.266   3.231  0.00  0.00    +0.229 C 
ATOM     19  O   UNL     1      -2.343  -0.640   4.133  0.00  0.00    -0.275 OA
ATOM     20  H   UNL     1      -0.782  -1.183   1.385  0.00  0.00    +0.156 HD
BRANCH  17  22
ATOM     21  N   UNL     1      -0.698   1.558   1.213  0.00  0.00    -0.248 N 
ATOM     22  C   UNL     1      -1.241   0.780   2.177  0.00  0.00    +0.123 A 
ATOM     23  C   UNL     1      -1.776   1.605   3.119  0.00  0.00    +0.065 A 
ATOM     24  C   UNL     1      -1.557   2.922   2.707  0.00  0.00    +0.136 A 
ATOM     25  N   UNL     1      -0.913   2.896   1.568  0.00  0.00    -0.178 NA
BRANCH  21  27
ATOM     26  C   UNL     1       1.423   1.615  -0.003  0.00  0.00    +0.032 C 
ATOM     27  C   UNL     1      -0.013   1.086   0.008  0.00  0.00    +0.103 C 
ATOM     28  C   UNL     1      -0.753   1.593  -1.232  0.00  0.00    +0.032 C 
ENDBRANCH  21  27
ENDBRANCH  17  22
ENDBRANCH  16  18
ENDBRANCH  15  16
ENDBRANCH   1  15
BRANCH  14  29
ATOM     29  C   UNL     1      -3.734  -5.362   6.652  0.00  0.00    +0.125 C 
BRANCH  29  30
ATOM     30  C   UNL     1      -5.223  -5.173   6.356  0.00  0.00    +0.003 C 
BRANCH  30  31
ATOM     31  C   UNL     1      -5.917  -4.583   7.586  0.00  0.00    -0.078 C 
BRANCH  31  32
ATOM     32  N   UNL     1      -7.346  -4.401   7.302  0.00  0.00    +0.376 N 
ATOM     33  C   UNL     1      -8.014  -5.696   7.112  0.00  0.00    -0.097 C 
ATOM     34  C   UNL     1      -7.999  -3.623   8.363  0.00  0.00    -0.097 C 
ATOM     35  H   UNL     1      -7.435  -3.834   6.364  0.00  0.00    -0.083 HD
ENDBRANCH  31  32
ENDBRANCH  30  31
ENDBRANCH  29  30
ENDBRANCH  14  29
TORSDOF 9
