REMARK  Name = ZINC31895678
REMARK  6 active torsions:
REMARK  status: ('A' for Active; 'I' for Inactive)
REMARK    1  A    between atoms: C_1  and  C_2
REMARK    2  A    between atoms: C_2  and  O_3
REMARK    3  A    between atoms: O_3  and  C_4
REMARK    4  A    between atoms: C_8  and  C_11
REMARK    5  A    between atoms: C_9  and  O_10
REMARK    6  A    between atoms: C_17  and  N_21
REMARK                            x       y       z     vdW  Elec       q    Type
REMARK                         _______ _______ _______ _____ _____    ______ ____
ROOT
ATOM      1  C   UNL     1       3.252   2.494  -0.015  0.00  0.00    +0.143 A 
ATOM      2  N   UNL     1       2.472   3.618  -0.003  0.00  0.00    -0.338 N 
ATOM      3  H   UNL     1       2.941   4.613  -0.002  0.00  0.00    +0.167 HD
ATOM      4  C   UNL     1       1.153   3.200   0.008  0.00  0.00    +0.067 A 
ATOM      5  C   UNL     1      -0.065   3.865   0.022  0.00  0.00    +0.029 A 
ATOM      6  C   UNL     1      -1.241   3.147   0.029  0.00  0.00    +0.025 A 
ATOM      7  C   UNL     1      -1.217   1.753   0.017  0.00  0.00    +0.027 A 
ATOM      8  C   UNL     1      -0.013   1.076   0.008  0.00  0.00    +0.052 A 
ATOM      9  C   UNL     1       1.187   1.795   0.000  0.00  0.00    +0.091 A 
ATOM     10  N   UNL     1       2.492   1.426  -0.014  0.00  0.00    -0.228 NA
ENDROOT
BRANCH   1  15
ATOM     11  C   UNL     1       6.815   1.273  -0.053  0.00  0.00    +0.162 A 
ATOM     12  C   UNL     1       7.505   2.475  -0.053  0.00  0.00    +0.049 A 
ATOM     13  C   UNL     1       6.817   3.676  -0.040  0.00  0.00    +0.004 A 
ATOM     14  C   UNL     1       5.438   3.688  -0.034  0.00  0.00    +0.015 A 
ATOM     15  C   UNL     1       4.730   2.485  -0.029  0.00  0.00    +0.062 A 
ATOM     16  C   UNL     1       5.425   1.271  -0.041  0.00  0.00    +0.169 A 
BRANCH  16  17
ATOM     17  O   UNL     1       4.745   0.095  -0.041  0.00  0.00    -0.503 OA
ATOM     18  H   UNL     1       3.645   0.095  -0.031  0.00  0.00    +0.292 HD
ENDBRANCH  16  17
BRANCH  11  19
ATOM     19  O   UNL     1       7.498   0.097  -0.065  0.00  0.00    -0.489 OA
BRANCH  19  21
ATOM     20  C   UNL     1       9.512  -1.238  -0.090  0.00  0.00    +0.048 C 
ATOM     21  C   UNL     1       8.924   0.175  -0.077  0.00  0.00    +0.226 C 
ENDBRANCH  19  21
ENDBRANCH  11  19
ENDBRANCH   1  15
BRANCH   7  22
ATOM     22  N   UNL     1      -2.418   1.036   0.020  0.00  0.00    -0.358 N 
ATOM     23  H   UNL     1      -2.403  -0.063   0.011  0.00  0.00    +0.142 HD
ATOM     24  H   UNL     1      -3.379   1.573   0.030  0.00  0.00    +0.142 HD
ENDBRANCH   7  22
TORSDOF 5
