REMARK  Name = ZINC44676511
REMARK  6 active torsions:
REMARK  status: ('A' for Active; 'I' for Inactive)
REMARK    1  A    between atoms: C_4  and  C_7
REMARK    2  A    between atoms: C_10  and  N_12
REMARK    3  A    between atoms: N_12  and  C_13
REMARK    4  A    between atoms: C_15  and  N_23
REMARK    5  A    between atoms: C_17  and  S_19
REMARK    6  A    between atoms: S_19  and  N_22
REMARK                            x       y       z     vdW  Elec       q    Type
REMARK                         _______ _______ _______ _____ _____    ______ ____
ROOT
ATOM      1  C   UNL     1       5.617  -2.112  -3.023  0.00  0.00    +0.031 A 
ATOM      2  C   UNL     1       4.562  -2.390  -3.881  0.00  0.00    +0.045 A 
ATOM      3  C   UNL     1       4.818  -2.763  -5.192  0.00  0.00    +0.028 A 
ATOM      4  C   UNL     1       6.130  -2.858  -5.643  0.00  0.00    +0.051 A 
ATOM      5  C   UNL     1       7.177  -2.581  -4.786  0.00  0.00    +0.108 A 
ATOM      6  C   UNL     1       6.926  -2.203  -3.481  0.00  0.00    +0.051 A 
ENDROOT
BRANCH   5   7
ATOM      7  S   UNL     1       8.838  -2.703  -5.361  0.00  0.00    +0.056 S 
ATOM      8  O   UNL     1       9.650  -2.922  -4.215  0.00  0.00    -0.153 OA
ATOM      9  O   UNL     1       8.822  -3.597  -6.465  0.00  0.00    -0.153 OA
BRANCH   7  10
ATOM     10  N   UNL     1       9.259  -1.218  -5.961  0.00  0.00    -0.204 NA
ATOM     11  H   UNL     1      10.182  -0.923  -5.924  0.00  0.00    +0.144 HD
ATOM     12  H   UNL     1       8.582  -0.642  -6.349  0.00  0.00    +0.144 HD
ENDBRANCH   7  10
ENDBRANCH   5   7
BRANCH   3  13
ATOM     13  N   UNL     1       3.759  -3.044  -6.059  0.00  0.00    -0.358 N 
ATOM     14  H   UNL     1       2.844  -2.978  -5.744  0.00  0.00    +0.142 HD
ATOM     15  H   UNL     1       3.939  -3.305  -6.976  0.00  0.00    +0.142 HD
ENDBRANCH   3  13
BRANCH   1  16
ATOM     16  N   UNL     1       5.363  -1.736  -1.702  0.00  0.00    -0.340 N 
ATOM     17  H   UNL     1       6.101  -1.538  -1.104  0.00  0.00    +0.146 HD
BRANCH  16  20
ATOM     18  C   UNL     1       3.711  -0.707  -0.038  0.00  0.00    +0.041 C 
ATOM     19  C   UNL     1       3.675  -2.224   0.162  0.00  0.00    +0.032 C 
ATOM     20  C   UNL     1       3.983  -1.640  -1.219  0.00  0.00    +0.078 C 
BRANCH  18  24
ATOM     21  C   UNL     1      -0.017   1.378   0.010  0.00  0.00    +0.000 A 
ATOM     22  C   UNL     1       1.171   2.086   0.002  0.00  0.00    +0.000 A 
ATOM     23  C   UNL     1       2.377   1.411  -0.013  0.00  0.00    +0.004 A 
ATOM     24  C   UNL     1       2.396   0.029  -0.020  0.00  0.00    -0.042 A 
ATOM     25  C   UNL     1       1.208  -0.679  -0.012  0.00  0.00    +0.004 A 
ATOM     26  C   UNL     1       0.002  -0.004   0.002  0.00  0.00    +0.000 A 
ENDBRANCH  18  24
ENDBRANCH  16  20
ENDBRANCH   1  16
TORSDOF 6
