REMARK  Name = ZINC28864556
REMARK  14 active torsions:
REMARK  status: ('A' for Active; 'I' for Inactive)
REMARK    1  A    between atoms: C_1  and  C_2
REMARK    2  A    between atoms: C_5  and  S_7
REMARK    3  A    between atoms: S_7  and  C_8
REMARK    4  A    between atoms: C_8  and  C_9
REMARK    5  A    between atoms: N_11  and  C_12
REMARK    6  A    between atoms: N_11  and  C_16
REMARK    7  A    between atoms: C_12  and  C_13
REMARK    8  A    between atoms: C_13  and  C_14
REMARK    9  A    between atoms: C_13  and  C_15
REMARK   10  A    between atoms: C_17  and  N_29
REMARK   11  A    between atoms: N_18  and  C_25
REMARK   12  A    between atoms: C_25  and  C_26
REMARK   13  A    between atoms: C_26  and  C_27
REMARK   14  A    between atoms: C_26  and  C_28
REMARK                            x       y       z     vdW  Elec       q    Type
REMARK                         _______ _______ _______ _____ _____    ______ ____
ROOT
ATOM      1  C   UNL     1       0.390  -8.851  -1.077  0.00  0.00    +0.140 A 
ATOM      2  C   UNL     1       1.428  -9.582  -1.618  0.00  0.00    +0.127 A 
ATOM      3  N   UNL     1       1.678 -10.848  -1.141  0.00  0.00    -0.280 N 
ATOM      4  C   UNL     1       0.919 -11.367  -0.158  0.00  0.00    +0.331 A 
ATOM      5  O   UNL     1       1.156 -12.487   0.250  0.00  0.00    -0.246 OA
ATOM      6  N   UNL     1      -0.096 -10.668   0.381  0.00  0.00    -0.273 N 
ATOM      7  H   UNL     1      -0.628 -11.065   1.089  0.00  0.00    +0.173 HD
ATOM      8  C   UNL     1      -0.380  -9.423  -0.047  0.00  0.00    +0.277 A 
ATOM      9  O   UNL     1      -1.299  -8.797   0.452  0.00  0.00    -0.266 OA
ENDROOT
BRANCH   1  12
ATOM     10  C   UNL     1       0.201  -6.497  -0.707  0.00  0.00    +0.230 C 
ATOM     11  O   UNL     1       0.614  -6.655   0.423  0.00  0.00    -0.274 OA
ATOM     12  N   UNL     1       0.109  -7.550  -1.545  0.00  0.00    -0.263 N 
BRANCH  10  13
ATOM     13  C   UNL     1      -0.209  -5.123  -1.173  0.00  0.00    +0.172 C 
BRANCH  13  14
ATOM     14  S   UNL     1      -0.105  -3.958   0.212  0.00  0.00    -0.088 S 
BRANCH  14  19
ATOM     15  C   UNL     1      -1.675   1.494  -1.406  0.00  0.00    +0.075 C 
ATOM     16  C   UNL     1      -1.315   0.045  -1.202  0.00  0.00    +0.100 A 
ATOM     17  N   UNL     1      -1.319  -0.957  -2.057  0.00  0.00    -0.146 NA
ATOM     18  N   UNL     1      -0.986  -2.127  -1.723  0.00  0.00    -0.135 NA
ATOM     19  C   UNL     1      -0.608  -2.420  -0.485  0.00  0.00    +0.159 A 
ATOM     20  S   UNL     1      -0.752  -0.803   0.271  0.00  0.00    -0.044 S 
ENDBRANCH  14  19
ENDBRANCH  13  14
ENDBRANCH  10  13
BRANCH  12  21
ATOM     21  C   UNL     1      -0.282  -7.342  -2.942  0.00  0.00    +0.117 C 
BRANCH  21  22
ATOM     22  C   UNL     1      -1.808  -7.301  -3.043  0.00  0.00    +0.001 C 
ATOM     23  C   UNL     1      -2.215  -6.926  -4.469  0.00  0.00    +0.009 C 
ATOM     24  C   UNL     1      -2.380  -8.677  -2.694  0.00  0.00    +0.009 C 
ENDBRANCH  21  22
ENDBRANCH  12  21
ENDBRANCH   1  12
BRANCH   2  25
ATOM     25  N   UNL     1       2.203  -9.052  -2.622  0.00  0.00    -0.343 N 
ATOM     26  H   UNL     1       2.080  -8.129  -2.894  0.00  0.00    +0.144 HD
ATOM     27  H   UNL     1       2.872  -9.602  -3.059  0.00  0.00    +0.144 HD
ENDBRANCH   2  25
BRANCH   3  28
ATOM     28  C   UNL     1       2.776 -11.636  -1.706  0.00  0.00    +0.131 C 
BRANCH  28  29
ATOM     29  C   UNL     1       4.058 -11.361  -0.918  0.00  0.00    +0.003 C 
ATOM     30  C   UNL     1       3.894 -11.867   0.516  0.00  0.00    +0.009 C 
ATOM     31  C   UNL     1       5.230 -12.086  -1.583  0.00  0.00    +0.009 C 
ENDBRANCH  28  29
ENDBRANCH   3  28
TORSDOF 9
