REMARK  Name = ZINC29055810
REMARK  8 active torsions:
REMARK  status: ('A' for Active; 'I' for Inactive)
REMARK    1  A    between atoms: C_1  and  O_2
REMARK    2  A    between atoms: O_2  and  C_3
REMARK    3  A    between atoms: C_8  and  O_10
REMARK    4  A    between atoms: C_14  and  C_24
REMARK    5  A    between atoms: C_15  and  C_17
REMARK    6  A    between atoms: C_17  and  C_18
REMARK    7  A    between atoms: C_25  and  C_26
REMARK    8  A    between atoms: C_26  and  O_34
REMARK                            x       y       z     vdW  Elec       q    Type
REMARK                         _______ _______ _______ _____ _____    ______ ____
ROOT
ATOM      1  C   UNL     1       2.336  -0.119  -0.516  0.00  0.00    +0.165 C 
ATOM      2  C   UNL     1       1.272  -0.972   0.218  0.00  0.00    +0.140 C 
ATOM      3  N   UNL     1      -0.012  -0.400  -0.261  0.00  0.00    -0.310 N 
ATOM      4  C   UNL     1       0.198   1.063  -0.327  0.00  0.00    +0.140 C 
ATOM      5  C   UNL     1       1.709   1.294  -0.514  0.00  0.00    +0.162 C 
ATOM      6  C   UNL     1      -1.052  -0.714   0.605  0.00  0.00    +0.122 A 
ATOM      7  C   UNL     1      -2.327  -0.212   0.358  0.00  0.00    +0.045 A 
ATOM      8  C   UNL     1      -3.356  -0.533   1.220  0.00  0.00    +0.022 A 
ATOM      9  C   UNL     1      -3.071  -1.349   2.324  0.00  0.00    +0.047 A 
ATOM     10  C   UNL     1      -1.768  -1.809   2.507  0.00  0.00    +0.063 A 
ATOM     11  N   UNL     1      -0.815  -1.483   1.657  0.00  0.00    -0.235 NA
ENDROOT
BRANCH   1  13
ATOM     12  C   UNL     1       4.470  -1.165  -0.204  0.00  0.00    +0.194 C 
ATOM     13  O   UNL     1       3.573  -0.129   0.199  0.00  0.00    -0.376 OA
ENDBRANCH   1  13
BRANCH   5  14
ATOM     14  O   UNL     1       2.230   2.066   0.570  0.00  0.00    -0.388 OA
ATOM     15  H   UNL     1       1.890   3.101   0.722  0.00  0.00    +0.210 HD
ENDBRANCH   5  14
BRANCH   9  16
ATOM     16  C   UNL     1      -4.104  -1.705   3.250  0.00  0.00    -0.062 C 
ATOM     17  C   UNL     1      -4.951  -1.996   4.009  0.00  0.00    -0.064 C 
BRANCH  17  18
ATOM     18  C   UNL     1      -6.012  -2.362   4.961  0.00  0.00    +0.115 C 
ATOM     19  C   UNL     1      -6.163  -3.885   5.001  0.00  0.00    -0.030 C 
ATOM     20  N   UNL     1      -5.899  -4.363   6.367  0.00  0.00    +0.382 N 
ATOM     21  C   UNL     1      -4.524  -4.051   6.781  0.00  0.00    -0.078 C 
ATOM     22  C   UNL     1      -4.328  -2.533   6.789  0.00  0.00    -0.012 C 
ATOM     23  C   UNL     1      -5.640  -1.862   6.363  0.00  0.00    +0.028 C 
ATOM     24  C   UNL     1      -6.754  -2.264   7.337  0.00  0.00    -0.012 C 
ATOM     25  C   UNL     1      -6.873  -3.807   7.318  0.00  0.00    -0.078 C 
ATOM     26  H   UNL     1      -6.011  -5.457   6.370  0.00  0.00    -0.082 HD
BRANCH  18  27
ATOM     27  O   UNL     1      -7.246  -1.768   4.553  0.00  0.00    -0.378 OA
ATOM     28  H   UNL     1      -8.158  -1.932   5.147  0.00  0.00    +0.211 HD
ENDBRANCH  18  27
ENDBRANCH  17  18
ENDBRANCH   9  16
BRANCH  10  29
ATOM     29  C   UNL     1      -1.447  -2.688   3.688  0.00  0.00    +0.091 C 
BRANCH  29  30
ATOM     30  C   UNL     1      -1.485  -4.133   3.264  0.00  0.00    -0.042 A 
ATOM     31  C   UNL     1      -2.683  -4.823   3.267  0.00  0.00    +0.004 A 
ATOM     32  C   UNL     1      -2.719  -6.147   2.873  0.00  0.00    +0.000 A 
ATOM     33  C   UNL     1      -1.555  -6.785   2.487  0.00  0.00    +0.000 A 
ATOM     34  C   UNL     1      -0.356  -6.097   2.489  0.00  0.00    +0.000 A 
ATOM     35  C   UNL     1      -0.321  -4.771   2.878  0.00  0.00    +0.004 A 
ENDBRANCH  29  30
ENDBRANCH  10  29
TORSDOF 7
