REMARK  Name = ZINC63376116
REMARK  8 active torsions:
REMARK  status: ('A' for Active; 'I' for Inactive)
REMARK    1  A    between atoms: C_1  and  C_2
REMARK    2  A    between atoms: C_16  and  C_19
REMARK    3  A    between atoms: C_19  and  C_20
REMARK    4  A    between atoms: N_31  and  C_34
REMARK    5  A    between atoms: C_34  and  C_35
REMARK    6  A    between atoms: C_35  and  C_36
REMARK    7  A    between atoms: C_36  and  O_37
REMARK    8  A    between atoms: O_37  and  C_38
REMARK                            x       y       z     vdW  Elec       q    Type
REMARK                         _______ _______ _______ _____ _____    ______ ____
ROOT
ATOM      1  C   UNL     1      -0.018   1.503   0.010  0.00  0.00    +0.045 C 
ATOM      2  C   UNL     1       0.002  -0.004   0.002  0.00  0.00    -0.029 A 
ATOM      3  C   UNL     1       0.006  -0.685  -1.198  0.00  0.00    +0.005 A 
ATOM      4  C   UNL     1       0.024  -2.068  -1.216  0.00  0.00    +0.001 A 
ATOM      5  C   UNL     1       0.040  -2.772  -0.025  0.00  0.00    +0.008 A 
ATOM      6  C   UNL     1       0.036  -2.096   1.175  0.00  0.00    +0.004 A 
ATOM      7  C   UNL     1       0.023  -0.705   1.205  0.00  0.00    +0.042 A 
ATOM      8  N   UNL     1       0.029  -0.250   2.526  0.00  0.00    -0.283 N 
ATOM      9  C   UNL     1       0.050  -1.265   3.412  0.00  0.00    +0.243 C 
ATOM     10  O   UNL     1       0.059  -1.170   4.621  0.00  0.00    -0.273 OA
ATOM     11  C   UNL     1       0.047  -2.538   2.611  0.00  0.00    +0.136 C 
ATOM     12  C   UNL     1      -1.164  -3.420   2.938  0.00  0.00    +0.122 C 
ATOM     13  C   UNL     1      -0.622  -4.875   2.853  0.00  0.00    +0.107 C 
ATOM     14  C   UNL     1       0.861  -4.723   2.453  0.00  0.00    +0.072 C 
ATOM     15  N   UNL     1       1.237  -3.354   2.917  0.00  0.00    -0.295 NA
ATOM     16  C   UNL     1      -0.722  -5.369   4.278  0.00  0.00    +0.227 C 
ATOM     17  O   UNL     1      -0.389  -6.469   4.663  0.00  0.00    -0.275 OA
ATOM     18  N   UNL     1      -1.235  -4.402   5.048  0.00  0.00    -0.241 N 
ATOM     19  C   UNL     1      -1.533  -3.255   4.396  0.00  0.00    +0.228 C 
ATOM     20  O   UNL     1      -2.012  -2.257   4.888  0.00  0.00    -0.275 OA
ATOM     21  H   UNL     1       0.018   0.687   2.776  0.00  0.00    +0.155 HD
ATOM     22  H   UNL     1       2.045  -3.016   2.416  0.00  0.00    +0.124 HD
ENDROOT
BRANCH  14  23
ATOM     23  C   UNL     1       1.716  -5.768   3.173  0.00  0.00    +0.052 C 
BRANCH  23  24
ATOM     24  C   UNL     1       3.137  -5.682   2.677  0.00  0.00    -0.040 C 
ATOM     25  C   UNL     1       4.155  -4.994   3.242  0.00  0.00    -0.001 A 
ATOM     26  C   UNL     1       4.241  -4.151   4.440  0.00  0.00    +0.010 A 
ATOM     27  C   UNL     1       5.426  -3.582   4.758  0.00  0.00    +0.001 A 
ATOM     28  C   UNL     1       6.571  -3.776   3.973  0.00  0.00    +0.002 A 
ATOM     29  C   UNL     1       6.570  -4.536   2.857  0.00  0.00    +0.026 A 
ATOM     30  C   UNL     1       5.378  -5.184   2.430  0.00  0.00    +0.043 A 
ATOM     31  N   UNL     1       5.126  -5.958   1.403  0.00  0.00    -0.380 N 
ATOM     32  C   UNL     1       3.714  -6.354   1.451  0.00  0.00    +0.144 C 
ATOM     33  H   UNL     1       5.767  -6.229   0.727  0.00  0.00    +0.160 HD
ENDBRANCH  23  24
ENDBRANCH  14  23
BRANCH  18  34
ATOM     34  C   UNL     1      -1.464  -4.573   6.485  0.00  0.00    +0.118 C 
BRANCH  34  35
ATOM     35  C   UNL     1      -0.214  -4.141   7.255  0.00  0.00    +0.047 C 
BRANCH  35  36
ATOM     36  C   UNL     1      -0.453  -4.319   8.756  0.00  0.00    +0.161 C 
BRANCH  36  37
ATOM     37  O   UNL     1       0.715  -3.915   9.475  0.00  0.00    -0.383 OA
ATOM     38  C   UNL     1       0.596  -4.042  10.893  0.00  0.00    +0.193 C 
ENDBRANCH  36  37
ENDBRANCH  35  36
ENDBRANCH  34  35
ENDBRANCH  18  34
TORSDOF 6
