REMARK  Name = ZINC12848026
REMARK  6 active torsions:
REMARK  status: ('A' for Active; 'I' for Inactive)
REMARK    1  A    between atoms: C_1  and  C_2
REMARK    2  A    between atoms: C_2  and  C_4
REMARK    3  A    between atoms: C_2  and  N_10
REMARK    4  A    between atoms: C_11  and  C_13
REMARK    5  A    between atoms: C_17  and  C_28
REMARK    6  A    between atoms: C_20  and  C_24
REMARK                            x       y       z     vdW  Elec       q    Type
REMARK                         _______ _______ _______ _____ _____    ______ ____
ROOT
ATOM      1  C   UNL     1       2.769  -1.090   2.372  0.00  0.00    +0.110 C 
ATOM      2  C   UNL     1       2.186  -1.462   3.538  0.00  0.00    +0.072 C 
ATOM      3  C   UNL     1       3.255  -1.876   4.445  0.00  0.00    +0.114 C 
ATOM      4  N   UNL     1       3.189  -2.303   5.674  0.00  0.00    -0.365 N 
ATOM      5  C   UNL     1       4.433  -2.622   6.385  0.00  0.00    +0.113 C 
ATOM      6  C   UNL     1       5.490  -3.145   5.412  0.00  0.00    +0.062 C 
ATOM      7  C   UNL     1       5.748  -2.100   4.315  0.00  0.00    +0.201 C 
ATOM      8  N   UNL     1       4.446  -1.742   3.742  0.00  0.00    -0.226 N 
ATOM      9  N   UNL     1       4.142  -1.246   2.479  0.00  0.00    -0.258 N 
ATOM     10  H   UNL     1       4.787  -1.041   1.785  0.00  0.00    +0.170 HD
ATOM     11  H   UNL     1       2.331  -2.408   6.113  0.00  0.00    +0.161 HD
ENDROOT
BRANCH   5  12
ATOM     12  C   UNL     1       4.953  -1.379   7.060  0.00  0.00    -0.021 A 
ATOM     13  C   UNL     1       4.877  -0.160   6.413  0.00  0.00    +0.009 A 
ATOM     14  C   UNL     1       5.352   0.984   7.028  0.00  0.00    +0.050 A 
ATOM     15  C   UNL     1       5.905   0.910   8.296  0.00  0.00    +0.166 A 
ATOM     16  C   UNL     1       5.981  -0.318   8.948  0.00  0.00    +0.167 A 
ATOM     17  C   UNL     1       5.498  -1.459   8.328  0.00  0.00    +0.055 A 
ATOM     18  O   UNL     1       6.560  -0.128  10.170  0.00  0.00    -0.453 OA
ATOM     19  C   UNL     1       7.208   1.156  10.093  0.00  0.00    +0.466 C 
ATOM     20  O   UNL     1       6.436   1.870   9.109  0.00  0.00    -0.453 OA
ENDBRANCH   5  12
BRANCH   1  22
ATOM     21  N   UNL     1       0.711  -0.489   1.189  0.00  0.00    -0.304 N 
ATOM     22  C   UNL     1       2.054  -0.600   1.174  0.00  0.00    +0.260 C 
ATOM     23  O   UNL     1       2.677  -0.297   0.175  0.00  0.00    -0.269 OA
ATOM     24  H   UNL     1       0.213  -0.731   1.986  0.00  0.00    +0.150 HD
BRANCH  21  26
ATOM     25  C   UNL     1      -0.019   1.526   0.010  0.00  0.00    +0.033 C 
ATOM     26  C   UNL     1       0.002  -0.004   0.002  0.00  0.00    +0.100 C 
BRANCH  26  27
ATOM     27  C   UNL     1      -1.412  -0.526   0.013  0.00  0.00    -0.027 A 
ATOM     28  C   UNL     1      -2.123  -0.571   1.197  0.00  0.00    +0.005 A 
ATOM     29  C   UNL     1      -3.420  -1.049   1.207  0.00  0.00    +0.000 A 
ATOM     30  C   UNL     1      -4.006  -1.482   0.032  0.00  0.00    +0.000 A 
ATOM     31  C   UNL     1      -3.295  -1.436  -1.153  0.00  0.00    +0.000 A 
ATOM     32  C   UNL     1      -2.000  -0.954  -1.163  0.00  0.00    +0.005 A 
ENDBRANCH  26  27
ENDBRANCH  21  26
ENDBRANCH   1  22
BRANCH   7  33
ATOM     33  C   UNL     1       6.651  -2.693   3.232  0.00  0.00    +0.410 C 
ATOM     34  F   UNL     1       6.028  -3.811   2.666  0.00  0.00    -0.169 F 
ATOM     35  F   UNL     1       6.879  -1.735   2.239  0.00  0.00    -0.169 F 
ATOM     36  F   UNL     1       7.870  -3.077   3.799  0.00  0.00    -0.169 F 
ENDBRANCH   7  33
TORSDOF 5
