REMARK  Name = ZINC17308053
REMARK  16 active torsions:
REMARK  status: ('A' for Active; 'I' for Inactive)
REMARK    1  A    between atoms: C_1  and  C_2
REMARK    2  A    between atoms: C_2  and  C_3
REMARK    3  A    between atoms: C_3  and  C_4
REMARK    4  A    between atoms: C_4  and  N_5
REMARK    5  A    between atoms: N_5  and  C_6
REMARK    6  A    between atoms: C_7  and  N_19
REMARK    7  A    between atoms: N_8  and  C_15
REMARK    8  A    between atoms: C_15  and  C_16
REMARK    9  A    between atoms: C_16  and  C_17
REMARK   10  A    between atoms: C_16  and  C_18
REMARK   11  A    between atoms: C_20  and  C_22
REMARK   12  A    between atoms: C_22  and  N_23
REMARK   13  A    between atoms: N_23  and  C_24
REMARK   14  A    between atoms: N_23  and  C_30
REMARK   15  A    between atoms: C_24  and  C_25
REMARK   16  A    between atoms: C_30  and  C_31
REMARK                            x       y       z     vdW  Elec       q    Type
REMARK                         _______ _______ _______ _____ _____    ______ ____
ROOT
ATOM      1  N   UNL     1       1.493  -2.840   2.740  0.00  0.00    -0.263 N 
ATOM      2  C   UNL     1       2.831  -2.971   2.864  0.00  0.00    +0.234 C 
ATOM      3  O   UNL     1       3.297  -3.562   3.815  0.00  0.00    -0.274 OA
ENDROOT
BRANCH   1   4
ATOM      4  C   UNL     1       0.642  -3.300   3.767  0.00  0.00    +0.140 A 
ATOM      5  C   UNL     1      -0.219  -4.355   3.545  0.00  0.00    +0.127 A 
ATOM      6  N   UNL     1      -1.037  -4.780   4.566  0.00  0.00    -0.280 N 
ATOM      7  C   UNL     1      -0.998  -4.175   5.767  0.00  0.00    +0.331 A 
ATOM      8  O   UNL     1      -1.730  -4.566   6.656  0.00  0.00    -0.246 OA
ATOM      9  N   UNL     1      -0.165  -3.146   6.002  0.00  0.00    -0.273 N 
ATOM     10  H   UNL     1      -0.156  -2.726   6.876  0.00  0.00    +0.173 HD
ATOM     11  C   UNL     1       0.660  -2.694   5.037  0.00  0.00    +0.277 A 
ATOM     12  O   UNL     1       1.415  -1.763   5.262  0.00  0.00    -0.266 OA
BRANCH   5  13
ATOM     13  N   UNL     1      -0.260  -4.973   2.318  0.00  0.00    -0.343 N 
ATOM     14  H   UNL     1       0.275  -4.630   1.585  0.00  0.00    +0.144 HD
ATOM     15  H   UNL     1      -0.822  -5.752   2.186  0.00  0.00    +0.144 HD
ENDBRANCH   5  13
BRANCH   6  16
ATOM     16  C   UNL     1      -1.956  -5.900   4.344  0.00  0.00    +0.131 C 
BRANCH  16  17
ATOM     17  C   UNL     1      -1.256  -7.213   4.699  0.00  0.00    +0.003 C 
ATOM     18  C   UNL     1      -2.252  -8.368   4.588  0.00  0.00    +0.009 C 
ATOM     19  C   UNL     1      -0.092  -7.447   3.734  0.00  0.00    +0.009 C 
ENDBRANCH  16  17
ENDBRANCH   6  16
ENDBRANCH   1   4
BRANCH   1  20
ATOM     20  C   UNL     1       0.925  -2.221   1.540  0.00  0.00    +0.114 C 
BRANCH  20  21
ATOM     21  C   UNL     1       0.688  -0.732   1.799  0.00  0.00    +0.019 C 
BRANCH  21  23
ATOM     22  C   UNL     1      -0.143   1.405   0.804  0.00  0.00    +0.004 C 
ATOM     23  C   UNL     1       0.095  -0.085   0.545  0.00  0.00    -0.002 C 
ENDBRANCH  21  23
ENDBRANCH  20  21
ENDBRANCH   1  20
BRANCH   2  24
ATOM     24  C   UNL     1       3.745  -2.382   1.820  0.00  0.00    +0.181 C 
BRANCH  24  25
ATOM     25  N   UNL     1       5.142  -2.658   2.180  0.00  0.00    -0.287 NA
BRANCH  25  26
ATOM     26  C   UNL     1       6.066  -1.904   1.323  0.00  0.00    +0.127 C 
BRANCH  26  27
ATOM     27  C   UNL     1       6.085  -0.460   1.753  0.00  0.00    +0.004 A 
ATOM     28  C   UNL     1       6.939   0.168   2.597  0.00  0.00    +0.012 A 
ATOM     29  C   UNL     1       6.764   1.516   2.848  0.00  0.00    +0.008 A 
ATOM     30  C   UNL     1       5.743   2.170   2.242  0.00  0.00    +0.045 A 
ATOM     31  S   UNL     1       4.992   0.869   1.276  0.00  0.00    -0.100 S 
ENDBRANCH  26  27
ENDBRANCH  25  26
BRANCH  25  32
ATOM     32  C   UNL     1       5.426  -4.098   2.122  0.00  0.00    +0.116 C 
BRANCH  32  33
ATOM     33  C   UNL     1       6.726  -4.393   2.873  0.00  0.00    +0.132 C 
ATOM     34  C   UNL     1       7.025  -5.906   2.829  0.00  0.00    +0.035 C 
ATOM     35  C   UNL     1       7.575  -6.175   4.256  0.00  0.00    +0.031 C 
ATOM     36  C   UNL     1       6.735  -5.175   5.088  0.00  0.00    +0.160 C 
ATOM     37  O   UNL     1       6.589  -4.016   4.248  0.00  0.00    -0.375 OA
ENDBRANCH  32  33
ENDBRANCH  25  32
ENDBRANCH  24  25
ENDBRANCH   2  24
TORSDOF 13
