REMARK  Name = ZINC39693385
REMARK  11 active torsions:
REMARK  status: ('A' for Active; 'I' for Inactive)
REMARK    1  A    between atoms: C_1  and  C_2
REMARK    2  A    between atoms: C_2  and  C_3
REMARK    3  A    between atoms: C_2  and  C_4
REMARK    4  A    between atoms: C_2  and  O_5
REMARK    5  A    between atoms: O_5  and  C_6
REMARK    6  A    between atoms: N_8  and  C_9
REMARK    7  A    between atoms: C_9  and  C_10
REMARK    8  A    between atoms: C_10  and  N_11
REMARK    9  A    between atoms: C_12  and  C_14
REMARK   10  A    between atoms: C_25  and  C_27
REMARK   11  A    between atoms: C_33  and  C_35
REMARK                            x       y       z     vdW  Elec       q    Type
REMARK                         _______ _______ _______ _____ _____    ______ ____
ROOT
ATOM      1  C   UNL     1       8.095  -0.218  -5.353  0.00  0.00    +0.100 C 
ATOM      2  C   UNL     1       8.950  -0.678  -4.151  0.00  0.00    +0.121 C 
ATOM      3  N   UNL     1       9.539  -1.968  -4.583  0.00  0.00    -0.299 N 
ATOM      4  C   UNL     1       9.883  -1.757  -6.009  0.00  0.00    +0.115 C 
ATOM      5  C   UNL     1       8.713  -0.926  -6.571  0.00  0.00    -0.004 C 
ATOM      6  C   UNL     1       7.684  -1.841  -7.228  0.00  0.00    -0.010 C 
ATOM      7  C   UNL     1       8.304  -2.489  -8.469  0.00  0.00    -0.082 C 
ATOM      8  N   UNL     1       8.730  -1.445  -9.408  0.00  0.00    +0.379 N 
ATOM      9  C   UNL     1       9.786  -0.625  -8.801  0.00  0.00    -0.082 C 
ATOM     10  C   UNL     1       9.229   0.102  -7.574  0.00  0.00    -0.010 C 
ATOM     11  C   UNL     1       9.721  -3.081  -3.845  0.00  0.00    +0.236 C 
ATOM     12  O   UNL     1      10.222  -4.066  -4.346  0.00  0.00    -0.274 OA
ATOM     13  H   UNL     1       9.082  -1.874 -10.251  0.00  0.00    -0.086 HD
ATOM     14  H   UNL     1       7.942  -0.858  -9.637  0.00  0.00    -0.086 HD
ENDROOT
BRANCH  11  15
ATOM     15  C   UNL     1       9.302  -3.102  -2.397  0.00  0.00    +0.162 C 
ATOM     16  C   UNL     1      10.377  -2.413  -1.530  0.00  0.00    +0.033 C 
ATOM     17  C   UNL     1      10.406  -3.291  -0.251  0.00  0.00    +0.021 C 
ATOM     18  C   UNL     1      10.155  -4.703  -0.837  0.00  0.00    +0.109 C 
ATOM     19  N   UNL     1       9.185  -4.492  -1.931  0.00  0.00    -0.283 N 
ATOM     20  C   UNL     1       8.335  -5.416  -2.421  0.00  0.00    +0.320 C 
ATOM     21  O   UNL     1       7.580  -5.126  -3.325  0.00  0.00    -0.266 OA
BRANCH  20  22
ATOM     22  C   UNL     1       8.322  -6.808  -1.845  0.00  0.00    +0.470 C 
ATOM     23  F   UNL     1       7.364  -7.580  -2.511  0.00  0.00    -0.162 F 
ATOM     24  F   UNL     1       9.584  -7.391  -2.006  0.00  0.00    -0.162 F 
ATOM     25  F   UNL     1       8.007  -6.747  -0.483  0.00  0.00    -0.162 F 
ENDBRANCH  20  22
ENDBRANCH  11  15
BRANCH   1  27
ATOM     26  N   UNL     1       5.668   0.076  -5.731  0.00  0.00    -0.314 N 
ATOM     27  C   UNL     1       6.661  -0.644  -5.171  0.00  0.00    +0.218 C 
ATOM     28  O   UNL     1       6.400  -1.633  -4.520  0.00  0.00    -0.275 OA
ATOM     29  H   UNL     1       5.877   0.867  -6.251  0.00  0.00    +0.149 HD
BRANCH  26  30
ATOM     30  C   UNL     1       4.274  -0.338  -5.553  0.00  0.00    +0.123 C 
BRANCH  30  31
ATOM     31  C   UNL     1       3.355   0.642  -6.284  0.00  0.00    +0.126 C 
BRANCH  31  34
ATOM     32  C   UNL     1       0.968   0.948  -6.667  0.00  0.00    +0.401 C 
ATOM     33  O   UNL     1       1.229   1.940  -7.319  0.00  0.00    -0.226 OA
ATOM     34  N   UNL     1       1.960   0.229  -6.107  0.00  0.00    -0.280 N 
ATOM     35  H   UNL     1       1.752  -0.563  -5.587  0.00  0.00    +0.152 HD
BRANCH  32  36
ATOM     36  O   UNL     1      -0.314   0.568  -6.504  0.00  0.00    -0.445 OA
BRANCH  36  38
ATOM     37  C   UNL     1      -1.083   1.404  -8.637  0.00  0.00    +0.055 C 
ATOM     38  C   UNL     1      -1.314   1.377  -7.125  0.00  0.00    +0.107 C 
ATOM     39  C   UNL     1      -1.234   2.802  -6.572  0.00  0.00    +0.055 C 
ATOM     40  C   UNL     1      -2.697   0.793  -6.831  0.00  0.00    +0.055 C 
ENDBRANCH  36  38
ENDBRANCH  32  36
ENDBRANCH  31  34
ENDBRANCH  30  31
ENDBRANCH  26  30
ENDBRANCH   1  27
TORSDOF 8
