REMARK  Name = ZINC22938702
REMARK  10 active torsions:
REMARK  status: ('A' for Active; 'I' for Inactive)
REMARK    1  A    between atoms: C_1  and  C_2
REMARK    2  A    between atoms: C_2  and  C_3
REMARK    3  A    between atoms: C_2  and  C_14
REMARK    4  A    between atoms: C_2  and  N_20
REMARK    5  A    between atoms: C_3  and  N_4
REMARK    6  A    between atoms: N_4  and  S_5
REMARK    7  A    between atoms: S_5  and  C_8
REMARK    8  A    between atoms: N_23  and  C_26
REMARK    9  A    between atoms: C_26  and  C_27
REMARK   10  A    between atoms: C_26  and  C_33
REMARK                            x       y       z     vdW  Elec       q    Type
REMARK                         _______ _______ _______ _____ _____    ______ ____
ROOT
ATOM      1  C   UNL     1      -1.348   0.730  -0.715  0.00  0.00    +0.034 C 
ATOM      2  C   UNL     1      -2.669  -0.022  -0.544  0.00  0.00    +0.058 C 
ENDROOT
BRANCH   2   3
ATOM      3  N   UNL     1      -3.786   0.931  -0.605  0.00  0.00    -0.295 NA
ATOM      4  C   UNL     1      -3.808   1.635  -1.894  0.00  0.00    +0.067 C 
ATOM      5  C   UNL     1      -5.029   2.557  -1.948  0.00  0.00    -0.062 C 
ATOM      6  N   UNL     1      -4.969   3.510  -0.831  0.00  0.00    +0.389 N 
ATOM      7  C   UNL     1      -4.947   2.806   0.458  0.00  0.00    -0.062 C 
ATOM      8  C   UNL     1      -3.726   1.884   0.512  0.00  0.00    +0.067 C 
ATOM      9  H   UNL     1      -4.034   4.082  -0.922  0.00  0.00    -0.080 HD
BRANCH   6  10
ATOM     10  C   UNL     1      -6.086   4.463  -0.892  0.00  0.00    -0.007 C 
BRANCH  10  11
ATOM     11  C   UNL     1      -5.976   5.439   0.251  0.00  0.00    -0.057 A 
ATOM     12  C   UNL     1      -4.757   6.017   0.552  0.00  0.00    +0.002 A 
ATOM     13  C   UNL     1      -4.657   6.916   1.597  0.00  0.00    +0.000 A 
ATOM     14  C   UNL     1      -5.775   7.229   2.348  0.00  0.00    +0.000 A 
ATOM     15  C   UNL     1      -6.993   6.646   2.051  0.00  0.00    +0.000 A 
ATOM     16  C   UNL     1      -7.093   5.751   1.002  0.00  0.00    +0.002 A 
ENDBRANCH  10  11
BRANCH  10  17
ATOM     17  C   UNL     1      -6.037   5.212  -2.199  0.00  0.00    -0.057 A 
ATOM     18  C   UNL     1      -4.827   5.671  -2.687  0.00  0.00    +0.002 A 
ATOM     19  C   UNL     1      -4.782   6.354  -3.888  0.00  0.00    +0.000 A 
ATOM     20  C   UNL     1      -5.946   6.587  -4.596  0.00  0.00    +0.000 A 
ATOM     21  C   UNL     1      -7.156   6.133  -4.104  0.00  0.00    +0.000 A 
ATOM     22  C   UNL     1      -7.201   5.445  -2.906  0.00  0.00    +0.002 A 
ENDBRANCH  10  17
ENDBRANCH   6  10
ENDBRANCH   2   3
BRANCH   2  23
ATOM     23  C   UNL     1      -2.815  -1.038  -1.647  0.00  0.00    -0.026 A 
ATOM     24  C   UNL     1      -1.718  -1.768  -2.064  0.00  0.00    +0.005 A 
ATOM     25  C   UNL     1      -1.853  -2.704  -3.072  0.00  0.00    +0.000 A 
ATOM     26  C   UNL     1      -3.084  -2.906  -3.667  0.00  0.00    +0.000 A 
ATOM     27  C   UNL     1      -4.180  -2.172  -3.255  0.00  0.00    +0.000 A 
ATOM     28  C   UNL     1      -4.045  -1.236  -2.247  0.00  0.00    +0.005 A 
ENDBRANCH   2  23
BRANCH   2  29
ATOM     29  C   UNL     1      -2.680  -0.734   0.810  0.00  0.00    +0.132 C 
BRANCH  29  30
ATOM     30  N   UNL     1      -3.995  -1.340   1.033  0.00  0.00    -0.188 NA
ATOM     31  H   UNL     1      -4.882  -0.929   0.530  0.00  0.00    +0.148 HD
BRANCH  30  32
ATOM     32  S   UNL     1      -4.192  -2.475   2.222  0.00  0.00    +0.058 S 
ATOM     33  O   UNL     1      -5.564  -2.845   2.207  0.00  0.00    -0.153 OA
ATOM     34  O   UNL     1      -3.146  -3.422   2.057  0.00  0.00    -0.153 OA
BRANCH  32  35
ATOM     35  C   UNL     1      -3.905  -1.671   3.764  0.00  0.00    +0.105 A 
ATOM     36  C   UNL     1      -2.631  -1.638   4.299  0.00  0.00    +0.028 A 
ATOM     37  C   UNL     1      -2.405  -1.003   5.506  0.00  0.00    +0.002 A 
ATOM     38  C   UNL     1      -3.455  -0.409   6.182  0.00  0.00    +0.000 A 
ATOM     39  C   UNL     1      -4.730  -0.447   5.649  0.00  0.00    +0.002 A 
ATOM     40  C   UNL     1      -4.955  -1.078   4.440  0.00  0.00    +0.028 A 
ENDBRANCH  32  35
ENDBRANCH  30  32
ENDBRANCH  29  30
ENDBRANCH   2  29
TORSDOF 9
