REMARK  Name = ZINC06752764
REMARK  5 active torsions:
REMARK  status: ('A' for Active; 'I' for Inactive)
REMARK    1  A    between atoms: C_4  and  O_32
REMARK    2  A    between atoms: C_5  and  C_7
REMARK    3  A    between atoms: N_15  and  C_25
REMARK    4  A    between atoms: C_16  and  C_18
REMARK    5  A    between atoms: C_25  and  C_26
REMARK                            x       y       z     vdW  Elec       q    Type
REMARK                         _______ _______ _______ _____ _____    ______ ____
ROOT
ATOM      1  C   UNL     1       1.554  -2.972  -0.582  0.00  0.00    +0.075 A 
ATOM      2  C   UNL     1       1.732  -3.579   0.620  0.00  0.00    +0.035 A 
ATOM      3  C   UNL     1       1.712  -4.968   0.361  0.00  0.00    +0.153 A 
ATOM      4  N   UNL     1       1.529  -5.114  -0.937  0.00  0.00    -0.168 NA
ATOM      5  N   UNL     1       1.428  -3.967  -1.509  0.00  0.00    -0.276 N 
ATOM      6  H   UNL     1       1.286  -3.829  -2.458  0.00  0.00    +0.189 HD
ATOM      7  C   UNL     1       1.901  -5.670   1.643  0.00  0.00    +0.268 C 
ATOM      8  O   UNL     1       1.934  -6.879   1.773  0.00  0.00    -0.268 OA
ATOM      9  N   UNL     1       2.033  -4.787   2.647  0.00  0.00    -0.282 N 
ATOM     10  C   UNL     1       1.941  -3.428   2.102  0.00  0.00    +0.144 C 
ENDROOT
BRANCH  10  11
ATOM     11  C   UNL     1       3.218  -2.674   2.370  0.00  0.00    +0.013 A 
ATOM     12  C   UNL     1       3.168  -1.365   2.813  0.00  0.00    +0.008 A 
ATOM     13  C   UNL     1       4.339  -0.674   3.059  0.00  0.00    +0.001 A 
ATOM     14  C   UNL     1       5.562  -1.290   2.863  0.00  0.00    +0.003 A 
ATOM     15  C   UNL     1       5.614  -2.598   2.421  0.00  0.00    +0.039 A 
ATOM     16  C   UNL     1       4.441  -3.293   2.179  0.00  0.00    +0.129 A 
ATOM     17  F   UNL     1       4.490  -4.574   1.751  0.00  0.00    -0.205 F 
ENDBRANCH  10  11
BRANCH   1  22
ATOM     18  C   UNL     1       0.258   0.445  -1.452  0.00  0.00    +0.001 A 
ATOM     19  C   UNL     1       1.401   1.213  -1.316  0.00  0.00    +0.004 A 
ATOM     20  C   UNL     1       2.595   0.628  -0.942  0.00  0.00    +0.046 A 
ATOM     21  C   UNL     1       2.655  -0.735  -0.701  0.00  0.00    +0.126 A 
ATOM     22  C   UNL     1       1.501  -1.516  -0.837  0.00  0.00    +0.042 A 
ATOM     23  C   UNL     1       0.301  -0.914  -1.216  0.00  0.00    +0.013 A 
BRANCH  21  24
ATOM     24  O   UNL     1       3.829  -1.312  -0.333  0.00  0.00    -0.506 OA
ATOM     25  H   UNL     1       4.014  -1.258   0.614  0.00  0.00    +0.292 HD
ENDBRANCH  21  24
ENDBRANCH   1  22
BRANCH   9  26
ATOM     26  C   UNL     1       2.236  -5.126   4.058  0.00  0.00    +0.140 C 
BRANCH  26  27
ATOM     27  C   UNL     1       0.879  -5.346   4.729  0.00  0.00    +0.136 C 
ATOM     28  C   UNL     1       1.084  -5.715   6.215  0.00  0.00    +0.035 C 
ATOM     29  C   UNL     1      -0.004  -6.800   6.438  0.00  0.00    +0.031 C 
ATOM     30  C   UNL     1      -0.016  -7.495   5.053  0.00  0.00    +0.160 C 
ATOM     31  O   UNL     1       0.197  -6.438   4.101  0.00  0.00    -0.375 OA
ENDBRANCH  26  27
ENDBRANCH   9  26
TORSDOF 5
