REMARK  Name = ZINC06649744
REMARK  6 active torsions:
REMARK  status: ('A' for Active; 'I' for Inactive)
REMARK    1  A    between atoms: C_1  and  C_2
REMARK    2  A    between atoms: C_9  and  S_12
REMARK    3  A    between atoms: S_12  and  C_13
REMARK    4  A    between atoms: C_13  and  C_15
REMARK    5  A    between atoms: C_13  and  C_16
REMARK    6  A    between atoms: C_19  and  C_21
REMARK                            x       y       z     vdW  Elec       q    Type
REMARK                         _______ _______ _______ _____ _____    ______ ____
ROOT
ATOM      1  S   UNL     1       0.094  -5.738   2.540  0.00  0.00    -0.075 S 
ENDROOT
BRANCH   1  10
ATOM      2  C   UNL     1      -0.018   1.503   0.010  0.00  0.00    +0.044 C 
ATOM      3  C   UNL     1       0.002  -0.004   0.002  0.00  0.00    -0.048 A 
ATOM      4  C   UNL     1       0.006  -0.686  -1.206  0.00  0.00    +0.005 A 
ATOM      5  C   UNL     1       0.024  -2.065  -1.230  0.00  0.00    +0.028 A 
ATOM      6  C   UNL     1       0.040  -2.776  -0.040  0.00  0.00    +0.067 A 
ATOM      7  C   UNL     1       0.037  -2.091   1.187  0.00  0.00    +0.090 A 
ATOM      8  C   UNL     1       0.023  -0.694   1.194  0.00  0.00    +0.033 A 
ATOM      9  N   UNL     1       0.055  -3.029   2.169  0.00  0.00    -0.222 NA
ATOM     10  C   UNL     1       0.068  -4.226   1.635  0.00  0.00    +0.168 A 
ATOM     11  N   UNL     1       0.060  -4.126   0.273  0.00  0.00    -0.333 N 
ATOM     12  H   UNL     1       0.066  -4.862  -0.358  0.00  0.00    +0.168 HD
ENDBRANCH   1  10
BRANCH   1  13
ATOM     13  C   UNL     1       0.095  -5.211   4.276  0.00  0.00    +0.139 C 
ATOM     14  C   UNL     1       1.394  -4.461   4.580  0.00  0.00    +0.029 C 
BRANCH  13  15
ATOM     15  C   UNL     1      -0.007  -6.421   5.168  0.00  0.00    +0.231 A 
ATOM     16  N   UNL     1       0.668  -7.528   5.042  0.00  0.00    -0.111 NA
ATOM     17  N   UNL     1       0.331  -8.348   5.975  0.00  0.00    -0.107 NA
ATOM     18  C   UNL     1      -0.581  -7.784   6.737  0.00  0.00    +0.255 A 
ATOM     19  O   UNL     1      -0.808  -6.551   6.241  0.00  0.00    -0.419 OA
BRANCH  18  20
ATOM     20  C   UNL     1      -1.230  -8.386   7.912  0.00  0.00    +0.076 A 
ATOM     21  C   UNL     1      -1.033  -9.634   8.473  0.00  0.00    +0.021 A 
ATOM     22  C   UNL     1      -1.766  -9.975   9.585  0.00  0.00    +0.008 A 
ATOM     23  C   UNL     1      -2.654  -9.082  10.096  0.00  0.00    +0.046 A 
ATOM     24  S   UNL     1      -2.470  -7.691   8.992  0.00  0.00    -0.092 S 
ENDBRANCH  18  20
ENDBRANCH  13  15
ENDBRANCH   1  13
TORSDOF 4
