REMARK  Name = ZINC12738396
REMARK  9 active torsions:
REMARK  status: ('A' for Active; 'I' for Inactive)
REMARK    1  A    between atoms: C_1  and  C_2
REMARK    2  A    between atoms: C_2  and  C_4
REMARK    3  A    between atoms: C_2  and  N_57
REMARK    4  A    between atoms: C_7  and  S_16
REMARK    5  A    between atoms: N_8  and  C_9
REMARK    6  A    between atoms: S_16  and  C_17
REMARK    7  A    between atoms: C_17  and  C_18
REMARK    8  A    between atoms: C_18  and  C_19
REMARK    9  A    between atoms: N_24  and  C_25
REMARK                            x       y       z     vdW  Elec       q    Type
REMARK                         _______ _______ _______ _____ _____    ______ ____
ROOT
ATOM      1  C   UNL     1       2.076   0.607   0.178  0.00  0.00    +0.125 A 
ATOM      2  N   UNL     1       1.117   1.487   0.245  0.00  0.00    -0.135 NA
ATOM      3  N   UNL     1      -0.011   0.900   0.425  0.00  0.00    -0.122 NA
ATOM      4  C   UNL     1       0.165  -0.400   0.484  0.00  0.00    +0.196 A 
ATOM      5  N   UNL     1       1.505  -0.629   0.328  0.00  0.00    -0.275 N 
ENDROOT
BRANCH   5   6
ATOM      6  C   UNL     1       2.158  -1.871   0.322  0.00  0.00    +0.050 A 
ATOM      7  C   UNL     1       3.068  -2.183   1.323  0.00  0.00    +0.029 A 
ATOM      8  C   UNL     1       3.705  -3.408   1.318  0.00  0.00    +0.040 A 
ATOM      9  C   UNL     1       3.446  -4.321   0.310  0.00  0.00    +0.124 A 
ATOM     10  C   UNL     1       2.542  -4.010  -0.692  0.00  0.00    +0.040 A 
ATOM     11  C   UNL     1       1.898  -2.788  -0.688  0.00  0.00    +0.029 A 
ATOM     12  F   UNL     1       4.074  -5.516   0.304  0.00  0.00    -0.205 F 
ENDBRANCH   5   6
BRANCH   1  14
ATOM     13  C   UNL     1       3.781   1.306  -1.481  0.00  0.00    -0.005 C 
ATOM     14  C   UNL     1       3.541   0.895  -0.027  0.00  0.00    -0.002 C 
BRANCH  14  20
ATOM     15  C   UNL     1       5.386   2.275   0.714  0.00  0.00    -0.078 C 
ATOM     16  C   UNL     1       5.750   3.507   1.546  0.00  0.00    -0.019 C 
ATOM     17  C   UNL     1       5.417   3.240   3.017  0.00  0.00    -0.004 C 
ATOM     18  C   UNL     1       3.930   2.893   3.140  0.00  0.00    -0.019 C 
ATOM     19  C   UNL     1       3.619   1.680   2.262  0.00  0.00    -0.078 C 
ATOM     20  N   UNL     1       3.939   2.010   0.857  0.00  0.00    +0.386 N 
ATOM     21  H   UNL     1       3.418   2.852   0.586  0.00  0.00    -0.081 HD
ENDBRANCH  14  20
ENDBRANCH   1  14
BRANCH   4  22
ATOM     22  S   UNL     1      -1.086  -1.618   0.720  0.00  0.00    -0.085 S 
BRANCH  22  23
ATOM     23  C   UNL     1      -2.544  -0.552   0.839  0.00  0.00    +0.086 C 
BRANCH  23  24
ATOM     24  C   UNL     1      -3.790  -1.414   1.052  0.00  0.00    +0.107 C 
BRANCH  24  25
ATOM     25  C   UNL     1      -5.004  -0.527   1.151  0.00  0.00    +0.221 C 
ATOM     26  O   UNL     1      -4.884   0.676   1.060  0.00  0.00    -0.275 OA
ATOM     27  N   UNL     1      -6.222  -1.070   1.341  0.00  0.00    -0.240 N 
ATOM     28  C   UNL     1      -7.308  -0.277   1.429  0.00  0.00    +0.306 C 
ATOM     29  O   UNL     1      -7.188   0.929   1.338  0.00  0.00    -0.252 OA
ATOM     30  N   UNL     1      -8.527  -0.820   1.618  0.00  0.00    -0.302 N 
ATOM     31  C   UNL     1      -9.707   0.043   1.714  0.00  0.00    +0.129 C 
ATOM     32  H   UNL     1      -6.318  -2.033   1.413  0.00  0.00    +0.159 HD
ATOM     33  H   UNL     1      -8.622  -1.783   1.691  0.00  0.00    +0.150 HD
ENDBRANCH  24  25
ENDBRANCH  23  24
ENDBRANCH  22  23
ENDBRANCH   4  22
TORSDOF 7
