REMARK  Name = ZINC39580012
REMARK  7 active torsions:
REMARK  status: ('A' for Active; 'I' for Inactive)
REMARK    1  A    between atoms: C_1  and  C_2
REMARK    2  A    between atoms: C_3  and  O_17
REMARK    3  A    between atoms: C_4  and  C_8
REMARK    4  A    between atoms: C_11  and  O_16
REMARK    5  A    between atoms: C_12  and  O_15
REMARK    6  A    between atoms: C_13  and  O_14
REMARK    7  A    between atoms: O_17  and  C_18
REMARK                            x       y       z     vdW  Elec       q    Type
REMARK                         _______ _______ _______ _____ _____    ______ ____
ROOT
ATOM      1  C   UNL     1       0.209   1.107  -0.299  0.00  0.00    +0.071 C 
ATOM      2  C   UNL     1       0.035  -0.359   0.004  0.00  0.00    +0.098 C 
ATOM      3  C   UNL     1      -1.151  -0.961   0.224  0.00  0.00    +0.156 C 
ATOM      4  C   UNL     1      -0.777  -2.411   0.476  0.00  0.00    +0.200 C 
ATOM      5  N   UNL     1       0.690  -2.397   0.348  0.00  0.00    -0.294 N 
ATOM      6  N   UNL     1       1.036  -1.243   0.086  0.00  0.00    -0.179 NA
ATOM      7  H   UNL     1       1.280  -3.161   0.448  0.00  0.00    +0.184 HD
ENDROOT
BRANCH   4   8
ATOM      8  C   UNL     1      -1.191  -2.836   1.862  0.00  0.00    +0.029 A 
ATOM      9  C   UNL     1      -0.284  -2.773   2.903  0.00  0.00    +0.013 A 
ATOM     10  C   UNL     1      -0.659  -3.162   4.176  0.00  0.00    +0.050 A 
ATOM     11  C   UNL     1      -1.948  -3.616   4.412  0.00  0.00    +0.162 A 
ATOM     12  C   UNL     1      -2.863  -3.680   3.369  0.00  0.00    +0.201 A 
ATOM     13  C   UNL     1      -2.483  -3.284   2.091  0.00  0.00    +0.168 A 
BRANCH  13  14
ATOM     14  O   UNL     1      -3.377  -3.340   1.068  0.00  0.00    -0.503 OA
ATOM     15  H   UNL     1      -3.380  -4.183   0.594  0.00  0.00    +0.292 HD
ENDBRANCH  13  14
BRANCH  12  16
ATOM     16  O   UNL     1      -4.128  -4.125   3.597  0.00  0.00    -0.501 OA
ATOM     17  H   UNL     1      -4.753  -3.428   3.839  0.00  0.00    +0.292 HD
ENDBRANCH  12  16
BRANCH  11  18
ATOM     18  O   UNL     1      -2.315  -3.999   5.665  0.00  0.00    -0.503 OA
ATOM     19  H   UNL     1      -2.680  -3.284   6.203  0.00  0.00    +0.292 HD
ENDBRANCH  11  18
ENDBRANCH   4   8
BRANCH   3  20
ATOM     20  O   UNL     1      -2.382  -0.405   0.221  0.00  0.00    -0.456 OA
BRANCH  20  21
ATOM     21  C   UNL     1      -3.256  -0.796  -0.744  0.00  0.00    +0.128 A 
ATOM     22  C   UNL     1      -2.840  -1.653  -1.753  0.00  0.00    +0.046 A 
ATOM     23  C   UNL     1      -3.730  -2.049  -2.732  0.00  0.00    +0.004 A 
ATOM     24  C   UNL     1      -5.035  -1.592  -2.707  0.00  0.00    +0.000 A 
ATOM     25  C   UNL     1      -5.452  -0.738  -1.703  0.00  0.00    +0.004 A 
ATOM     26  C   UNL     1      -4.567  -0.343  -0.718  0.00  0.00    +0.046 A 
ENDBRANCH  20  21
ENDBRANCH   3  20
TORSDOF 6
