REMARK  Name = ZINC23644732
REMARK  7 active torsions:
REMARK  status: ('A' for Active; 'I' for Inactive)
REMARK    1  A    between atoms: C_1  and  C_2
REMARK    2  A    between atoms: C_2  and  C_4
REMARK    3  A    between atoms: C_2  and  S_21
REMARK    4  A    between atoms: C_10  and  C_15
REMARK    5  A    between atoms: S_21  and  C_22
REMARK    6  A    between atoms: N_26  and  C_27
REMARK    7  A    between atoms: C_30  and  O_33
REMARK                            x       y       z     vdW  Elec       q    Type
REMARK                         _______ _______ _______ _____ _____    ______ ____
ROOT
ATOM      1  C   UNL     1       0.731  -0.503   1.223  0.00  0.00    +0.124 A 
ATOM      2  N   UNL     1       2.053  -0.799   1.136  0.00  0.00    -0.309 N 
ATOM      3  H   UNL     1       2.511  -0.685   0.289  0.00  0.00    +0.170 HD
ATOM      4  C   UNL     1       2.741  -1.247   2.203  0.00  0.00    +0.260 A 
ATOM      5  O   UNL     1       3.928  -1.508   2.109  0.00  0.00    -0.267 OA
ATOM      6  C   UNL     1       2.057  -1.413   3.450  0.00  0.00    +0.080 A 
ATOM      7  C   UNL     1       2.575  -1.876   4.731  0.00  0.00    +0.004 A 
ATOM      8  C   UNL     1       1.729  -1.951   5.787  0.00  0.00    +0.056 A 
ATOM      9  S   UNL     1       0.175  -1.398   5.111  0.00  0.00    -0.076 S 
ATOM     10  C   UNL     1       0.692  -1.082   3.443  0.00  0.00    +0.116 A 
ATOM     11  N   UNL     1       0.081  -0.639   2.348  0.00  0.00    -0.225 NA
ENDROOT
BRANCH   7  12
ATOM     12  C   UNL     1       4.000  -2.258   4.877  0.00  0.00    -0.017 A 
ATOM     13  C   UNL     1       4.585  -3.136   3.965  0.00  0.00    +0.008 A 
ATOM     14  C   UNL     1       5.912  -3.487   4.106  0.00  0.00    +0.001 A 
ATOM     15  C   UNL     1       6.661  -2.971   5.148  0.00  0.00    +0.000 A 
ATOM     16  C   UNL     1       6.086  -2.100   6.055  0.00  0.00    +0.001 A 
ATOM     17  C   UNL     1       4.761  -1.737   5.922  0.00  0.00    +0.008 A 
ENDBRANCH   7  12
BRANCH   1  19
ATOM     18  C   UNL     1      -0.019   1.526   0.010  0.00  0.00    +0.027 C 
ATOM     19  C   UNL     1       0.002  -0.004   0.002  0.00  0.00    +0.117 C 
BRANCH  19  20
ATOM     20  S   UNL     1       0.851  -0.589  -1.490  0.00  0.00    -0.073 S 
BRANCH  20  21
ATOM     21  C   UNL     1      -0.189  -0.057  -2.809  0.00  0.00    +0.215 A 
ATOM     22  N   UNL     1      -1.314   0.616  -2.695  0.00  0.00    -0.101 NA
ATOM     23  N   UNL     1      -1.821   0.844  -3.853  0.00  0.00    -0.022 NA
ATOM     24  N   UNL     1      -1.075   0.344  -4.777  0.00  0.00    -0.038 NA
ATOM     25  N   UNL     1       0.021  -0.258  -4.134  0.00  0.00    -0.187 N 
BRANCH  25  26
ATOM     26  C   UNL     1       1.100  -0.925  -4.734  0.00  0.00    +0.070 A 
ATOM     27  C   UNL     1       2.368  -0.840  -4.174  0.00  0.00    +0.031 A 
ATOM     28  C   UNL     1       3.429  -1.497  -4.764  0.00  0.00    +0.047 A 
ATOM     29  C   UNL     1       3.228  -2.242  -5.917  0.00  0.00    +0.117 A 
ATOM     30  C   UNL     1       1.962  -2.327  -6.478  0.00  0.00    +0.047 A 
ATOM     31  C   UNL     1       0.899  -1.675  -5.885  0.00  0.00    +0.031 A 
BRANCH  29  32
ATOM     32  O   UNL     1       4.273  -2.889  -6.498  0.00  0.00    -0.507 OA
ATOM     33  H   UNL     1       4.407  -3.791  -6.175  0.00  0.00    +0.292 HD
ENDBRANCH  29  32
ENDBRANCH  25  26
ENDBRANCH  20  21
ENDBRANCH  19  20
ENDBRANCH   1  19
TORSDOF 6
