REMARK  Name = ZINC08791372
REMARK  8 active torsions:
REMARK  status: ('A' for Active; 'I' for Inactive)
REMARK    1  A    between atoms: C_1  and  C_2
REMARK    2  A    between atoms: C_2  and  C_3
REMARK    3  A    between atoms: C_3  and  C_4
REMARK    4  A    between atoms: C_4  and  N_5
REMARK    5  A    between atoms: C_6  and  C_8
REMARK    6  A    between atoms: C_8  and  C_10
REMARK    7  A    between atoms: C_8  and  N_11
REMARK    8  A    between atoms: C_12  and  C_14
REMARK                            x       y       z     vdW  Elec       q    Type
REMARK                         _______ _______ _______ _____ _____    ______ ____
ROOT
ATOM      1  C   UNL     1      -1.331   2.079   0.020  0.00  0.00    +0.167 C 
ATOM      2  C   UNL     1      -2.081   1.823  -1.296  0.00  0.00    +0.069 C 
ATOM      3  C   UNL     1      -3.111   2.899  -1.527  0.00  0.00    -0.015 A 
ATOM      4  C   UNL     1      -4.223   2.865  -2.460  0.00  0.00    +0.003 A 
ATOM      5  C   UNL     1      -4.665   1.895  -3.365  0.00  0.00    +0.010 A 
ATOM      6  C   UNL     1      -5.777   2.204  -4.109  0.00  0.00    +0.001 A 
ATOM      7  C   UNL     1      -6.438   3.414  -3.978  0.00  0.00    +0.002 A 
ATOM      8  C   UNL     1      -6.022   4.391  -3.090  0.00  0.00    +0.026 A 
ATOM      9  C   UNL     1      -4.895   4.105  -2.322  0.00  0.00    +0.047 A 
ATOM     10  N   UNL     1      -4.228   4.824  -1.372  0.00  0.00    -0.356 N 
ATOM     11  H   UNL     1      -4.467   5.716  -1.077  0.00  0.00    +0.166 HD
ATOM     12  C   UNL     1      -3.171   4.094  -0.898  0.00  0.00    +0.046 A 
ATOM     13  C   UNL     1      -2.199   4.506   0.181  0.00  0.00    +0.155 C 
ATOM     14  N   UNL     1      -1.092   3.522   0.128  0.00  0.00    -0.273 N 
ATOM     15  C   UNL     1       0.070   4.188   0.158  0.00  0.00    +0.248 C 
ATOM     16  O   UNL     1       1.160   3.688   0.356  0.00  0.00    -0.270 OA
ATOM     17  C   UNL     1      -0.176   5.614  -0.083  0.00  0.00    +0.042 A 
ATOM     18  C   UNL     1      -1.570   5.830  -0.089  0.00  0.00    -0.009 A 
ATOM     19  C   UNL     1      -2.104   7.079  -0.307  0.00  0.00    +0.006 A 
ATOM     20  C   UNL     1      -1.208   8.124  -0.512  0.00  0.00    +0.000 A 
ATOM     21  C   UNL     1       0.158   7.925  -0.494  0.00  0.00    +0.001 A 
ATOM     22  C   UNL     1       0.713   6.673  -0.278  0.00  0.00    +0.013 A 
ENDROOT
BRANCH   1  24
ATOM     23  N   UNL     1       0.165   0.275   0.811  0.00  0.00    -0.303 N 
ATOM     24  C   UNL     1      -0.016   1.344   0.009  0.00  0.00    +0.235 C 
ATOM     25  O   UNL     1       0.878   1.710  -0.724  0.00  0.00    -0.274 OA
ATOM     26  H   UNL     1      -0.550  -0.018   1.397  0.00  0.00    +0.149 HD
BRANCH  23  27
ATOM     27  C   UNL     1       1.441  -0.444   0.797  0.00  0.00    +0.156 C 
ATOM     28  C   UNL     1       2.426   0.248   1.741  0.00  0.00    +0.038 C 
BRANCH  27  30
ATOM     29  N   UNL     1       2.264  -2.718   1.317  0.00  0.00    -0.314 N 
ATOM     30  C   UNL     1       1.223  -1.864   1.250  0.00  0.00    +0.233 C 
ATOM     31  O   UNL     1       0.111  -2.239   1.556  0.00  0.00    -0.274 OA
ATOM     32  H   UNL     1       3.153  -2.418   1.073  0.00  0.00    +0.149 HD
BRANCH  29  33
ATOM     33  C   UNL     1       2.051  -4.098   1.758  0.00  0.00    +0.104 C 
BRANCH  33  34
ATOM     34  C   UNL     1       3.384  -4.849   1.743  0.00  0.00    +0.018 C 
BRANCH  34  36
ATOM     35  C   UNL     1       4.496  -7.042   2.188  0.00  0.00    +0.004 C 
ATOM     36  C   UNL     1       3.163  -6.291   2.203  0.00  0.00    -0.002 C 
ENDBRANCH  34  36
ENDBRANCH  33  34
ENDBRANCH  29  33
ENDBRANCH  27  30
ENDBRANCH  23  27
ENDBRANCH   1  24
TORSDOF 6
