REMARK  Name = ZINC04624831
REMARK  5 active torsions:
REMARK  status: ('A' for Active; 'I' for Inactive)
REMARK    1  A    between atoms: C_1  and  C_2
REMARK    2  A    between atoms: C_3  and  C_19
REMARK    3  A    between atoms: C_4  and  C_14
REMARK    4  A    between atoms: C_19  and  O_21
REMARK    5  A    between atoms: O_21  and  C_22
REMARK                            x       y       z     vdW  Elec       q    Type
REMARK                         _______ _______ _______ _____ _____    ______ ____
ROOT
ATOM      1  C   UNL     1      -0.018   1.503   0.010  0.00  0.00    +0.061 C 
ATOM      2  C   UNL     1       0.002  -0.004   0.002  0.00  0.00    +0.016 C 
ATOM      3  C   UNL     1      -1.155  -0.687   0.004  0.00  0.00    +0.066 C 
ATOM      4  C   UNL     1      -1.174  -2.188  -0.012  0.00  0.00    +0.099 C 
ATOM      5  C   UNL     1       0.164  -2.749   0.399  0.00  0.00    +0.024 C 
ATOM      6  C   UNL     1       1.272  -1.979   0.376  0.00  0.00    +0.015 C 
ATOM      7  N   UNL     1       1.198  -0.667  -0.013  0.00  0.00    -0.321 N 
ATOM      8  C   UNL     1       2.616  -2.539   0.768  0.00  0.00    +0.051 C 
ATOM      9  C   UNL     1       2.429  -3.633   1.822  0.00  0.00    +0.014 C 
ATOM     10  C   UNL     1       1.521  -4.720   1.240  0.00  0.00    +0.080 C 
ATOM     11  C   UNL     1       0.224  -4.094   0.806  0.00  0.00    +0.162 C 
ATOM     12  O   UNL     1      -0.791  -4.762   0.808  0.00  0.00    -0.292 OA
ATOM     13  H   UNL     1       2.000  -0.203  -0.298  0.00  0.00    +0.152 HD
ENDROOT
BRANCH   4  14
ATOM     14  C   UNL     1      -1.503  -2.664  -1.404  0.00  0.00    +0.002 A 
ATOM     15  C   UNL     1      -2.547  -3.420  -1.823  0.00  0.00    +0.012 A 
ATOM     16  C   UNL     1      -2.649  -3.738  -3.164  0.00  0.00    +0.008 A 
ATOM     17  C   UNL     1      -1.701  -3.285  -4.021  0.00  0.00    +0.045 A 
ATOM     18  S   UNL     1      -0.623  -2.372  -2.929  0.00  0.00    -0.101 S 
ENDBRANCH   4  14
BRANCH   3  19
ATOM     19  C   UNL     1      -2.380   0.021   0.021  0.00  0.00    +0.337 C 
ATOM     20  O   UNL     1      -2.378   1.238   0.035  0.00  0.00    -0.245 OA
BRANCH  19  21
ATOM     21  O   UNL     1      -3.549  -0.652   0.024  0.00  0.00    -0.465 OA
ATOM     22  C   UNL     1      -4.746   0.128   0.042  0.00  0.00    +0.280 C 
ENDBRANCH  19  21
ENDBRANCH   3  19
TORSDOF 3
