REMARK  Name = ZINC08920776
REMARK  9 active torsions:
REMARK  status: ('A' for Active; 'I' for Inactive)
REMARK    1  A    between atoms: C_1  and  C_2
REMARK    2  A    between atoms: C_2  and  O_3
REMARK    3  A    between atoms: O_3  and  C_4
REMARK    4  A    between atoms: C_8  and  C_11
REMARK    5  A    between atoms: C_9  and  O_10
REMARK    6  A    between atoms: C_23  and  O_25
REMARK    7  A    between atoms: O_25  and  C_26
REMARK    8  A    between atoms: C_26  and  C_27
REMARK    9  A    between atoms: C_28  and  O_30
REMARK                            x       y       z     vdW  Elec       q    Type
REMARK                         _______ _______ _______ _____ _____    ______ ____
ROOT
ATOM      1  C   UNL     1       2.224  -4.266  -3.828  0.00  0.00    +0.227 C 
ATOM      2  N   UNL     1       1.727  -5.632  -4.076  0.00  0.00    -0.313 N 
ATOM      3  C   UNL     1       0.551  -5.733  -4.785  0.00  0.00    +0.080 A 
ATOM      4  C   UNL     1       0.128  -4.729  -5.664  0.00  0.00    +0.068 A 
ATOM      5  C   UNL     1      -1.139  -4.969  -6.332  0.00  0.00    -0.020 A 
ATOM      6  C   UNL     1      -1.727  -6.144  -6.009  0.00  0.00    +0.013 A 
ATOM      7  S   UNL     1      -0.624  -6.901  -4.849  0.00  0.00    -0.076 S 
ATOM      8  C   UNL     1      -3.027  -6.670  -6.536  0.00  0.00    +0.153 C 
ATOM      9  N   UNL     1      -3.667  -5.574  -7.289  0.00  0.00    -0.262 N 
ATOM     10  C   UNL     1      -2.811  -4.757  -8.162  0.00  0.00    +0.116 C 
ATOM     11  C   UNL     1      -1.785  -4.002  -7.314  0.00  0.00    +0.056 C 
ATOM     12  C   UNL     1      -4.988  -5.330  -7.180  0.00  0.00    +0.403 C 
ATOM     13  O   UNL     1      -5.492  -4.421  -7.810  0.00  0.00    -0.226 OA
ATOM     14  C   UNL     1       1.009  -3.543  -5.825  0.00  0.00    +0.220 C 
ATOM     15  N   UNL     1       1.980  -3.392  -4.968  0.00  0.00    -0.223 NA
ATOM     16  H   UNL     1       2.202  -6.415  -3.759  0.00  0.00    +0.149 HD
ENDROOT
BRANCH   1  21
ATOM     17  C   UNL     1       0.777  -1.811  -1.336  0.00  0.00    +0.163 A 
ATOM     18  C   UNL     1       0.243  -2.669  -0.388  0.00  0.00    +0.064 A 
ATOM     19  C   UNL     1       0.352  -4.038  -0.555  0.00  0.00    +0.022 A 
ATOM     20  C   UNL     1       0.992  -4.553  -1.668  0.00  0.00    +0.026 A 
ATOM     21  C   UNL     1       1.526  -3.702  -2.617  0.00  0.00    +0.041 A 
ATOM     22  C   UNL     1       1.416  -2.329  -2.458  0.00  0.00    +0.165 A 
ATOM     23 BR   UNL     1      -0.376  -5.207   0.741  0.00  0.00    -0.050 Br
BRANCH  22  24
ATOM     24  O   UNL     1       1.936  -1.491  -3.394  0.00  0.00    -0.503 OA
ATOM     25  H   UNL     1       2.856  -1.241  -3.230  0.00  0.00    +0.292 HD
ENDBRANCH  22  24
BRANCH  17  26
ATOM     26  O   UNL     1       0.671  -0.465  -1.174  0.00  0.00    -0.489 OA
BRANCH  26  28
ATOM     27  C   UNL     1      -0.019   1.526   0.010  0.00  0.00    +0.048 C 
ATOM     28  C   UNL     1       0.002  -0.004   0.002  0.00  0.00    +0.226 C 
ENDBRANCH  26  28
ENDBRANCH  17  26
ENDBRANCH   1  21
BRANCH  14  29
ATOM     29  O   UNL     1       0.810  -2.654  -6.825  0.00  0.00    -0.492 OA
ATOM     30  H   UNL     1       1.443  -1.923  -6.832  0.00  0.00    +0.294 HD
ENDBRANCH  14  29
BRANCH  12  31
ATOM     31  O   UNL     1      -5.750  -6.093  -6.374  0.00  0.00    -0.451 OA
BRANCH  31  32
ATOM     32  C   UNL     1      -7.142  -5.778  -6.307  0.00  0.00    +0.230 C 
ATOM     33  C   UNL     1      -7.838  -6.746  -5.348  0.00  0.00    +0.048 C 
ENDBRANCH  31  32
ENDBRANCH  12  31
TORSDOF 7
