REMARK  Name = ZINC13484750
REMARK  10 active torsions:
REMARK  status: ('A' for Active; 'I' for Inactive)
REMARK    1  A    between atoms: C_1  and  C_2
REMARK    2  A    between atoms: C_4  and  C_29
REMARK    3  A    between atoms: C_6  and  C_20
REMARK    4  A    between atoms: C_9  and  C_11
REMARK    5  A    between atoms: C_14  and  O_19
REMARK    6  A    between atoms: C_15  and  O_17
REMARK    7  A    between atoms: O_17  and  C_18
REMARK    8  A    between atoms: C_23  and  O_28
REMARK    9  A    between atoms: C_24  and  O_26
REMARK   10  A    between atoms: O_26  and  C_27
REMARK                            x       y       z     vdW  Elec       q    Type
REMARK                         _______ _______ _______ _____ _____    ______ ____
ROOT
ATOM      1  C   UNL     1      -1.302   1.107   2.337  0.00  0.00    +0.011 C 
ATOM      2  C   UNL     1      -1.876   2.222   1.462  0.00  0.00    +0.025 C 
ATOM      3  C   UNL     1      -3.403   2.052   1.301  0.00  0.00    +0.025 C 
ATOM      4  C   UNL     1      -3.602   1.860  -0.218  0.00  0.00    +0.152 C 
ATOM      5  O   UNL     1      -2.334   1.359  -0.698  0.00  0.00    -0.364 OA
ATOM      6  C   UNL     1      -1.333   2.112   0.020  0.00  0.00    +0.152 C 
ATOM      7  C   UNL     1      -3.889   0.821   2.069  0.00  0.00    +0.011 C 
ENDROOT
BRANCH   6   8
ATOM      8  C   UNL     1      -0.017   1.378   0.010  0.00  0.00    -0.015 A 
ATOM      9  C   UNL     1       0.002  -0.004   0.002  0.00  0.00    +0.010 A 
ATOM     10  C   UNL     1       1.207  -0.682  -0.013  0.00  0.00    +0.049 A 
ATOM     11  C   UNL     1       2.399   0.024  -0.020  0.00  0.00    +0.158 A 
ATOM     12  C   UNL     1       2.380   1.415  -0.013  0.00  0.00    +0.162 A 
ATOM     13  C   UNL     1       1.169   2.089   0.002  0.00  0.00    +0.055 A 
BRANCH  12  14
ATOM     14  O   UNL     1       3.548   2.113  -0.020  0.00  0.00    -0.491 OA
ATOM     15  C   UNL     1       3.452   3.539  -0.012  0.00  0.00    +0.277 C 
ENDBRANCH  12  14
BRANCH  11  16
ATOM     16  O   UNL     1       3.585  -0.641  -0.034  0.00  0.00    -0.503 OA
ATOM     17  H   UNL     1       4.531  -0.080  -0.040  0.00  0.00    +0.292 HD
ENDBRANCH  11  16
ENDBRANCH   6   8
BRANCH   4  18
ATOM     18  C   UNL     1      -4.696   0.858  -0.482  0.00  0.00    -0.015 A 
ATOM     19  C   UNL     1      -4.428  -0.496  -0.391  0.00  0.00    +0.010 A 
ATOM     20  C   UNL     1      -5.429  -1.419  -0.632  0.00  0.00    +0.049 A 
ATOM     21  C   UNL     1      -6.703  -0.989  -0.964  0.00  0.00    +0.158 A 
ATOM     22  C   UNL     1      -6.973   0.373  -1.054  0.00  0.00    +0.162 A 
ATOM     23  C   UNL     1      -5.967   1.293  -0.807  0.00  0.00    +0.055 A 
BRANCH  22  24
ATOM     24  O   UNL     1      -8.223   0.800  -1.380  0.00  0.00    -0.491 OA
ATOM     25  C   UNL     1      -8.426   2.213  -1.455  0.00  0.00    +0.277 C 
ENDBRANCH  22  24
BRANCH  21  26
ATOM     26  O   UNL     1      -7.689  -1.896  -1.201  0.00  0.00    -0.503 OA
ATOM     27  H   UNL     1      -8.700  -1.553  -1.465  0.00  0.00    +0.292 HD
ENDBRANCH  21  26
ENDBRANCH   4  18
TORSDOF 6
