REMARK  Name = ZINC36064271
REMARK  11 active torsions:
REMARK  status: ('A' for Active; 'I' for Inactive)
REMARK    1  A    between atoms: C_1  and  C_2
REMARK    2  A    between atoms: C_2  and  O_3
REMARK    3  A    between atoms: O_3  and  C_4
REMARK    4  A    between atoms: C_4  and  C_6
REMARK    5  A    between atoms: C_13  and  C_15
REMARK    6  A    between atoms: C_18  and  C_20
REMARK    7  A    between atoms: C_20  and  N_21
REMARK    8  A    between atoms: N_21  and  C_22
REMARK    9  A    between atoms: N_21  and  C_30
REMARK   10  A    between atoms: C_22  and  C_23
REMARK   11  A    between atoms: C_30  and  C_31
REMARK                            x       y       z     vdW  Elec       q    Type
REMARK                         _______ _______ _______ _____ _____    ______ ____
ROOT
ATOM      1  C   UNL     1      -9.199  -5.588   1.514  0.00  0.00    +0.020 C 
ENDROOT
BRANCH   1   5
ATOM      2  C   UNL     1      -6.764  -3.011   2.258  0.00  0.00    +0.164 A 
ATOM      3  C   UNL     1      -7.892  -2.257   2.142  0.00  0.00    +0.230 A 
ATOM      4  O   UNL     1      -8.899  -3.099   1.861  0.00  0.00    -0.449 OA
ATOM      5  C   UNL     1      -8.402  -4.343   1.804  0.00  0.00    +0.179 A 
ATOM      6  N   UNL     1      -7.124  -4.304   2.035  0.00  0.00    -0.210 NA
BRANCH   2  13
ATOM      7  C   UNL     1      -2.127  -3.319   1.536  0.00  0.00    +0.115 C 
ATOM      8  C   UNL     1      -2.230  -4.839   1.385  0.00  0.00    +0.018 C 
ATOM      9  C   UNL     1      -3.682  -5.228   1.099  0.00  0.00    +0.020 C 
ATOM     10  C   UNL     1      -4.563  -4.798   2.276  0.00  0.00    +0.108 C 
ATOM     11  N   UNL     1      -4.360  -3.363   2.519  0.00  0.00    -0.295 N 
ATOM     12  C   UNL     1      -2.991  -2.867   2.717  0.00  0.00    +0.122 C 
ATOM     13  C   UNL     1      -5.409  -2.518   2.561  0.00  0.00    +0.268 C 
ATOM     14  O   UNL     1      -5.237  -1.349   2.848  0.00  0.00    -0.268 OA
BRANCH   7  15
ATOM     15  C   UNL     1      -0.692  -2.934   1.785  0.00  0.00    +0.312 C 
ATOM     16  O   UNL     1       0.163  -3.788   1.837  0.00  0.00    -0.250 OA
BRANCH  15  17
ATOM     17  O   UNL     1      -0.362  -1.644   1.951  0.00  0.00    -0.465 OA
BRANCH  17  19
ATOM     18  C   UNL     1       1.198   0.159   2.347  0.00  0.00    +0.048 C 
ATOM     19  C   UNL     1       1.017  -1.352   2.184  0.00  0.00    +0.229 C 
ENDBRANCH  17  19
ENDBRANCH  15  17
ENDBRANCH   7  15
ENDBRANCH   2  13
ENDBRANCH   1   5
BRANCH   1  20
ATOM     20  N   UNL     1      -9.771  -6.106   2.764  0.00  0.00    +0.391 N 
ATOM     21  H   UNL     1      -9.035  -6.233   3.443  0.00  0.00    -0.080 HD
BRANCH  20  22
ATOM     22  C   UNL     1     -10.758  -5.151   3.284  0.00  0.00    -0.042 C 
BRANCH  22  23
ATOM     23  C   UNL     1     -11.254  -5.622   4.626  0.00  0.00    -0.064 A 
ATOM     24  C   UNL     1     -12.355  -6.454   4.702  0.00  0.00    +0.004 A 
ATOM     25  C   UNL     1     -12.811  -6.887   5.933  0.00  0.00    +0.038 A 
ATOM     26  C   UNL     1     -12.165  -6.487   7.090  0.00  0.00    +0.123 A 
ATOM     27  C   UNL     1     -11.062  -5.653   7.013  0.00  0.00    +0.038 A 
ATOM     28  C   UNL     1     -10.605  -5.225   5.781  0.00  0.00    +0.004 A 
ATOM     29  F   UNL     1     -12.610  -6.909   8.294  0.00  0.00    -0.205 F 
ENDBRANCH  22  23
ENDBRANCH  20  22
BRANCH  20  30
ATOM     30  C   UNL     1     -10.426  -7.395   2.505  0.00  0.00    -0.040 C 
BRANCH  30  31
ATOM     31  C   UNL     1      -9.393  -8.411   2.091  0.00  0.00    -0.046 A 
ATOM     32  C   UNL     1      -9.255  -8.752   0.759  0.00  0.00    +0.003 A 
ATOM     33  C   UNL     1      -8.306  -9.683   0.378  0.00  0.00    +0.000 A 
ATOM     34  C   UNL     1      -7.496 -10.274   1.330  0.00  0.00    +0.001 A 
ATOM     35  C   UNL     1      -7.633  -9.933   2.663  0.00  0.00    +0.020 A 
ATOM     36  C   UNL     1      -8.578  -8.997   3.043  0.00  0.00    +0.042 A 
ATOM     37 CL   UNL     1      -8.747  -8.563   4.716  0.00  0.00    -0.083 Cl
ENDBRANCH  30  31
ENDBRANCH  20  30
ENDBRANCH   1  20
TORSDOF 10
