REMARK  Name = ZINC39674216
REMARK  9 active torsions:
REMARK  status: ('A' for Active; 'I' for Inactive)
REMARK    1  A    between atoms: C_1  and  C_2
REMARK    2  A    between atoms: C_4  and  C_9
REMARK    3  A    between atoms: C_5  and  C_8
REMARK    4  A    between atoms: C_9  and  C_11
REMARK    5  A    between atoms: C_9  and  N_12
REMARK    6  A    between atoms: C_13  and  C_15
REMARK    7  A    between atoms: C_26  and  C_28
REMARK    8  A    between atoms: C_33  and  O_34
REMARK    9  A    between atoms: O_34  and  C_35
REMARK                            x       y       z     vdW  Elec       q    Type
REMARK                         _______ _______ _______ _____ _____    ______ ____
ROOT
ATOM      1  C   UNL     1      -3.947   3.010  -1.769  0.00  0.00    +0.100 C 
ATOM      2  C   UNL     1      -3.665   3.863  -0.511  0.00  0.00    +0.121 C 
ATOM      3  N   UNL     1      -4.744   4.879  -0.499  0.00  0.00    -0.296 N 
ATOM      4  C   UNL     1      -5.952   4.139  -0.933  0.00  0.00    +0.115 C 
ATOM      5  C   UNL     1      -5.449   3.193  -2.042  0.00  0.00    -0.004 C 
ATOM      6  C   UNL     1      -6.169   1.851  -1.956  0.00  0.00    -0.010 C 
ATOM      7  C   UNL     1      -7.651   2.049  -2.289  0.00  0.00    -0.082 C 
ATOM      8  N   UNL     1      -7.780   2.611  -3.638  0.00  0.00    +0.379 N 
ATOM      9  C   UNL     1      -7.166   3.944  -3.687  0.00  0.00    -0.082 C 
ATOM     10  C   UNL     1      -5.664   3.825  -3.413  0.00  0.00    -0.010 C 
ATOM     11  C   UNL     1      -4.647   6.182  -0.168  0.00  0.00    +0.250 C 
ATOM     12  O   UNL     1      -3.560   6.668   0.077  0.00  0.00    -0.270 OA
ATOM     13  H   UNL     1      -7.318   2.005  -4.300  0.00  0.00    -0.086 HD
ATOM     14  H   UNL     1      -8.757   2.684  -3.879  0.00  0.00    -0.086 HD
ENDROOT
BRANCH  11  15
ATOM     15  C   UNL     1      -5.861   7.018  -0.103  0.00  0.00    +0.078 A 
ATOM     16  C   UNL     1      -7.068   6.472   0.340  0.00  0.00    +0.017 A 
ATOM     17  C   UNL     1      -8.198   7.258   0.399  0.00  0.00    +0.001 A 
ATOM     18  C   UNL     1      -8.143   8.590   0.020  0.00  0.00    +0.004 A 
ATOM     19  C   UNL     1      -6.957   9.142  -0.420  0.00  0.00    +0.046 A 
ATOM     20  C   UNL     1      -5.809   8.367  -0.481  0.00  0.00    +0.132 A 
BRANCH  20  21
ATOM     21  O   UNL     1      -4.641   8.910  -0.908  0.00  0.00    -0.494 OA
ATOM     22  C   UNL     1      -4.665  10.290  -1.276  0.00  0.00    +0.277 C 
ENDBRANCH  20  21
ENDBRANCH  11  15
BRANCH   1  24
ATOM     23  N   UNL     1      -3.397   0.721  -2.527  0.00  0.00    -0.309 N 
ATOM     24  C   UNL     1      -3.635   1.560  -1.500  0.00  0.00    +0.219 C 
ATOM     25  O   UNL     1      -3.598   1.149  -0.360  0.00  0.00    -0.275 OA
ATOM     26  H   UNL     1      -3.426   1.050  -3.439  0.00  0.00    +0.149 HD
BRANCH  23  27
ATOM     27  C   UNL     1      -3.093  -0.689  -2.266  0.00  0.00    +0.100 C 
ATOM     28  C   UNL     1      -4.394  -1.493  -2.238  0.00  0.00    +0.033 C 
BRANCH  27  31
ATOM     29  C   UNL     1      -2.646   0.151  -5.407  0.00  0.00    +0.039 C 
ATOM     30  C   UNL     1      -2.465  -1.262  -4.849  0.00  0.00    +0.154 C 
ATOM     31  C   UNL     1      -2.198  -1.220  -3.355  0.00  0.00    -0.001 C 
ATOM     32  C   UNL     1      -0.984  -1.762  -3.231  0.00  0.00    +0.063 C 
ATOM     33  N   UNL     1      -0.493  -2.121  -4.437  0.00  0.00    -0.159 NA
ATOM     34  N   UNL     1      -1.245  -1.884  -5.391  0.00  0.00    -0.180 NA
ATOM     35  C   UNL     1      -0.261  -1.950  -1.922  0.00  0.00    +0.067 C 
ENDBRANCH  27  31
ENDBRANCH  23  27
ENDBRANCH   1  24
TORSDOF 5
