REMARK  Name = ZINC12823352
REMARK  7 active torsions:
REMARK  status: ('A' for Active; 'I' for Inactive)
REMARK    1  A    between atoms: C_1  and  C_2
REMARK    2  A    between atoms: C_2  and  C_3
REMARK    3  A    between atoms: C_8  and  N_9
REMARK    4  A    between atoms: C_12  and  C_17
REMARK    5  A    between atoms: C_17  and  O_18
REMARK    6  A    between atoms: O_18  and  C_19
REMARK    7  A    between atoms: C_19  and  C_21
REMARK                            x       y       z     vdW  Elec       q    Type
REMARK                         _______ _______ _______ _____ _____    ______ ____
ROOT
ATOM      1  N   UNL     1      -1.955  10.475  -3.275  0.00  0.00    -0.283 N 
ATOM      2  C   UNL     1      -2.643   9.869  -2.241  0.00  0.00    +0.224 A 
ATOM      3  N   UNL     1      -2.000   9.076  -1.387  0.00  0.00    -0.196 NA
ATOM      4  C   UNL     1      -2.659   8.491  -0.402  0.00  0.00    +0.173 A 
ATOM      5  N   UNL     1      -3.955   8.700  -0.254  0.00  0.00    -0.196 NA
ATOM      6  C   UNL     1      -4.604   9.496  -1.101  0.00  0.00    +0.217 A 
ATOM      7  N   UNL     1      -3.946  10.081  -2.096  0.00  0.00    -0.181 NA
ATOM      8  N   UNL     1      -5.958   9.713  -0.945  0.00  0.00    -0.327 N 
ATOM      9  H   UNL     1      -0.861  10.377  -3.339  0.00  0.00    +0.155 HD
ATOM     10  H   UNL     1      -6.493  10.371  -1.646  0.00  0.00    +0.145 HD
ATOM     11  H   UNL     1      -6.502   9.228  -0.121  0.00  0.00    +0.145 HD
ENDROOT
BRANCH   1  17
ATOM     12  C   UNL     1      -1.999  12.212  -4.951  0.00  0.00    -0.026 A 
ATOM     13  C   UNL     1      -2.688  12.938  -5.904  0.00  0.00    +0.005 A 
ATOM     14  C   UNL     1      -4.021  12.670  -6.149  0.00  0.00    +0.000 A 
ATOM     15  C   UNL     1      -4.671  11.674  -5.442  0.00  0.00    +0.002 A 
ATOM     16  C   UNL     1      -3.988  10.942  -4.492  0.00  0.00    +0.023 A 
ATOM     17  C   UNL     1      -2.649  11.212  -4.239  0.00  0.00    +0.037 A 
BRANCH  12  19
ATOM     18  C   UNL     1       0.326  11.555  -5.509  0.00  0.00    +0.009 C 
ATOM     19  C   UNL     1      -0.545  12.505  -4.684  0.00  0.00    +0.033 C 
ENDBRANCH  12  19
ENDBRANCH   1  17
BRANCH   4  20
ATOM     20  C   UNL     1      -1.928   7.589   0.559  0.00  0.00    +0.308 C 
BRANCH  20  21
ATOM     21  O   UNL     1      -1.959   6.225   0.061  0.00  0.00    -0.457 OA
BRANCH  21  22
ATOM     22  C   UNL     1      -1.347   5.291   0.806  0.00  0.00    +0.311 C 
ATOM     23  O   UNL     1      -0.805   5.602   1.840  0.00  0.00    -0.251 OA
BRANCH  22  24
ATOM     24  C   UNL     1      -1.338   3.840   0.348  0.00  0.00    +0.099 C 
ATOM     25  C   UNL     1      -2.780   3.404   0.151  0.00  0.00    +0.025 C 
ATOM     26  C   UNL     1      -2.934   1.896  -0.027  0.00  0.00    +0.056 C 
ATOM     27  C   UNL     1      -2.289   1.426  -1.328  0.00  0.00    +0.011 C 
ATOM     28  C   UNL     1      -0.778   1.559  -1.336  0.00  0.00    +0.001 C 
ATOM     29  C   UNL     1      -0.086   1.047  -0.087  0.00  0.00    +0.011 C 
ATOM     30  C   UNL     1      -0.740   1.522   1.208  0.00  0.00    +0.056 C 
ATOM     31  C   UNL     1      -0.580   3.029   1.386  0.00  0.00    +0.025 C 
ATOM     32  C   UNL     1      -2.224   1.211   1.126  0.00  0.00    +0.140 C 
ATOM     33  O   UNL     1      -2.787   0.486   1.907  0.00  0.00    -0.297 OA
ENDBRANCH  22  24
ENDBRANCH  21  22
ENDBRANCH  20  21
ENDBRANCH   4  20
TORSDOF 6
