REMARK  Name = ZINC09490226
REMARK  7 active torsions:
REMARK  status: ('A' for Active; 'I' for Inactive)
REMARK    1  A    between atoms: C_1  and  C_2
REMARK    2  A    between atoms: C_4  and  N_9
REMARK    3  A    between atoms: C_19  and  S_20
REMARK    4  A    between atoms: S_20  and  C_21
REMARK    5  A    between atoms: C_21  and  C_22
REMARK    6  A    between atoms: N_24  and  C_25
REMARK    7  A    between atoms: C_25  and  C_26
REMARK                            x       y       z     vdW  Elec       q    Type
REMARK                         _______ _______ _______ _____ _____    ______ ____
ROOT
ATOM      1  N   UNL     1       0.028  -2.771  -2.422  0.00  0.00    -0.255 N 
ATOM      2  C   UNL     1      -0.085  -2.083  -3.581  0.00  0.00    +0.270 A 
ATOM      3  O   UNL     1      -0.189  -0.870  -3.587  0.00  0.00    -0.266 OA
ATOM      4  C   UNL     1      -0.076  -2.851  -4.830  0.00  0.00    +0.103 A 
ATOM      5  C   UNL     1      -0.164  -2.551  -6.168  0.00  0.00    +0.120 A 
ATOM      6  N   UNL     1      -0.096  -3.704  -6.850  0.00  0.00    -0.282 N 
ATOM      7  H   UNL     1      -0.133  -3.783  -7.816  0.00  0.00    +0.188 HD
ATOM      8  N   UNL     1       0.037  -4.776  -5.960  0.00  0.00    -0.154 NA
ATOM      9  C   UNL     1       0.054  -4.314  -4.732  0.00  0.00    +0.189 A 
ATOM     10  N   UNL     1       0.158  -4.870  -3.496  0.00  0.00    -0.201 NA
ATOM     11  C   UNL     1       0.150  -4.134  -2.415  0.00  0.00    +0.179 A 
ENDROOT
BRANCH   1  15
ATOM     12  C   UNL     1      -2.472  -0.890   1.372  0.00  0.00    +0.045 C 
ATOM     13  C   UNL     1      -1.173  -1.151   0.655  0.00  0.00    -0.030 A 
ATOM     14  C   UNL     1      -1.173  -1.836  -0.544  0.00  0.00    +0.031 A 
ATOM     15  C   UNL     1       0.025  -2.076  -1.205  0.00  0.00    +0.052 A 
ATOM     16  C   UNL     1       1.219  -1.625  -0.659  0.00  0.00    +0.028 A 
ATOM     17  C   UNL     1       1.213  -0.940   0.540  0.00  0.00    +0.022 A 
ATOM     18  C   UNL     1       0.018  -0.698   1.194  0.00  0.00    +0.044 A 
ATOM     19 CL   UNL     1       0.013   0.171   2.698  0.00  0.00    -0.083 Cl
ENDBRANCH   1  15
BRANCH  11  20
ATOM     20  S   UNL     1       0.299  -4.946  -0.858  0.00  0.00    -0.078 S 
BRANCH  20  21
ATOM     21  C   UNL     1       0.435  -6.702  -1.290  0.00  0.00    +0.173 C 
BRANCH  21  22
ATOM     22  C   UNL     1       0.570  -7.520  -0.032  0.00  0.00    +0.224 C 
ATOM     23  O   UNL     1       0.573  -6.972   1.050  0.00  0.00    -0.275 OA
ATOM     24  N   UNL     1       0.686  -8.861  -0.108  0.00  0.00    -0.310 N 
ATOM     25  H   UNL     1       0.683  -9.299  -0.974  0.00  0.00    +0.149 HD
BRANCH  24  26
ATOM     26  C   UNL     1       0.817  -9.656   1.115  0.00  0.00    +0.146 C 
BRANCH  26  27
ATOM     27  C   UNL     1       0.930 -11.115   0.756  0.00  0.00    +0.007 A 
ATOM     28  C   UNL     1       2.042 -11.849   0.507  0.00  0.00    +0.013 A 
ATOM     29  C   UNL     1       1.905 -13.188   0.194  0.00  0.00    +0.008 A 
ATOM     30  C   UNL     1       0.663 -13.728   0.145  0.00  0.00    +0.045 A 
ATOM     31  S   UNL     1      -0.365 -12.328   0.556  0.00  0.00    -0.100 S 
ENDBRANCH  26  27
ENDBRANCH  24  26
ENDBRANCH  21  22
ENDBRANCH  20  21
ENDBRANCH  11  20
TORSDOF 6
