REMARK  Name = ZINC02819903
REMARK  7 active torsions:
REMARK  status: ('A' for Active; 'I' for Inactive)
REMARK    1  A    between atoms: C_4  and  C_7
REMARK    2  A    between atoms: N_9  and  C_10
REMARK    3  A    between atoms: C_10  and  C_17
REMARK    4  A    between atoms: C_11  and  C_12
REMARK    5  A    between atoms: N_19  and  N_20
REMARK    6  A    between atoms: C_21  and  C_22
REMARK    7  A    between atoms: C_27  and  O_28
REMARK                            x       y       z     vdW  Elec       q    Type
REMARK                         _______ _______ _______ _____ _____    ______ ____
ROOT
ATOM      1  C   UNL     1       3.796   7.457   0.014  0.00  0.00    +0.099 C 
ATOM      2  C   UNL     1       2.612   8.126   0.025  0.00  0.00    +0.043 C 
ENDROOT
BRANCH   2   3
ATOM      3  C   UNL     1       1.395   7.411   0.142  0.00  0.00    +0.014 A 
ATOM      4  C   UNL     1       0.091   7.884   0.074  0.00  0.00    +0.015 A 
ATOM      5  C   UNL     1      -0.936   6.985   0.217  0.00  0.00    +0.008 A 
ATOM      6  C   UNL     1      -0.648   5.670   0.420  0.00  0.00    +0.046 A 
ATOM      7  S   UNL     1       1.137   5.664   0.407  0.00  0.00    -0.097 S 
ENDBRANCH   2   3
BRANCH   1  10
ATOM      8  C   UNL     1       6.172   7.510  -0.110  0.00  0.00    +0.248 C 
ATOM      9  O   UNL     1       6.177   6.312  -0.315  0.00  0.00    -0.270 OA
ATOM     10  N   UNL     1       5.002   8.168   0.012  0.00  0.00    -0.277 N 
ATOM     11  H   UNL     1       4.996   9.134   0.097  0.00  0.00    +0.155 HD
BRANCH   8  15
ATOM     12  C   UNL     1       9.841   9.622   0.228  0.00  0.00    +0.000 A 
ATOM     13  C   UNL     1       9.851   8.259  -0.007  0.00  0.00    +0.001 A 
ATOM     14  C   UNL     1       8.663   7.567  -0.117  0.00  0.00    +0.013 A 
ATOM     15  C   UNL     1       7.449   8.245   0.007  0.00  0.00    +0.037 A 
ATOM     16  C   UNL     1       7.447   9.622   0.238  0.00  0.00    +0.013 A 
ATOM     17  C   UNL     1       8.642  10.301   0.352  0.00  0.00    +0.001 A 
ENDBRANCH   8  15
ENDBRANCH   1  10
BRANCH   1  18
ATOM     18  C   UNL     1       3.809   5.993   0.005  0.00  0.00    +0.277 C 
ATOM     19  O   UNL     1       3.915   5.379   1.051  0.00  0.00    -0.267 OA
ATOM     20  N   UNL     1       3.704   5.326  -1.161  0.00  0.00    -0.202 N 
ATOM     21  H   UNL     1       3.692   5.813  -2.000  0.00  0.00    +0.178 HD
BRANCH  20  22
ATOM     22  N   UNL     1       3.612   3.928  -1.162  0.00  0.00    -0.187 NA
ATOM     23  C   UNL     1       3.608   3.278  -2.287  0.00  0.00    +0.142 C 
BRANCH  23  24
ATOM     24  C   UNL     1       3.623   1.805  -2.286  0.00  0.00    +0.037 A 
ATOM     25  C   UNL     1       3.619   1.102  -3.494  0.00  0.00    +0.028 A 
ATOM     26  C   UNL     1       3.633  -0.278  -3.486  0.00  0.00    +0.019 A 
ATOM     27  C   UNL     1       3.650  -0.969  -2.286  0.00  0.00    +0.019 A 
ATOM     28  C   UNL     1       3.654  -0.284  -1.085  0.00  0.00    +0.047 A 
ATOM     29  C   UNL     1       3.640   1.101  -1.075  0.00  0.00    +0.126 A 
ATOM     30 BR   UNL     1       3.628  -1.228  -5.120  0.00  0.00    -0.050 Br
BRANCH  29  31
ATOM     31  O   UNL     1       3.643   1.774   0.105  0.00  0.00    -0.506 OA
ATOM     32  H   UNL     1       4.527   1.977   0.440  0.00  0.00    +0.292 HD
ENDBRANCH  29  31
ENDBRANCH  23  24
ENDBRANCH  20  22
ENDBRANCH   1  18
TORSDOF 7
