REMARK  Name = ZINC06785013
REMARK  7 active torsions:
REMARK  status: ('A' for Active; 'I' for Inactive)
REMARK    1  A    between atoms: C_1  and  C_2
REMARK    2  A    between atoms: C_2  and  C_3
REMARK    3  A    between atoms: C_11  and  C_23
REMARK    4  A    between atoms: C_13  and  C_19
REMARK    5  A    between atoms: C_13  and  C_21
REMARK    6  A    between atoms: C_14  and  N_18
REMARK    7  A    between atoms: C_15  and  C_16
REMARK                            x       y       z     vdW  Elec       q    Type
REMARK                         _______ _______ _______ _____ _____    ______ ____
ROOT
ATOM      1  C   UNL     1       0.104   2.131  -2.666  0.00  0.00    -0.007 C 
ATOM      2  C   UNL     1       1.089   3.256  -2.318  0.00  0.00    +0.031 C 
ATOM      3  C   UNL     1       1.921   2.793  -1.149  0.00  0.00    -0.021 C 
ATOM      4  C   UNL     1       1.419   1.988  -0.234  0.00  0.00    -0.029 C 
ATOM      5  C   UNL     1      -0.002   1.508  -0.229  0.00  0.00    +0.031 C 
ATOM      6  C   UNL     1      -0.797   1.889  -1.456  0.00  0.00    +0.012 C 
ATOM      7  C   UNL     1       0.002  -0.004   0.002  0.00  0.00    +0.066 C 
ATOM      8  C   UNL     1       0.595  -0.293   1.381  0.00  0.00    +0.188 C 
ATOM      9  C   UNL     1       1.910   0.401   1.575  0.00  0.00    +0.054 C 
ATOM     10  C   UNL     1       2.307   1.471   0.841  0.00  0.00    +0.074 C 
ENDROOT
BRANCH   7  11
ATOM     11  C   UNL     1      -1.410  -0.528  -0.060  0.00  0.00    -0.038 A 
ATOM     12  C   UNL     1      -1.688  -1.680  -0.771  0.00  0.00    +0.007 A 
ATOM     13  C   UNL     1      -2.981  -2.165  -0.824  0.00  0.00    +0.041 A 
ATOM     14  C   UNL     1      -4.001  -1.491  -0.175  0.00  0.00    +0.158 A 
ATOM     15  C   UNL     1      -3.723  -0.332   0.533  0.00  0.00    +0.159 A 
ATOM     16  C   UNL     1      -2.426   0.148   0.589  0.00  0.00    +0.045 A 
ATOM     17  F   UNL     1      -4.716   0.328   1.168  0.00  0.00    -0.202 F 
ATOM     18  F   UNL     1      -5.266  -1.962  -0.231  0.00  0.00    -0.202 F 
ENDBRANCH   7  11
BRANCH   9  19
ATOM     19  N   UNL     1       2.753  -0.069   2.541  0.00  0.00    -0.358 N 
ATOM     20  H   UNL     1       3.725   0.419   2.708  0.00  0.00    +0.142 HD
ATOM     21  H   UNL     1       2.460  -0.935   3.153  0.00  0.00    +0.142 HD
ENDBRANCH   9  19
BRANCH   1  23
ATOM     22  C   UNL     1       1.702   1.071  -4.266  0.00  0.00    +0.004 C 
ATOM     23  C   UNL     1       0.876   0.853  -2.997  0.00  0.00    +0.000 C 
ENDBRANCH   1  23
BRANCH  10  24
ATOM     24  C   UNL     1       3.569   2.096   1.100  0.00  0.00    +0.101 C 
ATOM     25  N   UNL     1       4.571   2.592   1.304  0.00  0.00    -0.191 NA
ENDBRANCH  10  24
BRANCH   8  26
ATOM     26  C   UNL     1      -0.347   0.166   2.415  0.00  0.00    +0.091 C 
ATOM     27  N   UNL     1      -1.074   0.519   3.213  0.00  0.00    -0.194 NA
ENDBRANCH   8  26
BRANCH   8  28
ATOM     28  C   UNL     1       0.795  -1.744   1.524  0.00  0.00    +0.091 C 
ATOM     29  N   UNL     1       0.949  -2.865   1.634  0.00  0.00    -0.194 NA
ENDBRANCH   8  28
TORSDOF 6
