REMARK  Name = ZINC19840069
REMARK  5 active torsions:
REMARK  status: ('A' for Active; 'I' for Inactive)
REMARK    1  A    between atoms: C_1  and  C_2
REMARK    2  A    between atoms: C_5  and  C_9
REMARK    3  A    between atoms: C_6  and  O_8
REMARK    4  A    between atoms: C_13  and  C_20
REMARK    5  A    between atoms: C_16  and  C_19
REMARK                            x       y       z     vdW  Elec       q    Type
REMARK                         _______ _______ _______ _____ _____    ______ ____
ROOT
ATOM      1  C   UNL     1      -2.719   2.944   4.736  0.00  0.00    +0.250 C 
ATOM      2  O   UNL     1      -2.137   2.625   3.717  0.00  0.00    -0.270 OA
ATOM      3  N   UNL     1      -4.063   3.052   4.738  0.00  0.00    -0.297 N 
ATOM      4  C   UNL     1      -4.844   2.705   3.543  0.00  0.00    +0.111 C 
ATOM      5  C   UNL     1      -5.921   1.685   3.943  0.00  0.00    +0.004 C 
ATOM      6  C   UNL     1      -6.753   2.254   5.094  0.00  0.00    +0.009 C 
ATOM      7  C   UNL     1      -5.851   2.501   6.305  0.00  0.00    +0.004 C 
ATOM      8  C   UNL     1      -4.773   3.525   5.934  0.00  0.00    +0.111 C 
ATOM      9  C   UNL     1      -6.689   3.039   7.466  0.00  0.00    +0.009 C 
ATOM     10  C   UNL     1      -5.254   0.382   4.390  0.00  0.00    +0.009 C 
ENDROOT
BRANCH   1  15
ATOM     11  C   UNL     1       0.257   3.998   9.548  0.00  0.00    +0.044 C 
ATOM     12  C   UNL     1      -0.520   3.718   8.288  0.00  0.00    -0.047 A 
ATOM     13  C   UNL     1      -1.405   4.667   7.800  0.00  0.00    +0.004 A 
ATOM     14  C   UNL     1      -2.117   4.424   6.646  0.00  0.00    +0.017 A 
ATOM     15  C   UNL     1      -1.955   3.212   5.969  0.00  0.00    +0.078 A 
ATOM     16  C   UNL     1      -1.064   2.254   6.469  0.00  0.00    +0.129 A 
ATOM     17  C   UNL     1      -0.351   2.517   7.629  0.00  0.00    +0.049 A 
BRANCH  16  18
ATOM     18  O   UNL     1      -0.899   1.073   5.821  0.00  0.00    -0.506 OA
ATOM     19  H   UNL     1      -0.198   0.323   6.215  0.00  0.00    +0.292 HD
ENDBRANCH  16  18
ENDBRANCH   1  15
TORSDOF 2
