REMARK  Name = ZINC36208001
REMARK  13 active torsions:
REMARK  status: ('A' for Active; 'I' for Inactive)
REMARK    1  A    between atoms: C_1  and  C_2
REMARK    2  A    between atoms: C_15  and  C_17
REMARK    3  A    between atoms: C_17  and  N_18
REMARK    4  A    between atoms: N_18  and  C_19
REMARK    5  A    between atoms: N_18  and  C_27
REMARK    6  A    between atoms: C_19  and  C_20
REMARK    7  A    between atoms: C_20  and  N_21
REMARK    8  A    between atoms: C_27  and  C_28
REMARK    9  A    between atoms: C_28  and  C_30
REMARK   10  A    between atoms: C_28  and  O_35
REMARK   11  A    between atoms: C_30  and  O_31
REMARK   12  A    between atoms: O_31  and  C_32
REMARK   13  A    between atoms: C_32  and  C_33
REMARK                            x       y       z     vdW  Elec       q    Type
REMARK                         _______ _______ _______ _____ _____    ______ ____
ROOT
ATOM      1  N   UNL     1       2.438  -8.408   2.257  0.00  0.00    +0.387 N 
ATOM      2  H   UNL     1       1.814  -8.415   3.050  0.00  0.00    -0.081 HD
ENDROOT
BRANCH   1   3
ATOM      3  C   UNL     1       1.661  -8.226   1.024  0.00  0.00    -0.003 C 
BRANCH   3  17
ATOM      4  C   UNL     1      -3.910  -0.174   2.836  0.00  0.00    +0.008 C 
ATOM      5  C   UNL     1      -3.372  -1.560   2.475  0.00  0.00    -0.009 C 
ATOM      6  C   UNL     1      -2.812  -1.538   1.049  0.00  0.00    +0.008 C 
ATOM      7  C   UNL     1      -2.503  -2.964   0.591  0.00  0.00    +0.037 C 
ATOM      8  C   UNL     1      -1.613  -3.636   1.633  0.00  0.00    -0.023 A 
ATOM      9  C   UNL     1      -1.532  -3.141   2.890  0.00  0.00    -0.004 A 
ATOM     10  S   UNL     1      -0.404  -4.216   3.741  0.00  0.00    -0.073 S 
ATOM     11  C   UNL     1      -0.045  -5.322   2.414  0.00  0.00    +0.116 A 
ATOM     12  C   UNL     1      -0.819  -4.817   1.346  0.00  0.00    +0.075 A 
ATOM     13  C   UNL     1      -0.740  -5.518   0.096  0.00  0.00    +0.260 A 
ATOM     14  O   UNL     1      -1.369  -5.163  -0.887  0.00  0.00    -0.267 OA
ATOM     15  N   UNL     1       0.076  -6.598   0.078  0.00  0.00    -0.312 N 
ATOM     16  H   UNL     1       0.159  -7.101  -0.747  0.00  0.00    +0.170 HD
ATOM     17  C   UNL     1       0.783  -7.008   1.159  0.00  0.00    +0.094 A 
ATOM     18  N   UNL     1       0.737  -6.394   2.320  0.00  0.00    -0.229 NA
ATOM     19  C   UNL     1      -2.245  -1.944   3.443  0.00  0.00    +0.046 C 
ENDBRANCH   3  17
ENDBRANCH   1   3
BRANCH   1  20
ATOM     20  C   UNL     1       3.397  -7.304   2.398  0.00  0.00    -0.063 C 
BRANCH  20  21
ATOM     21  C   UNL     1       4.398  -7.346   1.242  0.00  0.00    +0.066 C 
BRANCH  21  22
ATOM     22  N   UNL     1       5.417  -6.306   1.437  0.00  0.00    -0.300 NA
ATOM     23  C   UNL     1       4.827  -4.964   1.331  0.00  0.00    +0.112 C 
ATOM     24  C   UNL     1       5.908  -3.914   1.600  0.00  0.00    +0.175 C 
ATOM     25  O   UNL     1       6.989  -4.104   0.682  0.00  0.00    -0.377 OA
ATOM     26  C   UNL     1       7.587  -5.401   0.759  0.00  0.00    +0.175 C 
ATOM     27  C   UNL     1       6.523  -6.466   0.482  0.00  0.00    +0.112 C 
ENDBRANCH  21  22
ENDBRANCH  20  21
ENDBRANCH   1  20
BRANCH   1  28
ATOM     28  C   UNL     1       3.165  -9.683   2.193  0.00  0.00    -0.044 C 
BRANCH  28  29
ATOM     29  C   UNL     1       3.841  -9.951   3.539  0.00  0.00    +0.124 C 
BRANCH  29  30
ATOM     30  O   UNL     1       4.882  -8.995   3.748  0.00  0.00    -0.391 OA
ATOM     31  H   UNL     1       5.574  -9.012   3.073  0.00  0.00    +0.210 HD
ENDBRANCH  29  30
BRANCH  29  32
ATOM     32  C   UNL     1       4.436 -11.361   3.538  0.00  0.00    +0.190 C 
BRANCH  32  33
ATOM     33  O   UNL     1       4.965 -11.655   4.833  0.00  0.00    -0.365 OA
BRANCH  33  34
ATOM     34  C   UNL     1       5.548 -12.956   4.941  0.00  0.00    +0.248 C 
BRANCH  34  35
ATOM     35  C   UNL     1       6.059 -13.153   6.307  0.00  0.00    -0.077 C 
ATOM     36  C   UNL     1       6.466 -13.310   7.397  0.00  0.00    +0.006 C 
ENDBRANCH  34  35
ENDBRANCH  33  34
ENDBRANCH  32  33
ENDBRANCH  29  32
ENDBRANCH  28  29
ENDBRANCH   1  28
TORSDOF 12
