REMARK  Name = ZINC59020828
REMARK  10 active torsions:
REMARK  status: ('A' for Active; 'I' for Inactive)
REMARK    1  A    between atoms: C_1  and  C_2
REMARK    2  A    between atoms: C_4  and  O_29
REMARK    3  A    between atoms: C_7  and  N_8
REMARK    4  A    between atoms: C_9  and  C_11
REMARK    5  A    between atoms: C_11  and  S_12
REMARK    6  A    between atoms: S_12  and  C_13
REMARK    7  A    between atoms: N_18  and  N_19
REMARK    8  A    between atoms: C_20  and  C_21
REMARK    9  A    between atoms: C_20  and  C_22
REMARK   10  A    between atoms: O_29  and  C_30
REMARK                            x       y       z     vdW  Elec       q    Type
REMARK                         _______ _______ _______ _____ _____    ______ ____
ROOT
ATOM      1  C   UNL     1      -2.838  -0.403   8.000  0.00  0.00    +0.211 A 
ATOM      2  N   UNL     1      -2.334  -0.771   9.182  0.00  0.00    -0.186 NA
ATOM      3  C   UNL     1      -2.115   0.295   9.922  0.00  0.00    +0.232 A 
ATOM      4  N   UNL     1      -2.482   1.380   9.208  0.00  0.00    -0.245 N 
ATOM      5  N   UNL     1      -2.941   0.904   7.969  0.00  0.00    -0.144 NA
ATOM      6  N   UNL     1      -1.599   0.303  11.205  0.00  0.00    -0.205 N 
ATOM      7  H   UNL     1      -1.472   1.144  11.672  0.00  0.00    +0.177 HD
ATOM      8  H   UNL     1      -2.435   2.306   9.493  0.00  0.00    +0.192 HD
ENDROOT
BRANCH   6   9
ATOM      9  N   UNL     1      -1.258  -0.904  11.830  0.00  0.00    -0.184 NA
ATOM     10  C   UNL     1      -0.869  -0.906  13.068  0.00  0.00    +0.063 C 
ATOM     11  C   UNL     1      -0.335  -2.171  13.688  0.00  0.00    +0.068 C 
BRANCH  10  12
ATOM     12  C   UNL     1      -0.950   0.330  13.869  0.00  0.00    -0.002 A 
ATOM     13  C   UNL     1      -2.003   1.226  13.670  0.00  0.00    +0.011 A 
ATOM     14  C   UNL     1      -2.073   2.380  14.422  0.00  0.00    +0.016 A 
ATOM     15  C   UNL     1      -1.103   2.651  15.373  0.00  0.00    +0.018 A 
ATOM     16  C   UNL     1      -0.057   1.766  15.575  0.00  0.00    +0.016 A 
ATOM     17  C   UNL     1       0.022   0.606  14.833  0.00  0.00    +0.011 A 
ATOM     18 BR   UNL     1      -1.207   4.236  16.399  0.00  0.00    -0.050 Br
ENDBRANCH  10  12
ENDBRANCH   6   9
BRANCH   1  19
ATOM     19  S   UNL     1      -3.284  -1.496   6.691  0.00  0.00    -0.075 S 
BRANCH  19  20
ATOM     20  C   UNL     1      -3.884  -0.392   5.383  0.00  0.00    +0.173 C 
BRANCH  20  22
ATOM     21  N   UNL     1      -4.785  -0.599   3.088  0.00  0.00    -0.285 N 
ATOM     22  C   UNL     1      -4.303  -1.210   4.189  0.00  0.00    +0.227 C 
ATOM     23  O   UNL     1      -4.207  -2.419   4.218  0.00  0.00    -0.275 OA
ATOM     24  H   UNL     1      -4.810   0.370   3.043  0.00  0.00    +0.155 HD
BRANCH  21  31
ATOM     25  C   UNL     1      -6.807   0.515   1.427  0.00  0.00    +0.046 C 
ATOM     26  C   UNL     1      -6.235  -0.856   1.173  0.00  0.00    -0.026 A 
ATOM     27  C   UNL     1      -6.688  -1.607   0.106  0.00  0.00    +0.050 A 
ATOM     28  C   UNL     1      -6.162  -2.869  -0.127  0.00  0.00    +0.120 A 
ATOM     29  C   UNL     1      -5.181  -3.378   0.711  0.00  0.00    +0.047 A 
ATOM     30  C   UNL     1      -4.727  -2.628   1.778  0.00  0.00    +0.027 A 
ATOM     31  C   UNL     1      -5.249  -1.363   2.009  0.00  0.00    +0.037 A 
BRANCH  28  32
ATOM     32  O   UNL     1      -6.609  -3.608  -1.177  0.00  0.00    -0.495 OA
ATOM     33  C   UNL     1      -6.024  -4.899  -1.358  0.00  0.00    +0.277 C 
ENDBRANCH  28  32
ENDBRANCH  21  31
ENDBRANCH  20  22
ENDBRANCH  19  20
ENDBRANCH   1  19
TORSDOF 7
