REMARK  Name = ZINC43216730
REMARK  9 active torsions:
REMARK  status: ('A' for Active; 'I' for Inactive)
REMARK    1  A    between atoms: C_4  and  C_7
REMARK    2  A    between atoms: C_7  and  C_8
REMARK    3  A    between atoms: C_8  and  C_10
REMARK    4  A    between atoms: C_8  and  N_16
REMARK    5  A    between atoms: C_17  and  C_19
REMARK    6  A    between atoms: C_22  and  C_24
REMARK    7  A    between atoms: C_24  and  C_26
REMARK    8  A    between atoms: C_24  and  N_33
REMARK    9  A    between atoms: C_26  and  C_27
REMARK                            x       y       z     vdW  Elec       q    Type
REMARK                         _______ _______ _______ _____ _____    ______ ____
ROOT
ATOM      1  N   UNL     1       3.229  -1.870   2.059  0.00  0.00    -0.303 N 
ATOM      2  C   UNL     1       3.109  -1.856   3.402  0.00  0.00    +0.266 C 
ATOM      3  O   UNL     1       3.783  -1.092   4.065  0.00  0.00    -0.268 OA
ATOM      4  H   UNL     1       2.691  -2.480   1.530  0.00  0.00    +0.150 HD
ENDROOT
BRANCH   2   5
ATOM      5  C   UNL     1       2.161  -2.769   4.066  0.00  0.00    +0.163 A 
ATOM      6  C   UNL     1       1.930  -2.861   5.404  0.00  0.00    +0.230 A 
ATOM      7  O   UNL     1       0.997  -3.811   5.576  0.00  0.00    -0.449 OA
ATOM      8  C   UNL     1       0.661  -4.291   4.371  0.00  0.00    +0.182 A 
ATOM      9  N   UNL     1       1.347  -3.673   3.457  0.00  0.00    -0.210 NA
BRANCH   8  10
ATOM     10  C   UNL     1      -0.355  -5.375   4.116  0.00  0.00    +0.017 C 
BRANCH  10  11
ATOM     11  N   UNL     1      -1.557  -5.118   4.921  0.00  0.00    +0.386 N 
ATOM     12  H   UNL     1      -2.237  -5.843   4.750  0.00  0.00    -0.089 HD
ATOM     13  H   UNL     1      -1.311  -5.111   5.899  0.00  0.00    -0.089 HD
ATOM     14  H   UNL     1      -1.948  -4.223   4.666  0.00  0.00    -0.089 HD
ENDBRANCH  10  11
BRANCH  10  15
ATOM     15  C   UNL     1       0.238  -6.731   4.502  0.00  0.00    +0.028 C 
BRANCH  15  16
ATOM     16  C   UNL     1      -0.730  -7.826   4.133  0.00  0.00    -0.048 A 
ATOM     17  C   UNL     1      -1.686  -8.238   5.043  0.00  0.00    +0.003 A 
ATOM     18  C   UNL     1      -2.574  -9.242   4.704  0.00  0.00    +0.000 A 
ATOM     19  C   UNL     1      -2.506  -9.834   3.457  0.00  0.00    +0.000 A 
ATOM     20  C   UNL     1      -1.551  -9.420   2.547  0.00  0.00    +0.000 A 
ATOM     21  C   UNL     1      -0.666  -8.413   2.884  0.00  0.00    +0.003 A 
ENDBRANCH  15  16
ENDBRANCH  10  15
ENDBRANCH   8  10
ENDBRANCH   2   5
BRANCH   1  22
ATOM     22  C   UNL     1       4.171  -0.963   1.399  0.00  0.00    +0.108 C 
BRANCH  22  23
ATOM     23  C   UNL     1       5.543  -1.588   1.383  0.00  0.00    -0.027 A 
ATOM     24  C   UNL     1       5.683  -2.940   1.128  0.00  0.00    +0.005 A 
ATOM     25  C   UNL     1       6.941  -3.513   1.114  0.00  0.00    +0.000 A 
ATOM     26  C   UNL     1       8.058  -2.735   1.354  0.00  0.00    +0.000 A 
ATOM     27  C   UNL     1       7.917  -1.384   1.608  0.00  0.00    +0.000 A 
ATOM     28  C   UNL     1       6.660  -0.809   1.618  0.00  0.00    +0.005 A 
ENDBRANCH  22  23
BRANCH  22  29
ATOM     29  C   UNL     1       3.711  -0.707  -0.038  0.00  0.00    +0.062 C 
BRANCH  29  33
ATOM     30  C   UNL     1      -0.017   1.378   0.010  0.00  0.00    +0.000 A 
ATOM     31  C   UNL     1       1.171   2.086   0.002  0.00  0.00    +0.000 A 
ATOM     32  C   UNL     1       2.377   1.411  -0.013  0.00  0.00    +0.004 A 
ATOM     33  C   UNL     1       2.396   0.029  -0.020  0.00  0.00    -0.045 A 
ATOM     34  C   UNL     1       1.208  -0.679  -0.012  0.00  0.00    +0.004 A 
ATOM     35  C   UNL     1       0.002  -0.004   0.002  0.00  0.00    +0.000 A 
ENDBRANCH  29  33
ENDBRANCH  22  29
ENDBRANCH   1  22
TORSDOF 9
