REMARK  Name = ZINC24908381
REMARK  6 active torsions:
REMARK  status: ('A' for Active; 'I' for Inactive)
REMARK    1  A    between atoms: C_3  and  C_6
REMARK    2  A    between atoms: C_6  and  N_7
REMARK    3  A    between atoms: C_13  and  C_16
REMARK    4  A    between atoms: C_16  and  N_17
REMARK    5  A    between atoms: C_22  and  C_33
REMARK    6  A    between atoms: C_25  and  C_28
REMARK                            x       y       z     vdW  Elec       q    Type
REMARK                         _______ _______ _______ _____ _____    ______ ____
ROOT
ATOM      1  N   UNL     1      -0.882   3.489  -1.168  0.00  0.00    -0.328 N 
ATOM      2  C   UNL     1      -1.519   4.176  -2.187  0.00  0.00    +0.128 A 
ATOM      3  C   UNL     1      -1.639   5.582  -2.122  0.00  0.00    +0.041 A 
ATOM      4  C   UNL     1      -1.128   6.323  -1.045  0.00  0.00    +0.015 A 
ATOM      5  C   UNL     1      -1.290   7.682  -1.066  0.00  0.00    +0.033 A 
ATOM      6  C   UNL     1      -1.946   8.288  -2.133  0.00  0.00    +0.144 A 
ATOM      7  N   UNL     1      -2.421   7.588  -3.138  0.00  0.00    -0.242 NA
ATOM      8  C   UNL     1      -2.295   6.263  -3.175  0.00  0.00    +0.084 A 
ATOM      9  C   UNL     1      -2.803   5.491  -4.252  0.00  0.00    +0.027 A 
ATOM     10  C   UNL     1      -2.634   4.120  -4.221  0.00  0.00    +0.123 A 
ATOM     11  N   UNL     1      -2.009   3.517  -3.220  0.00  0.00    -0.239 NA
ATOM     12  H   UNL     1      -0.469   4.037  -0.308  0.00  0.00    +0.147 HD
ENDROOT
BRANCH   9  13
ATOM     13  C   UNL     1      -3.500   6.142  -5.386  0.00  0.00    -0.007 A 
ATOM     14  C   UNL     1      -3.139   5.861  -6.701  0.00  0.00    +0.016 A 
ATOM     15  C   UNL     1      -3.802   6.471  -7.709  0.00  0.00    +0.046 A 
ATOM     16  S   UNL     1      -4.972   7.492  -6.829  0.00  0.00    -0.104 S 
ATOM     17  C   UNL     1      -4.510   7.037  -5.166  0.00  0.00    +0.053 A 
ENDBRANCH   9  13
BRANCH   6  18
ATOM     18  C   UNL     1      -2.114   9.785  -2.136  0.00  0.00    +0.434 C 
ATOM     19  F   UNL     1      -2.893  10.165  -3.235  0.00  0.00    -0.164 F 
ATOM     20  F   UNL     1      -2.747  10.186  -0.955  0.00  0.00    -0.164 F 
ATOM     21  F   UNL     1      -0.858  10.396  -2.223  0.00  0.00    -0.164 F 
ENDBRANCH   6  18
BRANCH   1  22
ATOM     22  C   UNL     1      -0.757   2.030  -1.234  0.00  0.00    +0.106 C 
BRANCH  22  29
ATOM     23  N   UNL     1       4.368  -0.072   1.430  0.00  0.00    -0.292 N 
ATOM     24  C   UNL     1       3.149  -0.646   1.466  0.00  0.00    +0.303 C 
ATOM     25  O   UNL     1       3.047  -1.847   1.619  0.00  0.00    -0.253 OA
ATOM     26  N   UNL     1       2.043   0.113   1.332  0.00  0.00    -0.286 N 
ATOM     27  C   UNL     1       0.714  -0.508   1.259  0.00  0.00    +0.109 C 
ATOM     28  C   UNL     1       0.003  -0.005  -0.001  0.00  0.00    +0.024 C 
ATOM     29  C   UNL     1      -0.018   1.525   0.006  0.00  0.00    +0.009 C 
ATOM     30  C   UNL     1       1.417   2.056  -0.004  0.00  0.00    +0.024 C 
ATOM     31  C   UNL     1       2.144   1.577   1.257  0.00  0.00    +0.109 C 
ATOM     32  H   UNL     1       4.460   1.023   1.375  0.00  0.00    +0.151 HD
BRANCH  23  33
ATOM     33  C   UNL     1       5.572  -0.906   1.463  0.00  0.00    +0.180 C 
BRANCH  33  36
ATOM     34  C   UNL     1       8.522   1.244   1.971  0.00  0.00    +0.041 A 
ATOM     35  C   UNL     1       7.440   0.486   2.475  0.00  0.00    +0.046 A 
ATOM     36  C   UNL     1       6.795  -0.027   1.412  0.00  0.00    +0.122 A 
ATOM     37  O   UNL     1       7.428   0.373   0.298  0.00  0.00    -0.466 OA
ATOM     38  C   UNL     1       8.473   1.149   0.631  0.00  0.00    +0.195 A 
ENDBRANCH  33  36
ENDBRANCH  23  33
ENDBRANCH  22  29
ENDBRANCH   1  22
TORSDOF 6
