REMARK  Name = ZINC19355247
REMARK  7 active torsions:
REMARK  status: ('A' for Active; 'I' for Inactive)
REMARK    1  A    between atoms: C_3  and  C_6
REMARK    2  A    between atoms: C_6  and  N_7
REMARK    3  A    between atoms: C_11  and  S_13
REMARK    4  A    between atoms: S_13  and  C_14
REMARK    5  A    between atoms: C_14  and  C_15
REMARK    6  A    between atoms: N_20  and  C_23
REMARK    7  A    between atoms: C_28  and  N_29
REMARK                            x       y       z     vdW  Elec       q    Type
REMARK                         _______ _______ _______ _____ _____    ______ ____
ROOT
ATOM      1  C   UNL     1       4.683  -2.267  -0.124  0.00  0.00    +0.226 C 
ATOM      2  O   UNL     1       4.880  -2.876   0.906  0.00  0.00    -0.275 OA
ATOM      3  N   UNL     1       4.223  -1.000  -0.079  0.00  0.00    -0.298 N 
ATOM      4  C   UNL     1       3.954  -0.339   1.207  0.00  0.00    +0.126 C 
ATOM      5  C   UNL     1       2.538   0.246   1.167  0.00  0.00    +0.124 C 
ATOM      6  N   UNL     1       2.401   1.107  -0.015  0.00  0.00    -0.325 N 
ATOM      7  C   UNL     1       2.560   0.338  -1.256  0.00  0.00    +0.124 C 
ATOM      8  C   UNL     1       3.976  -0.243  -1.316  0.00  0.00    +0.126 C 
ENDROOT
BRANCH   6   9
ATOM      9  C   UNL     1       1.181   1.787   0.000  0.00  0.00    +0.060 A 
ATOM     10  C   UNL     1      -0.013   1.076   0.008  0.00  0.00    +0.027 A 
ATOM     11  C   UNL     1      -1.217   1.751   0.017  0.00  0.00    +0.022 A 
ATOM     12  C   UNL     1      -1.237   3.134   0.030  0.00  0.00    +0.043 A 
ATOM     13  C   UNL     1      -0.050   3.846   0.022  0.00  0.00    +0.054 A 
ATOM     14  C   UNL     1       1.158   3.176   0.008  0.00  0.00    +0.148 A 
ATOM     15 CL   UNL     1      -2.753   3.979   0.048  0.00  0.00    -0.083 Cl
BRANCH  14  16
ATOM     16  N   UNL     1       2.427   3.937   0.000  0.00  0.00    +0.058 N 
ATOM     17  O   UNL     1       2.407   5.155   0.006  0.00  0.00    -0.126 OA
ATOM     18  O   UNL     1       3.492   3.346  -0.013  0.00  0.00    -0.126 OA
ENDBRANCH  14  16
ENDBRANCH   6   9
BRANCH   1  19
ATOM     19  C   UNL     1       4.951  -2.925  -1.453  0.00  0.00    +0.172 C 
BRANCH  19  20
ATOM     20  S   UNL     1       5.557  -4.613  -1.180  0.00  0.00    -0.088 S 
BRANCH  20  25
ATOM     21  N   UNL     1       6.690  -7.426  -6.121  0.00  0.00    -0.315 N 
ATOM     22  C   UNL     1       6.354  -6.566  -5.082  0.00  0.00    +0.183 A 
ATOM     23  N   UNL     1       5.907  -5.327  -5.135  0.00  0.00    -0.125 NA
ATOM     24  N   UNL     1       5.633  -4.647  -3.970  0.00  0.00    -0.133 NA
ATOM     25  C   UNL     1       5.821  -5.239  -2.806  0.00  0.00    +0.160 A 
ATOM     26  S   UNL     1       6.421  -6.841  -3.318  0.00  0.00    -0.025 S 
ATOM     27  H   UNL     1       7.053  -8.440  -5.900  0.00  0.00    +0.148 HD
BRANCH  21  28
ATOM     28  C   UNL     1       6.561  -6.981  -7.511  0.00  0.00    +0.178 C 
BRANCH  28  31
ATOM     29  C   UNL     1       6.990  -9.875  -9.752  0.00  0.00    +0.041 A 
ATOM     30  C   UNL     1       6.182  -9.045  -8.942  0.00  0.00    +0.046 A 
ATOM     31  C   UNL     1       6.986  -8.092  -8.435  0.00  0.00    +0.122 A 
ATOM     32  O   UNL     1       8.230  -8.297  -8.899  0.00  0.00    -0.466 OA
ATOM     33  C   UNL     1       8.239  -9.380  -9.693  0.00  0.00    +0.195 A 
ENDBRANCH  28  31
ENDBRANCH  21  28
ENDBRANCH  20  25
ENDBRANCH  19  20
ENDBRANCH   1  19
TORSDOF 7
