REMARK  Name = ZINC39685873
REMARK  13 active torsions:
REMARK  status: ('A' for Active; 'I' for Inactive)
REMARK    1  A    between atoms: C_1  and  C_2
REMARK    2  A    between atoms: C_5  and  C_9
REMARK    3  A    between atoms: C_6  and  C_8
REMARK    4  A    between atoms: C_13  and  C_22
REMARK    5  A    between atoms: N_24  and  C_25
REMARK    6  A    between atoms: C_25  and  C_27
REMARK    7  A    between atoms: C_25  and  C_30
REMARK    8  A    between atoms: C_27  and  C_28
REMARK    9  A    between atoms: C_27  and  C_29
REMARK   10  A    between atoms: N_32  and  C_33
REMARK   11  A    between atoms: C_33  and  C_34
REMARK   12  A    between atoms: C_33  and  C_35
REMARK   13  A    between atoms: C_33  and  C_36
REMARK                            x       y       z     vdW  Elec       q    Type
REMARK                         _______ _______ _______ _____ _____    ______ ____
ROOT
ATOM      1  C   UNL     1       0.005  -4.187   0.167  0.00  0.00    +0.247 C 
ATOM      2  O   UNL     1      -0.109  -5.094   0.968  0.00  0.00    -0.270 OA
ATOM      3  N   UNL     1      -0.152  -4.428  -1.150  0.00  0.00    -0.296 N 
ATOM      4  C   UNL     1       0.051  -3.487  -2.276  0.00  0.00    +0.121 C 
ATOM      5  C   UNL     1       0.718  -4.338  -3.381  0.00  0.00    +0.100 C 
ATOM      6  C   UNL     1       0.306  -5.785  -3.063  0.00  0.00    -0.004 C 
ATOM      7  C   UNL     1      -0.561  -5.697  -1.799  0.00  0.00    +0.115 C 
ATOM      8  C   UNL     1       1.542  -6.638  -2.788  0.00  0.00    -0.010 C 
ATOM      9  C   UNL     1       1.111  -8.084  -2.531  0.00  0.00    -0.082 C 
ATOM     10  N   UNL     1       0.388  -8.597  -3.702  0.00  0.00    +0.379 N 
ATOM     11  C   UNL     1      -0.847  -7.829  -3.903  0.00  0.00    -0.082 C 
ATOM     12  C   UNL     1      -0.499  -6.372  -4.218  0.00  0.00    -0.010 C 
ATOM     13  H   UNL     1       0.972  -8.512  -4.520  0.00  0.00    -0.086 HD
ATOM     14  H   UNL     1       0.158  -9.568  -3.555  0.00  0.00    -0.086 HD
ENDROOT
BRANCH   1  19
ATOM     15  C   UNL     1       1.218   1.133   1.994  0.00  0.00    +0.044 C 
ATOM     16  C   UNL     1       0.900  -0.260   1.516  0.00  0.00    -0.050 A 
ATOM     17  C   UNL     1      -0.057  -0.450   0.534  0.00  0.00    +0.004 A 
ATOM     18  C   UNL     1      -0.352  -1.723   0.091  0.00  0.00    +0.013 A 
ATOM     19  C   UNL     1       0.317  -2.820   0.636  0.00  0.00    +0.040 A 
ATOM     20  C   UNL     1       1.280  -2.622   1.626  0.00  0.00    -0.038 A 
ATOM     21  C   UNL     1       1.570  -1.343   2.056  0.00  0.00    +0.007 A 
ATOM     22  C   UNL     1       2.007  -3.801   2.219  0.00  0.00    +0.044 C 
ENDBRANCH   1  19
BRANCH   5  23
ATOM     23  C   UNL     1       2.217  -4.191  -3.323  0.00  0.00    +0.219 C 
ATOM     24  O   UNL     1       2.757  -3.895  -2.279  0.00  0.00    -0.275 OA
ATOM     25  N   UNL     1       2.956  -4.389  -4.433  0.00  0.00    -0.303 N 
ATOM     26  H   UNL     1       2.523  -4.617  -5.270  0.00  0.00    +0.149 HD
BRANCH  25  27
ATOM     27  C   UNL     1       4.414  -4.261  -4.373  0.00  0.00    +0.161 C 
BRANCH  27  28
ATOM     28  C   UNL     1       4.926  -3.729  -5.688  0.00  0.00    +0.234 C 
ATOM     29  O   UNL     1       4.218  -3.764  -6.672  0.00  0.00    -0.274 OA
ATOM     30  N   UNL     1       6.169  -3.215  -5.769  0.00  0.00    -0.309 N 
ATOM     31  H   UNL     1       6.756  -3.244  -4.997  0.00  0.00    +0.149 HD
BRANCH  30  32
ATOM     32  C   UNL     1       6.632  -2.613  -7.021  0.00  0.00    +0.026 C 
ATOM     33  C   UNL     1       5.722  -1.440  -7.391  0.00  0.00    +0.031 C 
ATOM     34  C   UNL     1       8.067  -2.111  -6.845  0.00  0.00    +0.031 C 
ATOM     35  C   UNL     1       6.592  -3.661  -8.136  0.00  0.00    +0.031 C 
ENDBRANCH  30  32
ENDBRANCH  27  28
BRANCH  27  36
ATOM     36  C   UNL     1       5.036  -5.633  -4.102  0.00  0.00    +0.012 C 
ATOM     37  C   UNL     1       4.653  -6.097  -2.695  0.00  0.00    +0.009 C 
ATOM     38  C   UNL     1       4.518  -6.640  -5.130  0.00  0.00    +0.009 C 
ENDBRANCH  27  36
ENDBRANCH  25  27
ENDBRANCH   5  23
TORSDOF 6
