REMARK  Name = ZINC15003929
REMARK  7 active torsions:
REMARK  status: ('A' for Active; 'I' for Inactive)
REMARK    1  A    between atoms: C_1  and  C_2
REMARK    2  A    between atoms: C_3  and  C_12
REMARK    3  A    between atoms: C_12  and  C_13
REMARK    4  A    between atoms: N_15  and  C_16
REMARK    5  A    between atoms: C_16  and  C_17
REMARK    6  A    between atoms: C_17  and  N_18
REMARK    7  A    between atoms: C_27  and  C_30
REMARK                            x       y       z     vdW  Elec       q    Type
REMARK                         _______ _______ _______ _____ _____    ______ ____
ROOT
ATOM      1  C   UNL     1      -0.013   1.086   0.008  0.00  0.00    +0.119 C 
ENDROOT
BRANCH   1   4
ATOM      2  C   UNL     1      -0.222   1.232   2.431  0.00  0.00    +0.217 C 
ATOM      3  O   UNL     1       0.774   0.548   2.529  0.00  0.00    -0.275 OA
ATOM      4  N   UNL     1      -0.698   1.558   1.213  0.00  0.00    -0.314 N 
ATOM      5  H   UNL     1      -1.602   2.179   1.124  0.00  0.00    +0.149 HD
BRANCH   2   6
ATOM      6  C   UNL     1      -0.927   1.718   3.671  0.00  0.00    +0.133 C 
BRANCH   6   9
ATOM      7  C   UNL     1      -1.473  -0.948   5.163  0.00  0.00    +0.063 C 
ATOM      8  C   UNL     1      -0.427   0.068   5.543  0.00  0.00    +0.018 A 
ATOM      9  C   UNL     1      -0.198   1.219   4.892  0.00  0.00    -0.011 A 
ATOM     10  C   UNL     1       0.890   1.901   5.597  0.00  0.00    +0.004 A 
ATOM     11  C   UNL     1       1.558   3.113   5.410  0.00  0.00    +0.010 A 
ATOM     12  C   UNL     1       2.559   3.474   6.266  0.00  0.00    +0.001 A 
ATOM     13  C   UNL     1       2.917   2.647   7.322  0.00  0.00    +0.002 A 
ATOM     14  C   UNL     1       2.271   1.448   7.525  0.00  0.00    +0.026 A 
ATOM     15  C   UNL     1       1.249   1.059   6.665  0.00  0.00    +0.047 A 
ATOM     16  N   UNL     1       0.432  -0.048   6.602  0.00  0.00    -0.358 N 
ATOM     17  H   UNL     1       0.393  -0.937   7.248  0.00  0.00    +0.166 HD
ENDBRANCH   6   9
ENDBRANCH   2   6
ENDBRANCH   1   4
BRANCH   1  18
ATOM     18  C   UNL     1      -0.753   1.593  -1.232  0.00  0.00    +0.103 C 
BRANCH  18  19
ATOM     19  N   UNL     1      -0.065   1.119  -2.440  0.00  0.00    -0.293 NA
ATOM     20  C   UNL     1      -0.150  -0.341  -2.555  0.00  0.00    +0.123 C 
ATOM     21  C   UNL     1      -0.123  -0.718  -4.024  0.00  0.00    +0.008 A 
ATOM     22  C   UNL     1      -1.246  -1.251  -4.624  0.00  0.00    +0.008 A 
ATOM     23  C   UNL     1      -1.203  -1.607  -5.961  0.00  0.00    +0.001 A 
ATOM     24  C   UNL     1      -0.041  -1.431  -6.689  0.00  0.00    +0.004 A 
ATOM     25  C   UNL     1       1.081  -0.891  -6.090  0.00  0.00    +0.046 A 
ATOM     26  C   UNL     1       1.035  -0.525  -4.752  0.00  0.00    +0.126 A 
ATOM     27  O   UNL     1       2.118   0.054  -4.164  0.00  0.00    -0.483 OA
ATOM     28  C   UNL     1       1.970   1.441  -3.837  0.00  0.00    +0.218 C 
ATOM     29  C   UNL     1       1.311   1.605  -2.484  0.00  0.00    +0.134 C 
BRANCH  28  30
ATOM     30  C   UNL     1       3.328   2.092  -3.808  0.00  0.00    +0.001 A 
ATOM     31  C   UNL     1       3.490   3.398  -4.234  0.00  0.00    +0.015 A 
ATOM     32  C   UNL     1       4.724   3.955  -4.191  0.00  0.00    +0.045 A 
ATOM     33  S   UNL     1       5.712   2.616  -3.546  0.00  0.00    -0.105 S 
ATOM     34  C   UNL     1       4.412   1.405  -3.370  0.00  0.00    +0.052 A 
ENDBRANCH  28  30
ENDBRANCH  18  19
ENDBRANCH   1  18
TORSDOF 6
