REMARK  Name = ZINC59769584
REMARK  6 active torsions:
REMARK  status: ('A' for Active; 'I' for Inactive)
REMARK    1  A    between atoms: C_1  and  C_2
REMARK    2  A    between atoms: C_6  and  N_26
REMARK    3  A    between atoms: C_7  and  S_8
REMARK    4  A    between atoms: S_8  and  N_11
REMARK    5  A    between atoms: N_11  and  N_12
REMARK    6  A    between atoms: C_13  and  C_15
REMARK                            x       y       z     vdW  Elec       q    Type
REMARK                         _______ _______ _______ _____ _____    ______ ____
ROOT
ATOM      1  N   UNL     1       0.165   1.275   2.927  0.00  0.00    -0.108 NA
ATOM      2  H   UNL     1      -0.281   2.130   3.030  0.00  0.00    +0.172 HD
ENDROOT
BRANCH   1   3
ATOM      3  N   UNL     1      -0.052   0.254   3.860  0.00  0.00    -0.227 N 
ATOM      4  C   UNL     1       0.164   0.482   5.171  0.00  0.00    +0.265 C 
ATOM      5  O   UNL     1       0.546   1.575   5.543  0.00  0.00    -0.268 OA
ATOM      6  H   UNL     1      -0.357  -0.618   3.564  0.00  0.00    +0.171 HD
BRANCH   4   7
ATOM      7  C   UNL     1      -0.063  -0.587   6.148  0.00  0.00    +0.076 A 
ATOM      8  C   UNL     1       0.088  -0.563   7.517  0.00  0.00    +0.024 A 
ATOM      9  C   UNL     1      -0.177  -1.750   8.207  0.00  0.00    -0.036 A 
ATOM     10  C   UNL     1      -0.517  -2.822   7.466  0.00  0.00    -0.006 A 
ATOM     11  S   UNL     1      -0.616  -2.258   5.881  0.00  0.00    -0.088 S 
ATOM     12  C   UNL     1      -0.716  -4.277   7.812  0.00  0.00    +0.043 C 
ATOM     13  C   UNL     1      -0.460  -4.563   9.292  0.00  0.00    +0.005 C 
ATOM     14  C   UNL     1      -1.659  -4.167  10.137  0.00  0.00    +0.000 C 
ATOM     15  C   UNL     1      -2.327  -2.895   9.654  0.00  0.00    +0.000 C 
ATOM     16  C   UNL     1      -1.551  -1.725  10.268  0.00  0.00    +0.005 C 
ATOM     17  C   UNL     1      -0.121  -1.741   9.728  0.00  0.00    +0.036 C 
ENDBRANCH   4   7
ENDBRANCH   1   3
BRANCH   1  18
ATOM     18  S   UNL     1       1.184   1.023   1.645  0.00  0.00    +0.076 S 
ATOM     19  O   UNL     1       2.420   0.583   2.189  0.00  0.00    -0.152 OA
ATOM     20  O   UNL     1       1.083   2.171   0.814  0.00  0.00    -0.152 OA
BRANCH  18  27
ATOM     21  C   UNL     1       2.451  -1.720   1.518  0.00  0.00    +0.046 C 
ATOM     22  C   UNL     1       1.183  -1.546   0.723  0.00  0.00    -0.022 A 
ATOM     23  C   UNL     1       0.669  -2.607   0.001  0.00  0.00    +0.005 A 
ATOM     24  C   UNL     1      -0.494  -2.447  -0.728  0.00  0.00    +0.003 A 
ATOM     25  C   UNL     1      -1.143  -1.226  -0.736  0.00  0.00    +0.035 A 
ATOM     26  C   UNL     1      -0.629  -0.166  -0.014  0.00  0.00    +0.153 A 
ATOM     27  C   UNL     1       0.532  -0.327   0.720  0.00  0.00    +0.140 A 
BRANCH  26  28
ATOM     28  N   UNL     1      -1.324   1.141  -0.022  0.00  0.00    +0.058 N 
ATOM     29  O   UNL     1      -1.831   1.549  -1.041  0.00  0.00    -0.126 OA
ATOM     30  O   UNL     1      -1.384   1.800   0.989  0.00  0.00    -0.126 OA
ENDBRANCH  26  28
ENDBRANCH  18  27
ENDBRANCH   1  18
TORSDOF 5
