REMARK  Name = ZINC11976534
REMARK  8 active torsions:
REMARK  status: ('A' for Active; 'I' for Inactive)
REMARK    1  A    between atoms: C_1  and  C_2
REMARK    2  A    between atoms: C_5  and  C_33
REMARK    3  A    between atoms: C_6  and  C_8
REMARK    4  A    between atoms: C_15  and  C_18
REMARK    5  A    between atoms: C_18  and  N_19
REMARK    6  A    between atoms: C_20  and  C_22
REMARK    7  A    between atoms: C_22  and  C_23
REMARK    8  A    between atoms: C_26  and  C_32
REMARK                            x       y       z     vdW  Elec       q    Type
REMARK                         _______ _______ _______ _____ _____    ______ ____
ROOT
ATOM      1  C   UNL     1      -4.130  -1.439   2.846  0.00  0.00    +0.044 A 
ATOM      2  C   UNL     1      -4.983  -2.506   3.111  0.00  0.00    +0.014 A 
ATOM      3  C   UNL     1      -4.707  -3.758   2.601  0.00  0.00    +0.001 A 
ATOM      4  C   UNL     1      -3.580  -3.953   1.820  0.00  0.00    +0.007 A 
ATOM      5  C   UNL     1      -2.732  -2.901   1.550  0.00  0.00    -0.002 A 
ATOM      6  C   UNL     1      -2.985  -1.635   2.058  0.00  0.00    +0.133 A 
ATOM      7  O   UNL     1      -2.017  -0.753   1.691  0.00  0.00    -0.486 OA
ATOM      8  C   UNL     1      -1.301  -1.278   0.560  0.00  0.00    +0.195 C 
ATOM      9  C   UNL     1      -1.454  -2.807   0.739  0.00  0.00    +0.085 C 
ENDROOT
BRANCH   1  15
ATOM     10  C   UNL     1      -2.702   2.547   5.280  0.00  0.00    +0.067 C 
ATOM     11  C   UNL     1      -3.764   1.778   4.538  0.00  0.00    +0.057 A 
ATOM     12  C   UNL     1      -5.024   2.328   4.370  0.00  0.00    +0.134 A 
ATOM     13  N   UNL     1      -5.961   1.658   3.721  0.00  0.00    -0.256 NA
ATOM     14  C   UNL     1      -5.697   0.464   3.224  0.00  0.00    +0.064 A 
ATOM     15  C   UNL     1      -4.431  -0.096   3.396  0.00  0.00    +0.096 A 
ATOM     16  N   UNL     1      -3.492   0.582   4.051  0.00  0.00    -0.248 NA
ATOM     17  C   UNL     1      -6.763  -0.296   2.478  0.00  0.00    +0.068 C 
ENDBRANCH   1  15
BRANCH   8  18
ATOM     18  C   UNL     1       0.172  -0.870   0.614  0.00  0.00    +0.149 C 
BRANCH  18  19
ATOM     19  N   UNL     1       0.284   0.580   0.442  0.00  0.00    -0.312 N 
ATOM     20  C   UNL     1       1.497   1.169   0.455  0.00  0.00    +0.215 C 
ATOM     21  O   UNL     1       2.495   0.498   0.609  0.00  0.00    -0.276 OA
ATOM     22  H   UNL     1      -0.514   1.117   0.314  0.00  0.00    +0.149 HD
BRANCH  20  23
ATOM     23  C   UNL     1       1.612   2.661   0.278  0.00  0.00    +0.118 C 
BRANCH  23  24
ATOM     24  C   UNL     1       3.085   3.069   0.332  0.00  0.00    +0.082 C 
ATOM     25  C   UNL     1       3.197   4.596   0.269  0.00  0.00    +0.044 C 
ATOM     26  C   UNL     1       4.680   4.975   0.207  0.00  0.00    +0.071 C 
ATOM     27  N   UNL     1       5.304   4.290  -0.926  0.00  0.00    -0.324 N 
ATOM     28  C   UNL     1       4.848   3.108  -1.365  0.00  0.00    +0.131 C 
ATOM     29  S   UNL     1       5.638   2.360  -2.687  0.00  0.00    -0.019 S 
ATOM     30  N   UNL     1       3.796   2.488  -0.809  0.00  0.00    -0.323 N 
ATOM     31  C   UNL     1       5.371   4.549   1.504  0.00  0.00    +0.028 C 
ATOM     32  H   UNL     1       6.064   4.700  -1.369  0.00  0.00    +0.148 HD
ATOM     33  H   UNL     1       3.500   1.638  -1.170  0.00  0.00    +0.148 HD
ENDBRANCH  23  24
ENDBRANCH  20  23
ENDBRANCH  18  19
ENDBRANCH   8  18
TORSDOF 5
