REMARK  Name = ZINC65509699
REMARK  6 active torsions:
REMARK  status: ('A' for Active; 'I' for Inactive)
REMARK    1  A    between atoms: C_4  and  C_7
REMARK    2  A    between atoms: C_7  and  C_8
REMARK    3  A    between atoms: C_7  and  N_11
REMARK    4  A    between atoms: N_14  and  C_15
REMARK    5  A    between atoms: C_15  and  C_16
REMARK    6  A    between atoms: C_21  and  N_22
REMARK                            x       y       z     vdW  Elec       q    Type
REMARK                         _______ _______ _______ _____ _____    ______ ____
ROOT
ATOM      1  N   UNL     1       3.611  -1.865  -0.930  0.00  0.00    -0.284 N 
ATOM      2  C   UNL     1       4.721  -2.370  -1.504  0.00  0.00    +0.301 C 
ATOM      3  O   UNL     1       5.805  -1.866  -1.281  0.00  0.00    -0.253 OA
ATOM      4  N   UNL     1       4.629  -3.435  -2.325  0.00  0.00    -0.295 N 
ATOM      5  H   UNL     1       2.747  -2.267  -1.108  0.00  0.00    +0.151 HD
ATOM      6  H   UNL     1       3.765  -3.837  -2.503  0.00  0.00    +0.151 HD
ENDROOT
BRANCH   1   7
ATOM      7  C   UNL     1       3.711  -0.707  -0.038  0.00  0.00    +0.190 C 
BRANCH   7  11
ATOM      8  C   UNL     1      -0.017   1.378   0.010  0.00  0.00    +0.000 A 
ATOM      9  C   UNL     1       1.171   2.086   0.002  0.00  0.00    +0.000 A 
ATOM     10  C   UNL     1       2.377   1.411  -0.013  0.00  0.00    +0.006 A 
ATOM     11  C   UNL     1       2.396   0.029  -0.020  0.00  0.00    -0.018 A 
ATOM     12  C   UNL     1       1.208  -0.679  -0.012  0.00  0.00    +0.006 A 
ATOM     13  C   UNL     1       0.002  -0.004   0.002  0.00  0.00    +0.000 A 
ENDBRANCH   7  11
BRANCH   7  14
ATOM     14  C   UNL     1       4.044  -1.175   1.356  0.00  0.00    +0.235 C 
ATOM     15  O   UNL     1       4.184  -2.358   1.581  0.00  0.00    -0.274 OA
ATOM     16  N   UNL     1       4.186  -0.278   2.352  0.00  0.00    -0.328 N 
ATOM     17  H   UNL     1       4.074   0.669   2.172  0.00  0.00    +0.145 HD
ATOM     18  H   UNL     1       4.400  -0.579   3.249  0.00  0.00    +0.145 HD
ENDBRANCH   7  14
ENDBRANCH   1   7
BRANCH   4  19
ATOM     19  C   UNL     1       5.835  -3.985  -2.949  0.00  0.00    +0.143 C 
BRANCH  19  20
ATOM     20  C   UNL     1       5.462  -5.162  -3.813  0.00  0.00    -0.005 A 
ATOM     21  C   UNL     1       5.631  -6.449  -3.340  0.00  0.00    +0.007 A 
ATOM     22  C   UNL     1       5.289  -7.529  -4.132  0.00  0.00    +0.000 A 
ATOM     23  C   UNL     1       4.776  -7.325  -5.400  0.00  0.00    +0.002 A 
ATOM     24  C   UNL     1       4.605  -6.041  -5.879  0.00  0.00    +0.028 A 
ATOM     25  C   UNL     1       4.942  -4.954  -5.083  0.00  0.00    +0.070 A 
BRANCH  25  26
ATOM     26  N   UNL     1       4.764  -3.649  -5.564  0.00  0.00    -0.240 N 
ATOM     27  C   UNL     1       4.265  -3.308  -6.774  0.00  0.00    +0.114 A 
ATOM     28  C   UNL     1       4.256  -1.957  -6.849  0.00  0.00    +0.041 A 
ATOM     29  C   UNL     1       4.766  -1.455  -5.647  0.00  0.00    +0.135 A 
ATOM     30  N   UNL     1       5.065  -2.468  -4.874  0.00  0.00    -0.175 NA
ENDBRANCH  25  26
ENDBRANCH  19  20
ENDBRANCH   4  19
TORSDOF 6
