REMARK  Name = ZINC43981707
REMARK  9 active torsions:
REMARK  status: ('A' for Active; 'I' for Inactive)
REMARK    1  A    between atoms: C_1  and  C_2
REMARK    2  A    between atoms: C_2  and  C_4
REMARK    3  A    between atoms: C_2  and  C_10
REMARK    4  A    between atoms: C_4  and  C_5
REMARK    5  A    between atoms: C_5  and  C_6
REMARK    6  A    between atoms: N_8  and  N_9
REMARK    7  A    between atoms: C_16  and  C_35
REMARK    8  A    between atoms: C_27  and  C_34
REMARK    9  A    between atoms: C_30  and  O_33
REMARK                            x       y       z     vdW  Elec       q    Type
REMARK                         _______ _______ _______ _____ _____    ______ ____
ROOT
ATOM      1  C   UNL     1       0.606  -0.500  -1.313  0.00  0.00    -0.002 C 
ATOM      2  C   UNL     1       0.469  -2.031  -1.414  0.00  0.00    +0.004 C 
ATOM      3  C   UNL     1      -0.355  -2.317  -2.691  0.00  0.00    +0.004 C 
ATOM      4  C   UNL     1      -0.141  -1.055  -3.546  0.00  0.00    -0.001 C 
ATOM      5  C   UNL     1      -0.179   0.089  -2.516  0.00  0.00    -0.026 C 
ATOM      6  C   UNL     1      -1.610   0.332  -2.030  0.00  0.00    +0.007 C 
ATOM      7  C   UNL     1      -2.547   0.573  -3.210  0.00  0.00    +0.005 C 
ATOM      8  C   UNL     1      -2.570  -0.687  -4.082  0.00  0.00    -0.001 C 
ATOM      9  C   UNL     1      -1.178  -0.906  -4.632  0.00  0.00    -0.004 C 
ATOM     10  C   UNL     1      -1.196  -2.147  -5.528  0.00  0.00    +0.004 C 
ATOM     11  C   UNL     1      -2.194  -1.939  -6.669  0.00  0.00    +0.004 C 
ATOM     12  C   UNL     1      -3.591  -1.706  -6.090  0.00  0.00    -0.002 C 
ATOM     13  C   UNL     1      -3.570  -0.492  -5.224  0.00  0.00    -0.026 C 
ATOM     14  C   UNL     1      -4.969  -0.276  -4.646  0.00  0.00    +0.010 C 
ATOM     15  C   UNL     1      -5.373  -1.498  -3.818  0.00  0.00    +0.032 C 
ATOM     16  C   UNL     1      -5.377  -2.740  -4.710  0.00  0.00    +0.115 C 
ATOM     17  C   UNL     1      -4.010  -2.923  -5.263  0.00  0.00    +0.035 C 
ATOM     18  C   UNL     1      -3.166   0.729  -6.052  0.00  0.00    +0.012 C 
ATOM     19  C   UNL     1       0.473   1.364  -3.055  0.00  0.00    +0.012 C 
ENDROOT
BRANCH   1  21
ATOM     20  C   UNL     1       0.205   1.508   0.118  0.00  0.00    +0.008 C 
ATOM     21  C   UNL     1       0.002  -0.004   0.002  0.00  0.00    -0.010 C 
BRANCH  21  22
ATOM     22  C   UNL     1       0.692  -0.703   1.175  0.00  0.00    +0.013 C 
BRANCH  22  23
ATOM     23  C   UNL     1       0.006  -0.301   2.483  0.00  0.00    +0.097 C 
BRANCH  23  24
ATOM     24  C   UNL     1       0.685  -0.989   3.639  0.00  0.00    +0.226 C 
ATOM     25  O   UNL     1       1.625  -1.728   3.437  0.00  0.00    -0.275 OA
ATOM     26  N   UNL     1       0.248  -0.784   4.897  0.00  0.00    -0.254 N 
ATOM     27  H   UNL     1      -0.504  -0.193   5.058  0.00  0.00    +0.169 HD
BRANCH  26  28
ATOM     28  N   UNL     1       0.864  -1.407   5.944  0.00  0.00    -0.254 NA
ATOM     29  H   UNL     1       0.428  -1.158   6.820  0.00  0.00    +0.140 HD
ATOM     30  H   UNL     1       0.871  -2.408   5.816  0.00  0.00    +0.140 HD
ENDBRANCH  26  28
ENDBRANCH  23  24
ENDBRANCH  22  23
ENDBRANCH  21  22
ENDBRANCH   1  21
BRANCH  16  31
ATOM     31  O   UNL     1      -6.309  -2.558  -5.777  0.00  0.00    -0.392 OA
ATOM     32  H   UNL     1      -7.220  -2.415  -5.484  0.00  0.00    +0.210 HD
ENDBRANCH  16  31
TORSDOF 6
