REMARK  Name = ZINC21878262
REMARK  6 active torsions:
REMARK  status: ('A' for Active; 'I' for Inactive)
REMARK    1  A    between atoms: C_1  and  C_2
REMARK    2  A    between atoms: C_2  and  C_4
REMARK    3  A    between atoms: C_2  and  S_15
REMARK    4  A    between atoms: S_15  and  C_16
REMARK    5  A    between atoms: C_19  and  C_22
REMARK    6  A    between atoms: N_20  and  N_21
REMARK                            x       y       z     vdW  Elec       q    Type
REMARK                         _______ _______ _______ _____ _____    ______ ____
ROOT
ATOM      1  S   UNL     1      -2.427   0.953   1.280  0.00  0.00    -0.072 S 
ENDROOT
BRANCH   1   2
ATOM      2  C   UNL     1      -3.072   1.788  -0.131  0.00  0.00    +0.209 A 
ATOM      3  N   UNL     1      -2.418   2.617  -0.912  0.00  0.00    -0.121 NA
ATOM      4  N   UNL     1      -3.188   3.046  -1.847  0.00  0.00    -0.126 NA
ATOM      5  C   UNL     1      -4.385   2.517  -1.720  0.00  0.00    +0.188 A 
ATOM      6  N   UNL     1      -4.345   1.689  -0.620  0.00  0.00    -0.223 N 
BRANCH   5   7
ATOM      7  C   UNL     1      -5.545   2.757  -2.594  0.00  0.00    +0.058 A 
ATOM      8  C   UNL     1      -5.586   3.333  -3.838  0.00  0.00    +0.019 A 
ATOM      9  C   UNL     1      -6.802   3.449  -4.473  0.00  0.00    +0.008 A 
ATOM     10  C   UNL     1      -7.922   3.002  -3.846  0.00  0.00    +0.046 A 
ATOM     11  S   UNL     1      -7.267   2.383  -2.305  0.00  0.00    -0.093 S 
ENDBRANCH   5   7
BRANCH   6  12
ATOM     12  N   UNL     1      -5.365   0.931  -0.120  0.00  0.00    -0.295 N 
ATOM     13  H   UNL     1      -6.349   0.941  -0.611  0.00  0.00    +0.163 HD
ATOM     14  H   UNL     1      -5.202   0.311   0.774  0.00  0.00    +0.163 HD
ENDBRANCH   6  12
ENDBRANCH   1   2
BRANCH   1  16
ATOM     15  C   UNL     1      -0.013   1.086   0.008  0.00  0.00    +0.029 C 
ATOM     16  C   UNL     1      -0.729   1.579   1.267  0.00  0.00    +0.137 C 
BRANCH  16  17
ATOM     17  C   UNL     1       0.000   1.080   2.488  0.00  0.00    +0.229 C 
ATOM     18  O   UNL     1      -0.360   0.059   3.034  0.00  0.00    -0.274 OA
ATOM     19  N   UNL     1       1.052   1.768   2.973  0.00  0.00    -0.296 N 
ATOM     20  C   UNL     1       1.767   1.294   4.167  0.00  0.00    +0.113 C 
ATOM     21  C   UNL     1       3.203   0.922   3.747  0.00  0.00    +0.061 C 
ATOM     22  C   UNL     1       3.724   1.983   2.833  0.00  0.00    -0.004 A 
ATOM     23  C   UNL     1       3.016   2.934   2.167  0.00  0.00    -0.020 A 
ATOM     24  C   UNL     1       3.745   3.810   1.364  0.00  0.00    +0.013 A 
ATOM     25  C   UNL     1       5.090   3.690   1.280  0.00  0.00    +0.046 A 
ATOM     26  S   UNL     1       5.402   2.298   2.355  0.00  0.00    -0.101 S 
ATOM     27  C   UNL     1       1.497   3.007   2.320  0.00  0.00    +0.143 C 
ENDBRANCH  16  17
ENDBRANCH   1  16
TORSDOF 5
