REMARK  Name = ZINC63557091
REMARK  10 active torsions:
REMARK  status: ('A' for Active; 'I' for Inactive)
REMARK    1  A    between atoms: C_1  and  C_2
REMARK    2  A    between atoms: C_2  and  C_3
REMARK    3  A    between atoms: C_3  and  C_4
REMARK    4  A    between atoms: C_3  and  C_6
REMARK    5  A    between atoms: C_4  and  C_5
REMARK    6  A    between atoms: C_10  and  N_13
REMARK    7  A    between atoms: C_14  and  C_16
REMARK    8  A    between atoms: N_21  and  C_23
REMARK    9  A    between atoms: C_23  and  C_24
REMARK   10  A    between atoms: C_24  and  C_25
REMARK                            x       y       z     vdW  Elec       q    Type
REMARK                         _______ _______ _______ _____ _____    ______ ____
ROOT
ATOM      1  C   UNL     1       0.979  -7.856  -0.904  0.00  0.00    +0.101 C 
ATOM      2  C   UNL     1       0.971  -8.119   0.620  0.00  0.00    +0.110 C 
ATOM      3  C   UNL     1       1.197  -9.610   0.740  0.00  0.00    +0.216 C 
ATOM      4  O   UNL     1       0.985 -10.267   1.737  0.00  0.00    -0.276 OA
ATOM      5  N   UNL     1       1.667 -10.101  -0.419  0.00  0.00    -0.300 N 
ATOM      6  C   UNL     1       1.820  -9.042  -1.425  0.00  0.00    +0.121 C 
ENDROOT
BRANCH   1   8
ATOM      7  N   UNL     1       1.096  -5.388  -0.793  0.00  0.00    -0.290 N 
ATOM      8  C   UNL     1       1.645  -6.542  -1.221  0.00  0.00    +0.220 C 
ATOM      9  O   UNL     1       2.675  -6.523  -1.861  0.00  0.00    -0.275 OA
ATOM     10  H   UNL     1       0.272  -5.403  -0.281  0.00  0.00    +0.151 HD
BRANCH   7  14
ATOM     11  C   UNL     1       0.460  -1.707  -1.661  0.00  0.00    +0.133 C 
ATOM     12  N   UNL     1       1.413  -2.269  -2.669  0.00  0.00    -0.241 NA
ATOM     13  N   UNL     1       1.503  -3.716  -2.517  0.00  0.00    -0.227 NA
ATOM     14  C   UNL     1       1.744  -4.110  -1.101  0.00  0.00    +0.216 C 
ATOM     15  S   UNL     1       0.935  -2.723  -0.195  0.00  0.00    -0.102 S 
ATOM     16  H   UNL     1       1.136  -2.020  -3.607  0.00  0.00    +0.142 HD
ATOM     17  H   UNL     1       0.680  -4.170  -2.884  0.00  0.00    +0.143 HD
BRANCH  11  18
ATOM     18  C   UNL     1       0.718  -0.219  -1.417  0.00  0.00    +0.017 C 
BRANCH  18  20
ATOM     19  C   UNL     1      -0.127   1.831  -0.264  0.00  0.00    +0.004 C 
ATOM     20  C   UNL     1      -0.305   0.318  -0.413  0.00  0.00    +0.002 C 
ENDBRANCH  18  20
BRANCH  18  21
ATOM     21  C   UNL     1       2.129  -0.031  -0.857  0.00  0.00    +0.002 C 
ATOM     22  C   UNL     1       3.155  -0.481  -1.899  0.00  0.00    +0.004 C 
ENDBRANCH  18  21
ENDBRANCH  11  18
ENDBRANCH   7  14
ENDBRANCH   1   8
BRANCH   5  23
ATOM     23  C   UNL     1       1.986 -11.512  -0.651  0.00  0.00    +0.112 C 
BRANCH  23  24
ATOM     24  C   UNL     1       0.747 -12.235  -1.182  0.00  0.00    +0.052 C 
BRANCH  24  25
ATOM     25  C   UNL     1       1.075 -13.686  -1.419  0.00  0.00    -0.040 C 
ATOM     26  C   UNL     1       0.862 -14.718  -0.571  0.00  0.00    +0.000 A 
ATOM     27  C   UNL     1       0.284 -14.793   0.776  0.00  0.00    +0.030 A 
ATOM     28  C   UNL     1       0.202 -15.998   1.388  0.00  0.00    +0.042 A 
ATOM     29  C   UNL     1       0.655 -17.172   0.769  0.00  0.00    +0.022 A 
ATOM     30  C   UNL     1       1.198 -17.181  -0.467  0.00  0.00    +0.027 A 
ATOM     31  C   UNL     1       1.332 -15.971  -1.203  0.00  0.00    +0.043 A 
ATOM     32  N   UNL     1       1.817 -15.724  -2.396  0.00  0.00    -0.380 N 
ATOM     33  C   UNL     1       1.702 -14.285  -2.658  0.00  0.00    +0.144 C 
ATOM     34 CL   UNL     1      -0.480 -16.092   2.982  0.00  0.00    -0.084 Cl
ATOM     35  H   UNL     1       2.185 -16.383  -3.004  0.00  0.00    +0.160 HD
ENDBRANCH  24  25
ENDBRANCH  23  24
ENDBRANCH   5  23
TORSDOF 8
