REMARK  Name = ZINC39710451
REMARK  10 active torsions:
REMARK  status: ('A' for Active; 'I' for Inactive)
REMARK    1  A    between atoms: C_1  and  C_2
REMARK    2  A    between atoms: C_2  and  C_3
REMARK    3  A    between atoms: C_10  and  C_15
REMARK    4  A    between atoms: C_15  and  C_17
REMARK    5  A    between atoms: C_15  and  N_27
REMARK    6  A    between atoms: N_22  and  C_23
REMARK    7  A    between atoms: C_23  and  C_24
REMARK    8  A    between atoms: C_23  and  C_25
REMARK    9  A    between atoms: C_23  and  C_26
REMARK   10  A    between atoms: N_30  and  C_33
REMARK                            x       y       z     vdW  Elec       q    Type
REMARK                         _______ _______ _______ _____ _____    ______ ____
ROOT
ATOM      1  C   UNL     1       5.860  -1.053  -3.928  0.00  0.00    -0.009 C 
ENDROOT
BRANCH   1   9
ATOM      2  C   UNL     1       1.875  -2.625  -7.890  0.00  0.00    -0.047 A 
ATOM      3  C   UNL     1       2.090  -3.981  -7.639  0.00  0.00    +0.005 A 
ATOM      4  C   UNL     1       2.801  -4.424  -6.570  0.00  0.00    +0.024 A 
ATOM      5  C   UNL     1       3.360  -3.512  -5.655  0.00  0.00    +0.040 A 
ATOM      6  N   UNL     1       4.056  -3.959  -4.610  0.00  0.00    -0.285 N 
ATOM      7  C   UNL     1       4.607  -3.158  -3.714  0.00  0.00    +0.223 C 
ATOM      8  O   UNL     1       5.232  -3.624  -2.780  0.00  0.00    -0.275 OA
ATOM      9  C   UNL     1       4.457  -1.660  -3.854  0.00  0.00    +0.088 C 
ATOM     10  C   UNL     1       3.667  -1.147  -5.042  0.00  0.00    -0.006 C 
ATOM     11  C   UNL     1       3.149  -2.074  -5.896  0.00  0.00    -0.007 A 
ATOM     12  C   UNL     1       2.377  -1.666  -7.070  0.00  0.00    +0.013 A 
ATOM     13  H   UNL     1       4.164  -4.917  -4.502  0.00  0.00    +0.155 HD
BRANCH   2  15
ATOM     14  C   UNL     1       2.012  -2.039 -10.296  0.00  0.00    +0.009 C 
ATOM     15  C   UNL     1       1.075  -2.217  -9.100  0.00  0.00    +0.032 C 
ENDBRANCH   2  15
ENDBRANCH   1   9
BRANCH   1  16
ATOM     16  N   UNL     1       6.650  -1.767  -4.939  0.00  0.00    +0.387 N 
ATOM     17  C   UNL     1       7.899  -1.036  -5.188  0.00  0.00    -0.059 C 
ATOM     18  C   UNL     1       8.671  -1.717  -6.323  0.00  0.00    +0.086 C 
ATOM     19  N   UNL     1       8.856  -3.135  -5.978  0.00  0.00    -0.331 N 
ATOM     20  C   UNL     1       7.675  -3.905  -5.557  0.00  0.00    +0.086 C 
ATOM     21  C   UNL     1       6.950  -3.121  -4.457  0.00  0.00    -0.059 C 
ATOM     22  H   UNL     1       6.122  -1.826  -5.797  0.00  0.00    -0.081 HD
BRANCH  19  23
ATOM     23  C   UNL     1      10.118  -3.733  -6.047  0.00  0.00    +0.065 A 
ATOM     24  C   UNL     1      10.951  -3.730  -4.936  0.00  0.00    +0.026 A 
ATOM     25  C   UNL     1      12.197  -4.323  -5.007  0.00  0.00    +0.002 A 
ATOM     26  C   UNL     1      12.616  -4.918  -6.183  0.00  0.00    +0.003 A 
ATOM     27  C   UNL     1      11.790  -4.924  -7.292  0.00  0.00    +0.040 A 
ATOM     28  C   UNL     1      10.539  -4.338  -7.226  0.00  0.00    +0.144 A 
ATOM     29  F   UNL     1       9.729  -4.348  -8.308  0.00  0.00    -0.204 F 
ENDBRANCH  19  23
ENDBRANCH   1  16
BRANCH   1  30
ATOM     30  C   UNL     1       5.757   0.425  -4.311  0.00  0.00    +0.205 C 
ATOM     31  N   UNL     1       7.082   1.058  -4.272  0.00  0.00    -0.152 NA
ATOM     32  N   UNL     1       7.067   1.963  -3.435  0.00  0.00    -0.070 NA
ATOM     33  N   UNL     1       5.831   2.098  -2.804  0.00  0.00    -0.179 N 
ATOM     34  N   UNL     1       4.961   1.163  -3.308  0.00  0.00    -0.183 NA
ATOM     35  H   UNL     1       5.619   2.750  -2.118  0.00  0.00    +0.191 HD
BRANCH  34  36
ATOM     36  C   UNL     1       4.482   0.264  -2.251  0.00  0.00    +0.035 C 
ATOM     37  C   UNL     1       5.480  -0.880  -2.063  0.00  0.00    +0.029 C 
ATOM     38  C   UNL     1       4.347   1.044  -0.941  0.00  0.00    +0.029 C 
ATOM     39  C   UNL     1       3.119  -0.308  -2.646  0.00  0.00    +0.029 C 
ENDBRANCH  34  36
ENDBRANCH   1  30
TORSDOF 6
