REMARK  Name = ZINC64851033
REMARK  4 active torsions:
REMARK  status: ('A' for Active; 'I' for Inactive)
REMARK    1  A    between atoms: N_7  and  C_11
REMARK    2  A    between atoms: C_11  and  C_12
REMARK    3  A    between atoms: N_14  and  C_15
REMARK    4  A    between atoms: C_15  and  C_20
REMARK                            x       y       z     vdW  Elec       q    Type
REMARK                         _______ _______ _______ _____ _____    ______ ____
ROOT
ATOM      1  C   UNL     1       0.318  -4.155  -1.107  0.00  0.00    +0.234 C 
ATOM      2  O   UNL     1       0.986  -3.450  -1.833  0.00  0.00    -0.274 OA
ATOM      3  N   UNL     1      -0.638  -4.948  -1.630  0.00  0.00    -0.304 N 
ATOM      4  H   UNL     1      -1.114  -5.574  -1.062  0.00  0.00    +0.150 HD
ENDROOT
BRANCH   3   5
ATOM      5  C   UNL     1      -0.960  -4.863  -3.057  0.00  0.00    +0.060 C 
ATOM      6  C   UNL     1      -1.435  -3.435  -3.422  0.00  0.00    +0.030 C 
ATOM      7  C   UNL     1      -2.919  -3.445  -2.977  0.00  0.00    +0.002 C 
ATOM      8  C   UNL     1      -3.414  -4.860  -3.341  0.00  0.00    +0.002 C 
ATOM      9  C   UNL     1      -2.168  -5.762  -3.392  0.00  0.00    +0.030 C 
BRANCH   5  10
ATOM     10  C   UNL     1       0.235  -5.253  -3.889  0.00  0.00    -0.024 A 
ATOM     11  C   UNL     1       1.268  -5.974  -3.320  0.00  0.00    +0.008 A 
ATOM     12  C   UNL     1       2.363  -6.332  -4.082  0.00  0.00    +0.038 A 
ATOM     13  C   UNL     1       2.426  -5.968  -5.417  0.00  0.00    +0.123 A 
ATOM     14  C   UNL     1       1.391  -5.246  -5.986  0.00  0.00    +0.038 A 
ATOM     15  C   UNL     1       0.294  -4.893  -5.223  0.00  0.00    +0.008 A 
ATOM     16  F   UNL     1       3.497  -6.318  -6.163  0.00  0.00    -0.205 F 
ENDBRANCH   5  10
ENDBRANCH   3   5
BRANCH   1  17
ATOM     17  C   UNL     1       0.558  -4.146   0.381  0.00  0.00    +0.224 C 
BRANCH  17  24
ATOM     18  C   UNL     1       0.589   0.324   1.392  0.00  0.00    +0.002 A 
ATOM     19  C   UNL     1       1.862   0.814   1.625  0.00  0.00    +0.004 A 
ATOM     20  C   UNL     1       2.958  -0.023   1.541  0.00  0.00    +0.048 A 
ATOM     21  C   UNL     1       2.782  -1.361   1.222  0.00  0.00    +0.157 A 
ATOM     22  C   UNL     1       1.499  -1.853   0.988  0.00  0.00    +0.091 A 
ATOM     23  C   UNL     1       0.405  -1.007   1.074  0.00  0.00    +0.030 A 
ATOM     24  N   UNL     1       1.640  -3.210   0.696  0.00  0.00    -0.265 N 
ATOM     25  C   UNL     1       2.954  -3.502   0.756  0.00  0.00    +0.422 A 
ATOM     26  O   UNL     1       3.439  -4.599   0.555  0.00  0.00    -0.223 OA
ATOM     27  O   UNL     1       3.645  -2.396   1.072  0.00  0.00    -0.407 OA
ENDBRANCH  17  24
ENDBRANCH   1  17
TORSDOF 4
