REMARK  Name = ZINC06305330
REMARK  10 active torsions:
REMARK  status: ('A' for Active; 'I' for Inactive)
REMARK    1  A    between atoms: C_1  and  C_2
REMARK    2  A    between atoms: C_2  and  C_3
REMARK    3  A    between atoms: C_2  and  C_4
REMARK    4  A    between atoms: C_2  and  C_5
REMARK    5  A    between atoms: C_8  and  C_11
REMARK    6  A    between atoms: N_13  and  N_14
REMARK    7  A    between atoms: N_14  and  C_15
REMARK    8  A    between atoms: C_15  and  N_17
REMARK    9  A    between atoms: C_18  and  C_20
REMARK   10  A    between atoms: C_25  and  N_26
REMARK                            x       y       z     vdW  Elec       q    Type
REMARK                         _______ _______ _______ _____ _____    ______ ____
ROOT
ATOM      1  N   UNL     1       5.067  -1.312  -7.362  0.00  0.00    -0.245 N 
ATOM      2  H   UNL     1       4.716  -1.815  -8.114  0.00  0.00    +0.172 HD
ENDROOT
BRANCH   1   5
ATOM      3  C   UNL     1       2.857  -0.848  -6.607  0.00  0.00    +0.260 C 
ATOM      4  O   UNL     1       2.418  -1.478  -7.549  0.00  0.00    -0.269 OA
ATOM      5  N   UNL     1       4.189  -0.720  -6.445  0.00  0.00    -0.231 N 
ATOM      6  H   UNL     1       4.540  -0.217  -5.694  0.00  0.00    +0.173 HD
BRANCH   3  10
ATOM      7  C   UNL     1       0.196   0.948  -3.826  0.00  0.00    -0.042 A 
ATOM      8  C   UNL     1      -0.308   0.232  -4.897  0.00  0.00    +0.005 A 
ATOM      9  C   UNL     1       0.551  -0.354  -5.804  0.00  0.00    +0.013 A 
ATOM     10  C   UNL     1       1.931  -0.223  -5.639  0.00  0.00    +0.038 A 
ATOM     11  C   UNL     1       2.433   0.501  -4.556  0.00  0.00    +0.013 A 
ATOM     12  C   UNL     1       1.563   1.086  -3.659  0.00  0.00    +0.005 A 
BRANCH   7  14
ATOM     13  C   UNL     1      -0.527   3.098  -2.825  0.00  0.00    +0.015 C 
ATOM     14  C   UNL     1      -0.748   1.584  -2.839  0.00  0.00    -0.013 C 
ATOM     15  C   UNL     1      -0.484   1.018  -1.442  0.00  0.00    +0.015 C 
ATOM     16  C   UNL     1      -2.192   1.283  -3.247  0.00  0.00    +0.015 C 
ENDBRANCH   7  14
ENDBRANCH   3  10
ENDBRANCH   1   5
BRANCH   1  17
ATOM     17  C   UNL     1       6.399  -1.183  -7.200  0.00  0.00    +0.153 C 
ATOM     18  S   UNL     1       7.471  -1.907  -8.321  0.00  0.00    -0.017 S 
BRANCH  17  19
ATOM     19  N   UNL     1       6.886  -0.485  -6.156  0.00  0.00    -0.263 N 
ATOM     20  C   UNL     1       8.218  -0.356  -5.994  0.00  0.00    +0.252 C 
ATOM     21  O   UNL     1       8.979  -0.870  -6.790  0.00  0.00    -0.270 OA
ATOM     22  H   UNL     1       6.278  -0.075  -5.521  0.00  0.00    +0.157 HD
BRANCH  20  23
ATOM     23  C   UNL     1       8.752   0.410  -4.849  0.00  0.00    +0.067 A 
ATOM     24  C   UNL     1       8.343   1.727  -4.634  0.00  0.00    +0.015 A 
ATOM     25  C   UNL     1       8.846   2.436  -3.563  0.00  0.00    +0.001 A 
ATOM     26  C   UNL     1       9.754   1.845  -2.703  0.00  0.00    +0.002 A 
ATOM     27  C   UNL     1      10.164   0.540  -2.910  0.00  0.00    +0.033 A 
ATOM     28  C   UNL     1       9.664  -0.183  -3.974  0.00  0.00    +0.138 A 
BRANCH  28  29
ATOM     29  N   UNL     1      10.099  -1.581  -4.190  0.00  0.00    +0.057 N 
ATOM     30  O   UNL     1      10.979  -2.053  -3.508  0.00  0.00    -0.126 OA
ATOM     31  O   UNL     1       9.575  -2.251  -5.048  0.00  0.00    -0.126 OA
ENDBRANCH  28  29
ENDBRANCH  20  23
ENDBRANCH  17  19
ENDBRANCH   1  17
TORSDOF 7
