REMARK  Name = ZINC35595091
REMARK  6 active torsions:
REMARK  status: ('A' for Active; 'I' for Inactive)
REMARK    1  A    between atoms: C_4  and  N_7
REMARK    2  A    between atoms: N_17  and  C_21
REMARK    3  A    between atoms: C_21  and  C_22
REMARK    4  A    between atoms: C_22  and  C_23
REMARK    5  A    between atoms: C_26  and  S_29
REMARK    6  A    between atoms: S_29  and  N_32
REMARK                            x       y       z     vdW  Elec       q    Type
REMARK                         _______ _______ _______ _____ _____    ______ ____
ROOT
ATOM      1  N   UNL     1       3.622  -0.651  -0.037  0.00  0.00    -0.270 N 
ATOM      2  C   UNL     1       3.606  -2.106   0.061  0.00  0.00    +0.090 C 
ATOM      3  C   UNL     1       2.528  -2.658  -0.905  0.00  0.00    +0.187 C 
ATOM      4  S   UNL     1       3.494  -3.015  -2.428  0.00  0.00    -0.031 S 
ATOM      5  O   UNL     1       3.108  -2.100  -3.445  0.00  0.00    -0.174 OA
ATOM      6  O   UNL     1       3.447  -4.411  -2.689  0.00  0.00    -0.174 OA
ATOM      7  C   UNL     1       5.180  -2.572  -1.832  0.00  0.00    +0.152 C 
ATOM      8  C   UNL     1       4.974  -2.688  -0.310  0.00  0.00    -0.024 C 
ATOM      9  N   UNL     1       6.038  -1.931   0.357  0.00  0.00    +0.390 N 
ATOM     10  C   UNL     1       6.104  -0.578  -0.207  0.00  0.00    +0.020 C 
ATOM     11  C   UNL     1       4.746   0.063  -0.148  0.00  0.00    +0.203 C 
ATOM     12  O   UNL     1       4.667   1.272  -0.218  0.00  0.00    -0.277 OA
ATOM     13  H   UNL     1       5.841  -1.874   1.345  0.00  0.00    -0.081 HD
ENDROOT
BRANCH   1  17
ATOM     14  C   UNL     1      -0.016   1.380   0.011  0.00  0.00    +0.000 A 
ATOM     15  C   UNL     1       0.421   0.719   1.145  0.00  0.00    +0.002 A 
ATOM     16  C   UNL     1       1.626   0.045   1.132  0.00  0.00    +0.023 A 
ATOM     17  C   UNL     1       2.400   0.031  -0.021  0.00  0.00    +0.036 A 
ATOM     18  C   UNL     1       1.958   0.695  -1.158  0.00  0.00    +0.023 A 
ATOM     19  C   UNL     1       0.752   1.367  -1.139  0.00  0.00    +0.002 A 
ENDBRANCH   1  17
BRANCH   9  20
ATOM     20  C   UNL     1       7.325  -2.611   0.153  0.00  0.00    -0.073 C 
BRANCH  20  21
ATOM     21  C   UNL     1       8.414  -1.891   0.951  0.00  0.00    +0.016 C 
BRANCH  21  22
ATOM     22  C   UNL     1       9.733  -2.588   0.741  0.00  0.00    -0.049 A 
ATOM     23  C   UNL     1      10.113  -3.618   1.582  0.00  0.00    +0.005 A 
ATOM     24  C   UNL     1      11.323  -4.257   1.390  0.00  0.00    +0.029 A 
ATOM     25  C   UNL     1      12.154  -3.867   0.356  0.00  0.00    +0.105 A 
ATOM     26  C   UNL     1      11.774  -2.838  -0.485  0.00  0.00    +0.029 A 
ATOM     27  C   UNL     1      10.562  -2.201  -0.295  0.00  0.00    +0.005 A 
BRANCH  25  28
ATOM     28  S   UNL     1      13.698  -4.681   0.112  0.00  0.00    +0.056 S 
ATOM     29  O   UNL     1      14.533  -3.767  -0.586  0.00  0.00    -0.153 OA
ATOM     30  O   UNL     1      14.063  -5.243   1.365  0.00  0.00    -0.153 OA
BRANCH  28  31
ATOM     31  N   UNL     1      13.424  -5.951  -0.915  0.00  0.00    -0.204 NA
ATOM     32  H   UNL     1      12.531  -6.116  -1.255  0.00  0.00    +0.144 HD
ATOM     33  H   UNL     1      14.157  -6.530  -1.177  0.00  0.00    +0.144 HD
ENDBRANCH  28  31
ENDBRANCH  25  28
ENDBRANCH  21  22
ENDBRANCH  20  21
ENDBRANCH   9  20
TORSDOF 6
