REMARK  Name = ZINC38688225
REMARK  9 active torsions:
REMARK  status: ('A' for Active; 'I' for Inactive)
REMARK    1  A    between atoms: C_1  and  O_2
REMARK    2  A    between atoms: O_2  and  C_3
REMARK    3  A    between atoms: C_6  and  C_10
REMARK    4  A    between atoms: C_10  and  O_12
REMARK    5  A    between atoms: O_12  and  C_13
REMARK    6  A    between atoms: C_20  and  N_35
REMARK    7  A    between atoms: C_21  and  C_33
REMARK    8  A    between atoms: C_22  and  C_24
REMARK    9  A    between atoms: C_27  and  N_30
REMARK                            x       y       z     vdW  Elec       q    Type
REMARK                         _______ _______ _______ _____ _____    ______ ____
ROOT
ATOM      1  C   UNL     1       4.446  -3.419  -5.325  0.00  0.00    +0.135 A 
ATOM      2  C   UNL     1       3.765  -3.716  -6.498  0.00  0.00    +0.047 A 
ATOM      3  C   UNL     1       4.417  -4.359  -7.531  0.00  0.00    +0.012 A 
ATOM      4  C   UNL     1       5.750  -4.710  -7.403  0.00  0.00    +0.008 A 
ATOM      5  C   UNL     1       6.435  -4.416  -6.235  0.00  0.00    +0.138 A 
ATOM      6  C   UNL     1       5.782  -3.764  -5.197  0.00  0.00    +0.093 A 
ATOM      7  O   UNL     1       7.740  -4.752  -6.091  0.00  0.00    -0.441 OA
ATOM      8  C   UNL     1       8.282  -5.691  -6.884  0.00  0.00    +0.199 C 
ATOM      9  C   UNL     1       7.715  -6.051  -8.059  0.00  0.00    +0.098 C 
ATOM     10  C   UNL     1       6.443  -5.412  -8.541  0.00  0.00    +0.098 C 
ENDROOT
BRANCH  10  11
ATOM     11  C   UNL     1       6.764  -4.412  -9.622  0.00  0.00    -0.035 A 
ATOM     12  C   UNL     1       7.586  -3.335  -9.345  0.00  0.00    +0.007 A 
ATOM     13  C   UNL     1       7.881  -2.418 -10.337  0.00  0.00    +0.033 A 
ATOM     14  C   UNL     1       7.353  -2.577 -11.605  0.00  0.00    +0.126 A 
ATOM     15  C   UNL     1       6.531  -3.654 -11.881  0.00  0.00    +0.033 A 
ATOM     16  C   UNL     1       6.240  -4.574 -10.891  0.00  0.00    +0.007 A 
BRANCH  14  17
ATOM     17  N   UNL     1       7.668  -1.595 -12.666  0.00  0.00    +0.056 N 
ATOM     18  O   UNL     1       8.386  -0.653 -12.424  0.00  0.00    -0.126 OA
ATOM     19  O   UNL     1       7.206  -1.734 -13.775  0.00  0.00    -0.126 OA
ENDBRANCH  14  17
ENDBRANCH  10  11
BRANCH   8  20
ATOM     20  N   UNL     1       9.445  -6.305  -6.490  0.00  0.00    -0.328 N 
ATOM     21  H   UNL     1       9.864  -6.058  -5.651  0.00  0.00    +0.145 HD
ATOM     22  H   UNL     1       9.849  -6.985  -7.052  0.00  0.00    +0.145 HD
ENDBRANCH   8  20
BRANCH   9  23
ATOM     23  C   UNL     1       8.340  -7.059  -8.861  0.00  0.00    +0.101 C 
ATOM     24  N   UNL     1       8.837  -7.859  -9.497  0.00  0.00    -0.191 NA
ENDBRANCH   9  23
BRANCH   1  25
ATOM     25  O   UNL     1       3.806  -2.785  -4.308  0.00  0.00    -0.422 OA
BRANCH  25  26
ATOM     26  C   UNL     1       2.973  -3.511  -3.535  0.00  0.00    +0.345 C 
ATOM     27  O   UNL     1       2.744  -4.672  -3.812  0.00  0.00    -0.245 OA
BRANCH  26  31
ATOM     28  C   UNL     1       1.150  -1.741  -0.133  0.00  0.00    +0.157 A 
ATOM     29  C   UNL     1       0.886  -3.070  -0.449  0.00  0.00    +0.085 A 
ATOM     30  C   UNL     1       1.476  -3.647  -1.552  0.00  0.00    +0.038 A 
ATOM     31  C   UNL     1       2.340  -2.896  -2.354  0.00  0.00    +0.062 A 
ATOM     32  C   UNL     1       2.602  -1.561  -2.034  0.00  0.00    +0.038 A 
ATOM     33  C   UNL     1       2.004  -0.989  -0.932  0.00  0.00    +0.085 A 
ATOM     34 CL   UNL     1       2.323   0.671  -0.536  0.00  0.00    -0.080 Cl
ATOM     35 CL   UNL     1      -0.187  -4.001   0.549  0.00  0.00    -0.080 Cl
BRANCH  28  37
ATOM     36  C   UNL     1      -0.699  -0.544   0.758  0.00  0.00    +0.277 C 
ATOM     37  O   UNL     1       0.567  -1.175   0.955  0.00  0.00    -0.492 OA
ENDBRANCH  28  37
ENDBRANCH  26  31
ENDBRANCH  25  26
ENDBRANCH   1  25
TORSDOF 8
