REMARK  Name = ZINC19354151
REMARK  2 active torsions:
REMARK  status: ('A' for Active; 'I' for Inactive)
REMARK    1  A    between atoms: C_4  and  N_7
REMARK    2  A    between atoms: C_9  and  C_12
REMARK                            x       y       z     vdW  Elec       q    Type
REMARK                         _______ _______ _______ _____ _____    ______ ____
ROOT
ATOM      1  C   UNL     1       5.757  -3.612  -0.083  0.00  0.00    +0.212 C 
ATOM      2  N   UNL     1       6.944  -3.599  -0.957  0.00  0.00    -0.293 N 
ATOM      3  C   UNL     1       8.139  -3.131  -0.478  0.00  0.00    +0.183 C 
ATOM      4  N   UNL     1       8.455  -3.231   0.801  0.00  0.00    -0.183 NA
ATOM      5  C   UNL     1       7.540  -3.755   1.652  0.00  0.00    +0.236 A 
ATOM      6  N   UNL     1       6.229  -3.963   1.261  0.00  0.00    -0.285 N 
ATOM      7  C   UNL     1       5.554  -4.515   2.325  0.00  0.00    +0.076 A 
ATOM      8  C   UNL     1       4.249  -4.946   2.527  0.00  0.00    +0.077 A 
ATOM      9  C   UNL     1       3.879  -5.470   3.751  0.00  0.00    +0.164 A 
ATOM     10  C   UNL     1       4.805  -5.570   4.785  0.00  0.00    +0.164 A 
ATOM     11  C   UNL     1       6.105  -5.145   4.602  0.00  0.00    +0.079 A 
ATOM     12  C   UNL     1       6.493  -4.612   3.369  0.00  0.00    +0.095 A 
ATOM     13  N   UNL     1       7.680  -4.121   2.899  0.00  0.00    -0.210 NA
ATOM     14  O   UNL     1       4.420  -6.094   5.986  0.00  0.00    -0.488 OA
ATOM     15  C   UNL     1       3.502  -5.307   6.746  0.00  0.00    +0.232 C 
ATOM     16  C   UNL     1       2.071  -5.569   6.301  0.00  0.00    +0.082 C 
ATOM     17  C   UNL     1       1.819  -5.122   4.869  0.00  0.00    +0.232 C 
ATOM     18  O   UNL     1       2.597  -5.895   3.953  0.00  0.00    -0.488 OA
ATOM     19  N   UNL     1       9.025  -2.548  -1.343  0.00  0.00    -0.331 N 
ATOM     20  H   UNL     1       6.879  -3.922  -1.870  0.00  0.00    +0.151 HD
ATOM     21  H   UNL     1       8.804  -2.470  -2.284  0.00  0.00    +0.145 HD
ATOM     22  H   UNL     1       9.874  -2.213  -1.015  0.00  0.00    +0.145 HD
ENDROOT
BRANCH   1  25
ATOM     23  N   UNL     1       3.624  -0.652  -0.037  0.00  0.00    -0.239 N 
ATOM     24  C   UNL     1       3.786  -1.994  -0.052  0.00  0.00    +0.121 A 
ATOM     25  C   UNL     1       5.115  -2.248  -0.065  0.00  0.00    +0.031 A 
ATOM     26  C   UNL     1       5.788  -1.022  -0.059  0.00  0.00    +0.142 A 
ATOM     27  N   UNL     1       4.895  -0.065  -0.048  0.00  0.00    -0.174 NA
BRANCH  23  31
ATOM     28  C   UNL     1      -0.017   1.379   0.010  0.00  0.00    +0.000 A 
ATOM     29  C   UNL     1       1.170   2.089   0.002  0.00  0.00    +0.002 A 
ATOM     30  C   UNL     1       2.377   1.419  -0.013  0.00  0.00    +0.028 A 
ATOM     31  C   UNL     1       2.399   0.031  -0.021  0.00  0.00    +0.065 A 
ATOM     32  C   UNL     1       1.207  -0.680  -0.013  0.00  0.00    +0.028 A 
ATOM     33  C   UNL     1       0.002  -0.004   0.002  0.00  0.00    +0.002 A 
ENDBRANCH  23  31
ENDBRANCH   1  25
TORSDOF 2
