REMARK  Name = ZINC63708337
REMARK  11 active torsions:
REMARK  status: ('A' for Active; 'I' for Inactive)
REMARK    1  A    between atoms: C_1  and  C_2
REMARK    2  A    between atoms: C_2  and  C_3
REMARK    3  A    between atoms: C_3  and  C_5
REMARK    4  A    between atoms: C_3  and  S_15
REMARK    5  A    between atoms: N_7  and  C_8
REMARK    6  A    between atoms: S_15  and  C_16
REMARK    7  A    between atoms: C_28  and  C_30
REMARK    8  A    between atoms: C_30  and  C_31
REMARK    9  A    between atoms: C_31  and  C_32
REMARK   10  A    between atoms: C_33  and  C_39
REMARK   11  A    between atoms: C_36  and  C_38
REMARK                            x       y       z     vdW  Elec       q    Type
REMARK                         _______ _______ _______ _____ _____    ______ ____
ROOT
ATOM      1  C   UNL     1      -2.172   1.747  -1.688  0.00  0.00    +0.249 C 
ATOM      2  N   UNL     1      -2.782   2.366  -0.504  0.00  0.00    -0.356 N 
ATOM      3  C   UNL     1      -2.071   3.206   0.235  0.00  0.00    +0.048 A 
ATOM      4  C   UNL     1      -2.636   3.813   1.378  0.00  0.00    +0.026 A 
ATOM      5  C   UNL     1      -1.889   4.672   2.122  0.00  0.00    +0.002 A 
ATOM      6  C   UNL     1      -0.571   4.971   1.787  0.00  0.00    +0.001 A 
ATOM      7  C   UNL     1       0.032   4.419   0.698  0.00  0.00    +0.013 A 
ATOM      8  C   UNL     1      -0.682   3.523  -0.116  0.00  0.00    +0.038 A 
ATOM      9  C   UNL     1      -0.075   2.942  -1.246  0.00  0.00    +0.128 C 
ATOM     10  N   UNL     1      -0.787   2.071  -2.027  0.00  0.00    -0.204 N 
ATOM     11  N   UNL     1       0.074   1.669  -3.056  0.00  0.00    -0.249 N 
ATOM     12  C   UNL     1       1.246   2.309  -2.848  0.00  0.00    +0.090 C 
ATOM     13  N   UNL     1       1.147   3.056  -1.779  0.00  0.00    -0.332 N 
ATOM     14  H   UNL     1      -0.131   1.053  -3.776  0.00  0.00    +0.171 HD
ATOM     15  H   UNL     1      -3.699   2.162  -0.264  0.00  0.00    +0.162 HD
ATOM     16  H   UNL     1       1.858   3.613  -1.423  0.00  0.00    +0.168 HD
ENDROOT
BRANCH   1  17
ATOM     17  S   UNL     1      -2.275  -0.052  -1.476  0.00  0.00    -0.103 S 
BRANCH  17  18
ATOM     18  C   UNL     1      -1.163  -0.395  -0.085  0.00  0.00    +0.136 C 
BRANCH  18  19
ATOM     19  C   UNL     1      -1.788   0.103   1.193  0.00  0.00    +0.230 C 
ATOM     20  O   UNL     1      -2.994   0.210   1.276  0.00  0.00    -0.274 OA
ATOM     21  N   UNL     1      -1.009   0.428   2.243  0.00  0.00    -0.282 N 
ATOM     22  H   UNL     1      -0.051   0.277   2.202  0.00  0.00    +0.155 HD
BRANCH  21  23
ATOM     23  C   UNL     1      -1.580   0.986   3.393  0.00  0.00    +0.069 A 
ATOM     24  C   UNL     1      -2.855   0.606   3.791  0.00  0.00    +0.026 A 
ATOM     25  C   UNL     1      -3.416   1.157   4.927  0.00  0.00    +0.002 A 
ATOM     26  C   UNL     1      -2.711   2.088   5.668  0.00  0.00    +0.003 A 
ATOM     27  C   UNL     1      -1.441   2.470   5.275  0.00  0.00    +0.040 A 
ATOM     28  C   UNL     1      -0.870   1.918   4.143  0.00  0.00    +0.144 A 
ATOM     29  F   UNL     1       0.372   2.287   3.763  0.00  0.00    -0.204 F 
ENDBRANCH  21  23
ENDBRANCH  18  19
BRANCH  18  31
ATOM     30  C   UNL     1      -0.189  -2.388  -1.234  0.00  0.00    +0.005 C 
ATOM     31  C   UNL     1      -0.923  -1.902   0.018  0.00  0.00    +0.020 C 
ENDBRANCH  18  31
ENDBRANCH  17  18
ENDBRANCH   1  17
BRANCH  12  32
ATOM     32  C   UNL     1       2.474   2.181  -3.712  0.00  0.00    +0.075 C 
BRANCH  32  33
ATOM     33  C   UNL     1       2.434   3.238  -4.817  0.00  0.00    +0.042 C 
BRANCH  33  34
ATOM     34  C   UNL     1       3.662   3.110  -5.680  0.00  0.00    -0.021 C 
ATOM     35  C   UNL     1       3.794   2.444  -6.829  0.00  0.00    +0.061 C 
ATOM     36  N   UNL     1       5.051   2.561  -7.311  0.00  0.00    -0.159 NA
ATOM     37  N   UNL     1       5.806   3.242  -6.612  0.00  0.00    -0.180 NA
ATOM     38  C   UNL     1       5.036   3.714  -5.449  0.00  0.00    +0.153 C 
ATOM     39  C   UNL     1       5.646   3.187  -4.149  0.00  0.00    +0.039 C 
ATOM     40  C   UNL     1       2.690   1.667  -7.499  0.00  0.00    +0.067 C 
ENDBRANCH  33  34
ENDBRANCH  32  33
ENDBRANCH  12  32
TORSDOF 8
