REMARK  Name = ZINC23469522
REMARK  14 active torsions:
REMARK  status: ('A' for Active; 'I' for Inactive)
REMARK    1  A    between atoms: C_1  and  C_2
REMARK    2  A    between atoms: C_2  and  C_4
REMARK    3  A    between atoms: C_2  and  O_29
REMARK    4  A    between atoms: C_4  and  N_5
REMARK    5  A    between atoms: N_5  and  C_6
REMARK    6  A    between atoms: C_6  and  C_7
REMARK    7  A    between atoms: C_7  and  N_8
REMARK    8  A    between atoms: N_8  and  C_9
REMARK    9  A    between atoms: C_9  and  C_10
REMARK   10  A    between atoms: C_12  and  O_27
REMARK   11  A    between atoms: C_13  and  O_17
REMARK   12  A    between atoms: O_17  and  C_18
REMARK   13  A    between atoms: C_18  and  C_19
REMARK   14  A    between atoms: O_27  and  C_28
REMARK                            x       y       z     vdW  Elec       q    Type
REMARK                         _______ _______ _______ _____ _____    ______ ____
ROOT
ATOM      1  C   UNL     1       3.271  -6.431   4.636  0.00  0.00    -0.059 A 
ATOM      2  C   UNL     1       4.650  -6.538   4.621  0.00  0.00    +0.051 A 
ATOM      3  C   UNL     1       5.322  -6.997   5.742  0.00  0.00    +0.163 A 
ATOM      4  C   UNL     1       4.607  -7.349   6.883  0.00  0.00    +0.181 A 
ATOM      5  C   UNL     1       3.225  -7.239   6.892  0.00  0.00    +0.086 A 
ATOM      6  C   UNL     1       2.561  -6.775   5.771  0.00  0.00    +0.025 A 
ATOM      7 CL   UNL     1       2.329  -7.678   8.313  0.00  0.00    -0.080 Cl
ENDROOT
BRANCH   3   8
ATOM      8  O   UNL     1       6.678  -7.104   5.728  0.00  0.00    -0.491 OA
ATOM      9  C   UNL     1       7.345  -6.725   4.522  0.00  0.00    +0.277 C 
ENDBRANCH   3   8
BRANCH   1  10
ATOM     10  C   UNL     1       2.542  -5.931   3.415  0.00  0.00    -0.047 C 
BRANCH  10  11
ATOM     11  N   UNL     1       2.418  -4.469   3.483  0.00  0.00    +0.381 N 
ATOM     12  H   UNL     1       3.337  -4.054   3.519  0.00  0.00    -0.086 HD
ATOM     13  H   UNL     1       1.901  -4.214   4.311  0.00  0.00    -0.086 HD
BRANCH  11  14
ATOM     14  C   UNL     1       1.707  -3.982   2.293  0.00  0.00    -0.102 C 
BRANCH  14  15
ATOM     15  C   UNL     1       1.577  -2.460   2.364  0.00  0.00    -0.102 C 
BRANCH  15  16
ATOM     16  N   UNL     1       0.867  -1.973   1.174  0.00  0.00    +0.379 N 
ATOM     17  H   UNL     1      -0.052  -2.388   1.138  0.00  0.00    -0.086 HD
ATOM     18  H   UNL     1       1.384  -2.228   0.346  0.00  0.00    -0.086 HD
BRANCH  16  19
ATOM     19  C   UNL     1       0.742  -0.511   1.242  0.00  0.00    -0.051 C 
BRANCH  19  21
ATOM     20  C   UNL     1      -0.019   1.526   0.010  0.00  0.00    +0.035 C 
ATOM     21  C   UNL     1       0.002  -0.004   0.002  0.00  0.00    +0.095 C 
BRANCH  21  22
ATOM     22  O   UNL     1      -1.339  -0.499   0.012  0.00  0.00    -0.394 OA
ATOM     23  H   UNL     1      -1.853  -0.225   0.784  0.00  0.00    +0.210 HD
ENDBRANCH  21  22
ENDBRANCH  19  21
ENDBRANCH  16  19
ENDBRANCH  15  16
ENDBRANCH  14  15
ENDBRANCH  11  14
ENDBRANCH  10  11
ENDBRANCH   1  10
BRANCH   4  24
ATOM     24  O   UNL     1       5.262  -7.801   7.986  0.00  0.00    -0.482 OA
BRANCH  24  25
ATOM     25  C   UNL     1       5.674  -6.822   8.942  0.00  0.00    +0.266 C 
BRANCH  25  26
ATOM     26  C   UNL     1       6.378  -7.503  10.087  0.00  0.00    +0.008 A 
ATOM     27  C   UNL     1       6.539  -8.876  10.080  0.00  0.00    +0.010 A 
ATOM     28  C   UNL     1       7.185  -9.502  11.130  0.00  0.00    +0.020 A 
ATOM     29  C   UNL     1       7.672  -8.754  12.187  0.00  0.00    +0.042 A 
ATOM     30  C   UNL     1       7.512  -7.380  12.194  0.00  0.00    +0.040 A 
ATOM     31  C   UNL     1       6.869  -6.754  11.141  0.00  0.00    +0.049 A 
ATOM     32 CL   UNL     1       6.673  -5.029  11.146  0.00  0.00    -0.083 Cl
ATOM     33 CL   UNL     1       8.483  -9.540  13.506  0.00  0.00    -0.083 Cl
ENDBRANCH  25  26
ENDBRANCH  24  25
ENDBRANCH   4  24
TORSDOF 12
