REMARK  Name = ZINC14158754
REMARK  8 active torsions:
REMARK  status: ('A' for Active; 'I' for Inactive)
REMARK    1  A    between atoms: C_1  and  C_2
REMARK    2  A    between atoms: C_4  and  C_35
REMARK    3  A    between atoms: N_10  and  C_11
REMARK    4  A    between atoms: C_11  and  N_13
REMARK    5  A    between atoms: N_13  and  C_14
REMARK    6  A    between atoms: N_21  and  C_22
REMARK    7  A    between atoms: C_22  and  C_23
REMARK    8  A    between atoms: C_23  and  C_24
REMARK                            x       y       z     vdW  Elec       q    Type
REMARK                         _______ _______ _______ _____ _____    ______ ____
ROOT
ATOM      1  C   UNL     1      -5.780   1.429  -0.045  0.00  0.00    +0.066 C 
ATOM      2  C   UNL     1      -5.934   2.926   0.021  0.00  0.00    +0.044 A 
ATOM      3  C   UNL     1      -7.194   3.502   0.051  0.00  0.00    +0.046 A 
ATOM      4  C   UNL     1      -7.290   4.883   0.112  0.00  0.00    +0.044 A 
ATOM      5  N   UNL     1      -6.183   5.606   0.140  0.00  0.00    -0.217 NA
ATOM      6  C   UNL     1      -4.994   5.025   0.109  0.00  0.00    +0.231 A 
ATOM      7  N   UNL     1      -4.867   3.708   0.046  0.00  0.00    -0.217 NA
ATOM      8  N   UNL     1      -3.852   5.815   0.139  0.00  0.00    -0.297 N 
ATOM      9  C   UNL     1      -2.615   5.231   0.108  0.00  0.00    +0.195 C 
ATOM     10  N   UNL     1      -2.506   3.915   0.050  0.00  0.00    -0.159 NA
ATOM     11  N   UNL     1      -1.493   6.008   0.137  0.00  0.00    -0.357 N 
ATOM     12  C   UNL     1      -8.640   5.553   0.148  0.00  0.00    +0.066 C 
ATOM     13  H   UNL     1      -3.932   6.781   0.181  0.00  0.00    +0.171 HD
ATOM     14  H   UNL     1      -0.616   5.595   0.098  0.00  0.00    +0.162 HD
ENDROOT
BRANCH  10  15
ATOM     15  C   UNL     1      -1.299   3.337   0.135  0.00  0.00    +0.162 C 
ATOM     16  S   UNL     1      -0.381   3.478   1.573  0.00  0.00    -0.016 S 
BRANCH  15  17
ATOM     17  N   UNL     1      -0.808   2.646  -0.913  0.00  0.00    -0.294 N 
ATOM     18  H   UNL     1      -1.296   2.624  -1.751  0.00  0.00    +0.154 HD
BRANCH  17  19
ATOM     19  C   UNL     1       0.405   1.960  -0.792  0.00  0.00    +0.051 A 
ATOM     20  C   UNL     1       1.506   2.589  -0.226  0.00  0.00    +0.025 A 
ATOM     21  C   UNL     1       2.704   1.911  -0.113  0.00  0.00    +0.002 A 
ATOM     22  C   UNL     1       2.808   0.607  -0.563  0.00  0.00    +0.002 A 
ATOM     23  C   UNL     1       1.714  -0.023  -1.126  0.00  0.00    +0.022 A 
ATOM     24  C   UNL     1       0.512   0.650  -1.242  0.00  0.00    +0.062 A 
ATOM     25 CL   UNL     1      -0.861  -0.141  -1.951  0.00  0.00    -0.082 Cl
ENDBRANCH  17  19
ENDBRANCH  15  17
ENDBRANCH  10  15
BRANCH  11  26
ATOM     26  C   UNL     1      -1.613   7.465   0.227  0.00  0.00    +0.120 C 
BRANCH  26  27
ATOM     27  C   UNL     1      -0.217   8.092   0.242  0.00  0.00    +0.058 C 
BRANCH  27  28
ATOM     28  C   UNL     1      -0.340   9.591   0.335  0.00  0.00    -0.021 A 
ATOM     29  C   UNL     1      -0.330  10.457  -0.691  0.00  0.00    +0.087 A 
ATOM     30  N   UNL     1      -0.465  11.736  -0.222  0.00  0.00    -0.360 N 
ATOM     31  H   UNL     1      -0.485  12.533  -0.775  0.00  0.00    +0.165 HD
ATOM     32  C   UNL     1      -0.570  11.723   1.152  0.00  0.00    +0.047 A 
ATOM     33  C   UNL     1      -0.501  10.378   1.560  0.00  0.00    +0.006 A 
ATOM     34  C   UNL     1      -0.576  10.056   2.916  0.00  0.00    +0.048 A 
ATOM     35  C   UNL     1      -0.725  11.061   3.848  0.00  0.00    +0.124 A 
ATOM     36  C   UNL     1      -0.797  12.388   3.443  0.00  0.00    +0.040 A 
ATOM     37  C   UNL     1      -0.721  12.720   2.108  0.00  0.00    +0.029 A 
ATOM     38  F   UNL     1      -0.802  10.753   5.161  0.00  0.00    -0.205 F 
ENDBRANCH  27  28
ENDBRANCH  26  27
ENDBRANCH  11  26
TORSDOF 6
