REMARK  Name = ZINC57415947
REMARK  9 active torsions:
REMARK  status: ('A' for Active; 'I' for Inactive)
REMARK    1  A    between atoms: C_1  and  C_2
REMARK    2  A    between atoms: C_5  and  C_32
REMARK    3  A    between atoms: C_6  and  N_8
REMARK    4  A    between atoms: N_11  and  C_14
REMARK    5  A    between atoms: C_14  and  C_15
REMARK    6  A    between atoms: C_16  and  C_28
REMARK    7  A    between atoms: C_17  and  C_23
REMARK    8  A    between atoms: C_28  and  O_30
REMARK    9  A    between atoms: O_30  and  C_31
REMARK                            x       y       z     vdW  Elec       q    Type
REMARK                         _______ _______ _______ _____ _____    ______ ____
ROOT
ATOM      1  C   UNL     1      -0.942  -6.686   5.641  0.00  0.00    +0.038 C 
ATOM      2  C   UNL     1      -2.049  -7.353   5.248  0.00  0.00    +0.080 C 
ATOM      3  C   UNL     1      -3.210  -7.424   6.219  0.00  0.00    +0.150 C 
ATOM      4  N   UNL     1      -3.035  -6.755   7.519  0.00  0.00    -0.288 N 
ATOM      5  C   UNL     1      -1.868  -6.127   7.765  0.00  0.00    +0.304 C 
ATOM      6  O   UNL     1      -1.714  -5.572   8.835  0.00  0.00    -0.252 OA
ATOM      7  N   UNL     1      -0.871  -6.101   6.872  0.00  0.00    -0.271 N 
ATOM      8  H   UNL     1      -3.743  -6.765   8.182  0.00  0.00    +0.151 HD
ATOM      9  H   UNL     1      -0.054  -5.635   7.112  0.00  0.00    +0.156 HD
ENDROOT
BRANCH   3  10
ATOM     10  C   UNL     1      -3.508  -8.878   6.482  0.00  0.00    +0.015 A 
ATOM     11  C   UNL     1      -4.473  -9.663   5.944  0.00  0.00    +0.013 A 
ATOM     12  C   UNL     1      -4.559 -10.985   6.338  0.00  0.00    +0.008 A 
ATOM     13  C   UNL     1      -3.676 -11.457   7.251  0.00  0.00    +0.045 A 
ATOM     14  S   UNL     1      -2.675 -10.015   7.578  0.00  0.00    -0.099 S 
ENDBRANCH   3  10
BRANCH   2  15
ATOM     15  C   UNL     1      -2.121  -7.965   3.975  0.00  0.00    +0.339 C 
ATOM     16  O   UNL     1      -2.731  -7.422   3.073  0.00  0.00    -0.245 OA
BRANCH  15  17
ATOM     17  O   UNL     1      -1.514  -9.151   3.760  0.00  0.00    -0.465 OA
ATOM     18  C   UNL     1      -1.628  -9.710   2.451  0.00  0.00    +0.280 C 
ENDBRANCH  15  17
ENDBRANCH   2  15
BRANCH   1  19
ATOM     19  C   UNL     1       0.237  -6.591   4.706  0.00  0.00    +0.136 C 
BRANCH  19  23
ATOM     20  N   UNL     1       0.836  -2.930   2.744  0.00  0.00    -0.327 N 
ATOM     21  C   UNL     1       2.003  -3.531   3.408  0.00  0.00    +0.120 C 
ATOM     22  C   UNL     1       1.727  -5.024   3.618  0.00  0.00    +0.103 C 
ATOM     23  N   UNL     1       0.454  -5.188   4.333  0.00  0.00    -0.294 NA
ATOM     24  C   UNL     1      -0.671  -4.673   3.541  0.00  0.00    +0.103 C 
ATOM     25  C   UNL     1      -0.493  -3.161   3.330  0.00  0.00    +0.120 C 
BRANCH  20  31
ATOM     26  C   UNL     1       1.557   1.465   0.666  0.00  0.00    +0.044 C 
ATOM     27  C   UNL     1       1.337  -0.022   0.554  0.00  0.00    -0.049 A 
ATOM     28  C   UNL     1       1.284  -0.621  -0.691  0.00  0.00    +0.004 A 
ATOM     29  C   UNL     1       1.083  -1.984  -0.798  0.00  0.00    +0.005 A 
ATOM     30  C   UNL     1       0.933  -2.753   0.339  0.00  0.00    -0.029 A 
ATOM     31  C   UNL     1       0.986  -2.155   1.592  0.00  0.00    +0.033 A 
ATOM     32  C   UNL     1       1.194  -0.785   1.696  0.00  0.00    +0.026 A 
ATOM     33  C   UNL     1       0.713  -4.239   0.222  0.00  0.00    +0.045 C 
ENDBRANCH  20  31
ENDBRANCH  19  23
ENDBRANCH   1  19
TORSDOF 6
