REMARK  Name = ZINC17080563
REMARK  6 active torsions:
REMARK  status: ('A' for Active; 'I' for Inactive)
REMARK    1  A    between atoms: C_1  and  C_2
REMARK    2  A    between atoms: C_2  and  C_31
REMARK    3  A    between atoms: C_6  and  C_18
REMARK    4  A    between atoms: C_21  and  C_24
REMARK    5  A    between atoms: C_24  and  O_26
REMARK    6  A    between atoms: O_26  and  C_27
REMARK                            x       y       z     vdW  Elec       q    Type
REMARK                         _______ _______ _______ _____ _____    ______ ____
ROOT
ATOM      1  C   UNL     1      -0.054   1.009   2.510  0.00  0.00    +0.011 C 
ATOM      2  C   UNL     1      -0.735   1.582   1.265  0.00  0.00    -0.023 C 
ATOM      3  C   UNL     1      -2.190   1.107   1.204  0.00  0.00    +0.058 C 
ATOM      4  C   UNL     1      -2.845   1.635  -0.050  0.00  0.00    +0.017 C 
ATOM      5  C   UNL     1      -2.126   1.847  -1.172  0.00  0.00    +0.024 C 
ATOM      6  C   UNL     1      -2.775   2.371  -2.428  0.00  0.00    +0.092 C 
ATOM      7  C   UNL     1      -4.264   2.203  -2.385  0.00  0.00    +0.069 A 
ATOM      8  C   UNL     1      -5.019   2.277  -3.562  0.00  0.00    +0.259 A 
ATOM      9  O   UNL     1      -4.477   2.476  -4.637  0.00  0.00    -0.267 OA
ATOM     10  N   UNL     1      -6.358   2.125  -3.484  0.00  0.00    -0.295 N 
ATOM     11  H   UNL     1      -6.898   2.172  -4.289  0.00  0.00    +0.172 HD
ATOM     12  C   UNL     1      -6.952   1.905  -2.280  0.00  0.00    +0.195 A 
ATOM     13  N   UNL     1      -6.247   1.834  -1.170  0.00  0.00    -0.201 NA
ATOM     14  C   UNL     1      -4.917   1.975  -1.187  0.00  0.00    +0.136 A 
ATOM     15  N   UNL     1      -4.189   1.890  -0.017  0.00  0.00    -0.302 N 
ATOM     16  N   UNL     1      -8.312   1.755  -2.220  0.00  0.00    -0.329 N 
ATOM     17  C   UNL     1      -0.744   1.586  -1.207  0.00  0.00    +0.162 C 
ATOM     18  O   UNL     1      -0.130   1.769  -2.239  0.00  0.00    -0.292 OA
ATOM     19  C   UNL     1      -0.013   1.086   0.008  0.00  0.00    +0.086 C 
ATOM     20  C   UNL     1      -0.694   3.111   1.313  0.00  0.00    +0.011 C 
ATOM     21  H   UNL     1      -4.634   2.011   0.837  0.00  0.00    +0.153 HD
ATOM     22  H   UNL     1      -8.746   1.598  -1.367  0.00  0.00    +0.145 HD
ATOM     23  H   UNL     1      -8.841   1.806  -3.032  0.00  0.00    +0.145 HD
ENDROOT
BRANCH   6  24
ATOM     24  C   UNL     1      -2.447   3.834  -2.578  0.00  0.00    -0.035 A 
ATOM     25  C   UNL     1      -2.836   4.731  -1.599  0.00  0.00    +0.005 A 
ATOM     26  C   UNL     1      -2.535   6.071  -1.727  0.00  0.00    +0.015 A 
ATOM     27  C   UNL     1      -1.846   6.524  -2.854  0.00  0.00    +0.059 A 
ATOM     28  C   UNL     1      -1.462   5.614  -3.842  0.00  0.00    +0.015 A 
ATOM     29  C   UNL     1      -1.764   4.276  -3.698  0.00  0.00    +0.005 A 
BRANCH  27  30
ATOM     30  C   UNL     1      -1.526   7.958  -3.002  0.00  0.00    +0.339 C 
ATOM     31  O   UNL     1      -0.927   8.349  -3.984  0.00  0.00    -0.245 OA
BRANCH  30  32
ATOM     32  O   UNL     1      -1.898   8.833  -2.048  0.00  0.00    -0.464 OA
ATOM     33  C   UNL     1      -1.550  10.227  -2.259  0.00  0.00    +0.280 C 
ENDBRANCH  30  32
ENDBRANCH  27  30
ENDBRANCH   6  24
TORSDOF 3
