REMARK  Name = ZINC05437620
REMARK  8 active torsions:
REMARK  status: ('A' for Active; 'I' for Inactive)
REMARK    1  A    between atoms: C_1  and  C_2
REMARK    2  A    between atoms: C_4  and  C_7
REMARK    3  A    between atoms: C_7  and  O_33
REMARK    4  A    between atoms: C_11  and  O_28
REMARK    5  A    between atoms: C_14  and  O_15
REMARK    6  A    between atoms: C_22  and  O_26
REMARK    7  A    between atoms: O_26  and  C_27
REMARK    8  A    between atoms: C_29  and  O_32
REMARK                            x       y       z     vdW  Elec       q    Type
REMARK                         _______ _______ _______ _____ _____    ______ ____
ROOT
ATOM      1  C   UNL     1      -0.765   1.599  -1.225  0.00  0.00    +0.115 C 
ATOM      2  C   UNL     1      -0.565   3.110  -1.315  0.00  0.00    +0.080 C 
ATOM      3  C   UNL     1      -0.897   3.770  -0.001  0.00  0.00    +0.007 A 
ATOM      4  C   UNL     1      -0.970   3.071   1.178  0.00  0.00    +0.030 A 
ATOM      5  C   UNL     1      -1.275   3.739   2.372  0.00  0.00    +0.134 A 
ATOM      6  C   UNL     1      -1.512   5.111   2.375  0.00  0.00    +0.078 A 
ATOM      7  C   UNL     1      -1.441   5.828   1.164  0.00  0.00    +0.078 A 
ATOM      8  C   UNL     1      -1.134   5.151  -0.015  0.00  0.00    +0.132 A 
ATOM      9  C   UNL     1      -1.688   7.280   1.150  0.00  0.00    +0.198 C 
ATOM     10  O   UNL     1      -1.628   7.899   0.105  0.00  0.00    -0.286 OA
ATOM     11  C   UNL     1      -2.009   7.984   2.409  0.00  0.00    +0.037 A 
ATOM     12  C   UNL     1      -2.242   9.355   2.407  0.00  0.00    +0.012 A 
ATOM     13  C   UNL     1      -2.544  10.010   3.590  0.00  0.00    +0.004 A 
ATOM     14  C   UNL     1      -2.617   9.312   4.778  0.00  0.00    +0.046 A 
ATOM     15  C   UNL     1      -2.388   7.940   4.804  0.00  0.00    +0.132 A 
ATOM     16  C   UNL     1      -2.081   7.266   3.618  0.00  0.00    +0.075 A 
ATOM     17  C   UNL     1      -1.835   5.813   3.630  0.00  0.00    +0.202 C 
ATOM     18  O   UNL     1      -1.897   5.194   4.675  0.00  0.00    -0.286 OA
ATOM     19  C   UNL     1      -0.739   1.584   1.256  0.00  0.00    +0.152 C 
ATOM     20  C   UNL     1      -0.013   1.086   0.008  0.00  0.00    +0.077 C 
ENDROOT
BRANCH   1  24
ATOM     21  C   UNL     1       2.945   0.557  -4.415  0.00  0.00    +0.073 C 
ATOM     22  C   UNL     1       1.538   0.510  -3.877  0.00  0.00    +0.076 A 
ATOM     23  N   UNL     1       1.048   1.079  -2.800  0.00  0.00    -0.246 NA
ATOM     24  C   UNL     1      -0.218   0.940  -2.465  0.00  0.00    +0.081 A 
ATOM     25  C   UNL     1      -1.017   0.184  -3.261  0.00  0.00    +0.073 A 
ATOM     26  S   UNL     1       0.149  -0.307  -4.523  0.00  0.00    -0.080 S 
ENDBRANCH   1  24
BRANCH   8  27
ATOM     27  O   UNL     1      -1.063   5.833  -1.184  0.00  0.00    -0.506 OA
ATOM     28  H   UNL     1      -1.903   5.882  -1.662  0.00  0.00    +0.292 HD
ENDBRANCH   8  27
BRANCH  15  29
ATOM     29  O   UNL     1      -2.461   7.260   5.974  0.00  0.00    -0.494 OA
ATOM     30  C   UNL     1      -2.779   8.015   7.145  0.00  0.00    +0.277 C 
ENDBRANCH  15  29
BRANCH   5  31
ATOM     31  O   UNL     1      -1.342   3.042   3.534  0.00  0.00    -0.506 OA
ATOM     32  H   UNL     1      -0.501   2.987   4.008  0.00  0.00    +0.292 HD
ENDBRANCH   5  31
BRANCH  19  33
ATOM     33  O   UNL     1      -1.998   0.917   1.365  0.00  0.00    -0.387 OA
ATOM     34  H   UNL     1      -2.518   1.183   2.136  0.00  0.00    +0.210 HD
ENDBRANCH  19  33
BRANCH   1  35
ATOM     35  O   UNL     1      -2.158   1.304  -1.098  0.00  0.00    -0.382 OA
ATOM     36  H   UNL     1      -2.693   1.602  -1.845  0.00  0.00    +0.211 HD
ENDBRANCH   1  35
TORSDOF 6
