REMARK  Name = ZINC45061463
REMARK  6 active torsions:
REMARK  status: ('A' for Active; 'I' for Inactive)
REMARK    1  A    between atoms: C_1  and  C_2
REMARK    2  A    between atoms: C_2  and  N_3
REMARK    3  A    between atoms: N_3  and  C_4
REMARK    4  A    between atoms: C_4  and  C_5
REMARK    5  A    between atoms: N_6  and  O_7
REMARK    6  A    between atoms: N_11  and  C_12
REMARK                            x       y       z     vdW  Elec       q    Type
REMARK                         _______ _______ _______ _____ _____    ______ ____
ROOT
ATOM      1  N   UNL     1       0.688  -0.476  -1.203  0.00  0.00    -0.279 N 
ATOM      2  C   UNL     1      -0.013  -0.705  -2.332  0.00  0.00    +0.303 C 
ATOM      3  O   UNL     1       0.556  -1.097  -3.332  0.00  0.00    -0.253 OA
ATOM      4  N   UNL     1      -1.345  -0.498  -2.351  0.00  0.00    -0.294 N 
ATOM      5  H   UNL     1      -1.799  -0.185  -1.553  0.00  0.00    +0.151 HD
ENDROOT
BRANCH   4   6
ATOM      6  C   UNL     1      -2.107  -0.746  -3.578  0.00  0.00    +0.037 C 
ATOM      7  C   UNL     1      -1.577   0.152  -4.697  0.00  0.00    +0.029 C 
ATOM      8  C   UNL     1      -2.372  -0.106  -5.979  0.00  0.00    -0.008 C 
ATOM      9  C   UNL     1      -3.850   0.204  -5.732  0.00  0.00    +0.007 C 
ATOM     10  C   UNL     1      -4.380  -0.694  -4.613  0.00  0.00    -0.008 C 
ATOM     11  C   UNL     1      -3.584  -0.435  -3.332  0.00  0.00    +0.029 C 
ATOM     12  C   UNL     1      -4.228  -2.161  -5.020  0.00  0.00    +0.007 C 
ATOM     13  C   UNL     1      -2.750  -2.471  -5.266  0.00  0.00    -0.008 C 
ATOM     14  C   UNL     1      -2.220  -1.573  -6.386  0.00  0.00    +0.007 C 
ATOM     15  C   UNL     1      -1.954  -2.212  -3.985  0.00  0.00    +0.029 C 
ENDBRANCH   4   6
BRANCH   1  17
ATOM     16  C   UNL     1      -0.019   1.526   0.010  0.00  0.00    +0.024 C 
ATOM     17  C   UNL     1       0.002  -0.004   0.002  0.00  0.00    +0.106 C 
ENDBRANCH   1  17
BRANCH   1  18
ATOM     18  C   UNL     1       2.135  -0.701  -1.182  0.00  0.00    +0.183 C 
BRANCH  18  19
ATOM     19  C   UNL     1       2.417  -2.123  -0.770  0.00  0.00    +0.149 C 
ATOM     20  N   UNL     1       1.439  -2.924  -0.502  0.00  0.00    -0.075 NA
ATOM     21  N   UNL     1       3.717  -2.569  -0.678  0.00  0.00    -0.343 N 
ATOM     22  H   UNL     1       4.451  -1.968  -0.879  0.00  0.00    +0.144 HD
ATOM     23  H   UNL     1       3.898  -3.484  -0.413  0.00  0.00    +0.144 HD
BRANCH  20  24
ATOM     24  O   UNL     1       1.704  -4.260  -0.115  0.00  0.00    -0.408 OA
ATOM     25  H   UNL     1       0.910  -4.782   0.065  0.00  0.00    +0.328 HD
ENDBRANCH  20  24
ENDBRANCH  18  19
ENDBRANCH   1  18
TORSDOF 5
