REMARK  Name = ZINC39681098
REMARK  7 active torsions:
REMARK  status: ('A' for Active; 'I' for Inactive)
REMARK    1  A    between atoms: C_1  and  C_2
REMARK    2  A    between atoms: C_2  and  C_4
REMARK    3  A    between atoms: C_2  and  N_10
REMARK    4  A    between atoms: C_11  and  C_13
REMARK    5  A    between atoms: C_24  and  C_26
REMARK    6  A    between atoms: C_29  and  O_32
REMARK    7  A    between atoms: O_32  and  C_33
REMARK                            x       y       z     vdW  Elec       q    Type
REMARK                         _______ _______ _______ _____ _____    ______ ____
ROOT
ATOM      1  C   UNL     1       2.677  -1.594   3.315  0.00  0.00    +0.100 C 
ATOM      2  C   UNL     1       2.117  -3.034   3.348  0.00  0.00    +0.121 C 
ATOM      3  N   UNL     1       3.106  -3.838   2.591  0.00  0.00    -0.296 N 
ATOM      4  C   UNL     1       4.420  -3.285   3.000  0.00  0.00    +0.115 C 
ATOM      5  C   UNL     1       4.189  -1.763   3.090  0.00  0.00    -0.004 C 
ATOM      6  C   UNL     1       4.608  -1.089   1.787  0.00  0.00    -0.010 C 
ATOM      7  C   UNL     1       6.123  -1.222   1.613  0.00  0.00    -0.082 C 
ATOM      8  N   UNL     1       6.804  -0.596   2.753  0.00  0.00    +0.379 N 
ATOM      9  C   UNL     1       6.468  -1.308   3.991  0.00  0.00    -0.082 C 
ATOM     10  C   UNL     1       4.967  -1.180   4.265  0.00  0.00    -0.010 C 
ATOM     11  C   UNL     1       2.866  -4.844   1.728  0.00  0.00    +0.248 C 
ATOM     12  O   UNL     1       1.725  -5.099   1.394  0.00  0.00    -0.270 OA
ATOM     13  H   UNL     1       7.802  -0.630   2.607  0.00  0.00    -0.086 HD
ATOM     14  H   UNL     1       6.512   0.367   2.830  0.00  0.00    -0.086 HD
ENDROOT
BRANCH  11  15
ATOM     15  C   UNL     1       3.987  -5.636   1.186  0.00  0.00    +0.055 A 
ATOM     16  C   UNL     1       5.229  -5.649   1.839  0.00  0.00    +0.020 A 
ATOM     17  C   UNL     1       6.247  -6.405   1.294  0.00  0.00    +0.068 A 
ATOM     18  C   UNL     1       6.011  -7.123   0.126  0.00  0.00    +0.220 A 
ATOM     19  N   UNL     1       4.828  -7.090  -0.467  0.00  0.00    -0.220 NA
ATOM     20  C   UNL     1       3.827  -6.387   0.022  0.00  0.00    +0.127 A 
BRANCH  18  21
ATOM     21  O   UNL     1       7.007  -7.867  -0.413  0.00  0.00    -0.438 OA
BRANCH  21  22
ATOM     22  C   UNL     1       6.717  -8.632  -1.499  0.00  0.00    +0.130 A 
ATOM     23  C   UNL     1       6.633  -8.051  -2.756  0.00  0.00    +0.046 A 
ATOM     24  C   UNL     1       6.338  -8.830  -3.857  0.00  0.00    +0.004 A 
ATOM     25  C   UNL     1       6.125 -10.188  -3.708  0.00  0.00    +0.000 A 
ATOM     26  C   UNL     1       6.207 -10.770  -2.456  0.00  0.00    +0.004 A 
ATOM     27  C   UNL     1       6.508  -9.996  -1.352  0.00  0.00    +0.046 A 
ENDBRANCH  21  22
ENDBRANCH  18  21
ENDBRANCH  11  15
BRANCH   1  29
ATOM     28  N   UNL     1       1.948   0.523   2.264  0.00  0.00    -0.308 N 
ATOM     29  C   UNL     1       2.061  -0.818   2.180  0.00  0.00    +0.219 C 
ATOM     30  O   UNL     1       1.667  -1.399   1.191  0.00  0.00    -0.275 OA
ATOM     31  H   UNL     1       2.263   0.988   3.055  0.00  0.00    +0.149 HD
BRANCH  28  33
ATOM     32  C   UNL     1       2.419   1.581   0.110  0.00  0.00    +0.033 C 
ATOM     33  C   UNL     1       1.349   1.278   1.161  0.00  0.00    +0.100 C 
BRANCH  33  34
ATOM     34  C   UNL     1       0.781   2.571   1.687  0.00  0.00    -0.025 A 
ATOM     35  C   UNL     1       1.462   3.307   2.645  0.00  0.00    +0.025 A 
ATOM     36  C   UNL     1       0.910   4.488   3.104  0.00  0.00    +0.111 A 
ATOM     37  N   UNL     1      -0.249   4.916   2.641  0.00  0.00    -0.263 NA
ATOM     38  C   UNL     1      -0.923   4.242   1.730  0.00  0.00    +0.111 A 
ATOM     39  C   UNL     1      -0.431   3.056   1.220  0.00  0.00    +0.025 A 
ENDBRANCH  33  34
ENDBRANCH  28  33
ENDBRANCH   1  29
TORSDOF 6
