REMARK  Name = ZINC36586571
REMARK  10 active torsions:
REMARK  status: ('A' for Active; 'I' for Inactive)
REMARK    1  A    between atoms: C_1  and  C_2
REMARK    2  A    between atoms: C_2  and  C_3
REMARK    3  A    between atoms: C_2  and  C_4
REMARK    4  A    between atoms: C_2  and  N_5
REMARK    5  A    between atoms: N_5  and  C_6
REMARK    6  A    between atoms: C_6  and  C_8
REMARK    7  A    between atoms: C_6  and  C_17
REMARK    8  A    between atoms: N_19  and  C_20
REMARK    9  A    between atoms: C_26  and  C_28
REMARK   10  A    between atoms: C_31  and  O_34
REMARK                            x       y       z     vdW  Elec       q    Type
REMARK                         _______ _______ _______ _____ _____    ______ ____
ROOT
ATOM      1  C   UNL     1      -1.540  -0.821   1.586  0.00  0.00    +0.193 C 
ENDROOT
BRANCH   1   2
ATOM      2  C   UNL     1      -2.110   0.003   2.712  0.00  0.00    -0.014 A 
ATOM      3  C   UNL     1      -3.467  -0.032   2.974  0.00  0.00    +0.010 A 
ATOM      4  C   UNL     1      -3.994   0.722   4.006  0.00  0.00    +0.050 A 
ATOM      5  C   UNL     1      -3.163   1.515   4.780  0.00  0.00    +0.166 A 
ATOM      6  C   UNL     1      -1.796   1.551   4.516  0.00  0.00    +0.167 A 
ATOM      7  C   UNL     1      -1.274   0.788   3.483  0.00  0.00    +0.055 A 
ATOM      8  O   UNL     1      -1.201   2.397   5.406  0.00  0.00    -0.453 OA
ATOM      9  C   UNL     1      -2.270   3.191   5.954  0.00  0.00    +0.466 C 
ATOM     10  O   UNL     1      -3.424   2.339   5.836  0.00  0.00    -0.453 OA
ENDBRANCH   1   2
BRANCH   1  11
ATOM     11  C   UNL     1      -0.052  -0.964   1.772  0.00  0.00    +0.238 C 
ATOM     12  O   UNL     1       0.430  -2.055   1.994  0.00  0.00    -0.273 OA
ATOM     13  N   UNL     1       0.745   0.120   1.692  0.00  0.00    -0.311 N 
ATOM     14  H   UNL     1       0.360   0.992   1.514  0.00  0.00    +0.149 HD
BRANCH  13  15
ATOM     15  C   UNL     1       2.192  -0.019   1.872  0.00  0.00    +0.073 C 
ATOM     16  C   UNL     1       2.527   0.027   3.365  0.00  0.00    +0.022 C 
ATOM     17  C   UNL     1       4.038  -0.119   3.553  0.00  0.00    +0.002 C 
ATOM     18  C   UNL     1       4.754   1.026   2.834  0.00  0.00    +0.000 C 
ATOM     19  C   UNL     1       4.420   0.980   1.342  0.00  0.00    +0.002 C 
ATOM     20  C   UNL     1       2.908   1.125   1.153  0.00  0.00    +0.022 C 
ENDBRANCH  13  15
ENDBRANCH   1  11
BRANCH   1  21
ATOM     21  N   UNL     1      -2.163  -2.147   1.589  0.00  0.00    -0.277 N 
ATOM     22  C   UNL     1      -1.891  -3.018   2.581  0.00  0.00    +0.248 C 
ATOM     23  O   UNL     1      -1.034  -2.754   3.403  0.00  0.00    -0.270 OA
BRANCH  22  24
ATOM     24  C   UNL     1      -2.632  -4.291   2.670  0.00  0.00    +0.037 A 
ATOM     25  C   UNL     1      -3.128  -4.895   1.512  0.00  0.00    +0.016 A 
ATOM     26  C   UNL     1      -3.819  -6.083   1.600  0.00  0.00    +0.046 A 
ATOM     27  C   UNL     1      -4.024  -6.681   2.838  0.00  0.00    +0.117 A 
ATOM     28  C   UNL     1      -3.533  -6.082   3.992  0.00  0.00    +0.046 A 
ATOM     29  C   UNL     1      -2.836  -4.897   3.913  0.00  0.00    +0.016 A 
BRANCH  27  30
ATOM     30  O   UNL     1      -4.707  -7.851   2.920  0.00  0.00    -0.507 OA
ATOM     31  H   UNL     1      -4.148  -8.637   2.853  0.00  0.00    +0.292 HD
ENDBRANCH  27  30
ENDBRANCH  22  24
BRANCH  21  33
ATOM     32  C   UNL     1      -3.620  -1.267  -0.168  0.00  0.00    +0.031 C 
ATOM     33  C   UNL     1      -3.080  -2.528   0.512  0.00  0.00    +0.030 C 
ATOM     34  C   UNL     1      -4.245  -3.331   1.095  0.00  0.00    +0.031 C 
ATOM     35  C   UNL     1      -2.335  -3.382  -0.515  0.00  0.00    +0.031 C 
ENDBRANCH  21  33
ENDBRANCH   1  21
TORSDOF 7
