REMARK  Name = ZINC04729420
REMARK  6 active torsions:
REMARK  status: ('A' for Active; 'I' for Inactive)
REMARK    1  A    between atoms: C_1  and  C_2
REMARK    2  A    between atoms: C_2  and  C_26
REMARK    3  A    between atoms: C_7  and  N_8
REMARK    4  A    between atoms: N_8  and  C_9
REMARK    5  A    between atoms: C_12  and  N_15
REMARK    6  A    between atoms: N_16  and  C_17
REMARK                            x       y       z     vdW  Elec       q    Type
REMARK                         _______ _______ _______ _____ _____    ______ ____
ROOT
ATOM      1  C   UNL     1      -7.136   5.197   0.086  0.00  0.00    +0.031 A 
ATOM      2  C   UNL     1      -5.940   5.907   0.038  0.00  0.00    +0.025 A 
ATOM      3  C   UNL     1      -4.739   5.234   0.015  0.00  0.00    +0.031 A 
ATOM      4  C   UNL     1      -4.723   3.835   0.040  0.00  0.00    +0.086 A 
ATOM      5  C   UNL     1      -5.928   3.126   0.083  0.00  0.00    +0.031 A 
ATOM      6  C   UNL     1      -7.124   3.806   0.111  0.00  0.00    +0.025 A 
ENDROOT
BRANCH   1   7
ATOM      7  N   UNL     1      -8.350   5.883   0.109  0.00  0.00    -0.320 N 
ATOM      8  H   UNL     1      -9.185   5.392   0.047  0.00  0.00    +0.152 HD
BRANCH   7  15
ATOM      9  C   UNL     1     -13.096   9.798   2.076  0.00  0.00    +0.012 C 
ATOM     10  C   UNL     1     -12.035   9.248   1.121  0.00  0.00    -0.021 C 
ATOM     11  C   UNL     1     -10.689   9.916   1.417  0.00  0.00    +0.086 C 
ATOM     12  C   UNL     1      -9.650   9.370   0.459  0.00  0.00    +0.168 C 
ATOM     13  O   UNL     1      -8.919  10.102  -0.175  0.00  0.00    -0.292 OA
ATOM     14  C   UNL     1      -9.572   7.899   0.337  0.00  0.00    +0.073 C 
ATOM     15  C   UNL     1      -8.364   7.225   0.217  0.00  0.00    +0.087 C 
ATOM     16  C   UNL     1     -10.873   7.199   0.344  0.00  0.00    +0.168 C 
ATOM     17  O   UNL     1     -11.091   6.249  -0.378  0.00  0.00    -0.292 OA
ATOM     18  C   UNL     1     -11.919   7.733   1.308  0.00  0.00    +0.086 C 
ATOM     19  C   UNL     1     -12.445   9.550  -0.322  0.00  0.00    +0.012 C 
ENDBRANCH   7  15
ENDBRANCH   1   7
BRANCH   4  20
ATOM     20  N   UNL     1      -3.534   3.164   0.017  0.00  0.00    -0.149 NA
ATOM     21  N   UNL     1      -3.521   1.875   0.040  0.00  0.00    -0.149 NA
BRANCH  21  22
ATOM     22  C   UNL     1      -2.330   1.203   0.016  0.00  0.00    +0.086 A 
ATOM     23  C   UNL     1      -1.126   1.910  -0.027  0.00  0.00    +0.029 A 
ATOM     24  C   UNL     1       0.071   1.226  -0.055  0.00  0.00    +0.002 A 
ATOM     25  C   UNL     1       0.081  -0.158  -0.030  0.00  0.00    +0.000 A 
ATOM     26  C   UNL     1      -1.107  -0.865   0.018  0.00  0.00    +0.002 A 
ATOM     27  C   UNL     1      -2.312  -0.194   0.041  0.00  0.00    +0.029 A 
ENDBRANCH  21  22
ENDBRANCH   4  20
TORSDOF 4
