REMARK  Name = ZINC02492914
REMARK  5 active torsions:
REMARK  status: ('A' for Active; 'I' for Inactive)
REMARK    1  A    between atoms: C_1  and  C_2
REMARK    2  A    between atoms: C_14  and  C_17
REMARK    3  A    between atoms: C_20  and  N_23
REMARK    4  A    between atoms: N_23  and  C_24
REMARK    5  A    between atoms: N_23  and  C_25
REMARK                            x       y       z     vdW  Elec       q    Type
REMARK                         _______ _______ _______ _____ _____    ______ ____
ROOT
ATOM      1  C   UNL     1      -0.106   1.521  -0.044  0.00  0.00    +0.008 C 
ATOM      2  C   UNL     1      -0.070  -0.009  -0.043  0.00  0.00    -0.009 C 
ATOM      3  C   UNL     1      -1.500  -0.555  -0.019  0.00  0.00    +0.008 C 
ATOM      4  C   UNL     1      -1.484  -2.066  -0.265  0.00  0.00    +0.037 C 
ATOM      5  C   UNL     1      -0.509  -2.709   0.712  0.00  0.00    -0.023 A 
ATOM      6  C   UNL     1       0.433  -1.976   1.345  0.00  0.00    -0.004 A 
ATOM      7  S   UNL     1       1.308  -3.138   2.357  0.00  0.00    -0.078 S 
ATOM      8  C   UNL     1       0.474  -4.520   1.974  0.00  0.00    +0.080 A 
ATOM      9  C   UNL     1      -0.500  -4.123   1.046  0.00  0.00    +0.068 A 
ATOM     10  C   UNL     1      -1.400  -5.167   0.505  0.00  0.00    +0.248 C 
ATOM     11  O   UNL     1      -2.146  -4.939  -0.429  0.00  0.00    -0.270 OA
ATOM     12  N   UNL     1      -1.359  -6.383   1.091  0.00  0.00    -0.289 N 
ATOM     13  C   UNL     1      -0.604  -6.665   2.307  0.00  0.00    +0.190 C 
ATOM     14  N   UNL     1       0.600  -5.820   2.399  0.00  0.00    -0.316 N 
ATOM     15  C   UNL     1       0.675  -0.505   1.206  0.00  0.00    +0.046 C 
ATOM     16  H   UNL     1      -1.858  -7.107   0.682  0.00  0.00    +0.151 HD
ATOM     17  H   UNL     1       1.439  -6.165   2.743  0.00  0.00    +0.149 HD
ENDROOT
BRANCH  13  18
ATOM     18  C   UNL     1      -1.481  -6.404   3.504  0.00  0.00    -0.009 A 
ATOM     19  C   UNL     1      -0.917  -5.986   4.695  0.00  0.00    +0.009 A 
ATOM     20  C   UNL     1      -1.718  -5.746   5.794  0.00  0.00    +0.023 A 
ATOM     21  C   UNL     1      -3.092  -5.925   5.702  0.00  0.00    +0.029 A 
ATOM     22  C   UNL     1      -3.656  -6.346   4.504  0.00  0.00    +0.023 A 
ATOM     23  C   UNL     1      -2.850  -6.578   3.407  0.00  0.00    +0.009 A 
BRANCH  21  24
ATOM     24  N   UNL     1      -3.905  -5.684   6.812  0.00  0.00    -0.336 N 
ATOM     25  C   UNL     1      -3.301  -5.363   8.107  0.00  0.00    +0.129 C 
ATOM     26  C   UNL     1      -5.363  -5.751   6.681  0.00  0.00    +0.129 C 
ENDBRANCH  21  24
ENDBRANCH  13  18
TORSDOF 2
