REMARK  Name = ZINC04555308
REMARK  9 active torsions:
REMARK  status: ('A' for Active; 'I' for Inactive)
REMARK    1  A    between atoms: C_1  and  C_2
REMARK    2  A    between atoms: C_2  and  C_3
REMARK    3  A    between atoms: C_2  and  N_52
REMARK    4  A    between atoms: C_11  and  O_26
REMARK    5  A    between atoms: C_13  and  C_16
REMARK    6  A    between atoms: C_18  and  O_24
REMARK    7  A    between atoms: C_21  and  O_22
REMARK    8  A    between atoms: O_22  and  C_23
REMARK    9  A    between atoms: O_24  and  C_25
REMARK                            x       y       z     vdW  Elec       q    Type
REMARK                         _______ _______ _______ _____ _____    ______ ____
ROOT
ATOM      1  C   UNL     1      -1.356  -0.550   0.132  0.00  0.00    -0.073 C 
ATOM      2  C   UNL     1      -1.367  -2.032  -0.252  0.00  0.00    +0.018 C 
ATOM      3  C   UNL     1      -0.272  -2.737   0.543  0.00  0.00    -0.027 A 
ATOM      4  C   UNL     1       0.717  -2.013   1.119  0.00  0.00    -0.021 A 
ATOM      5  S   UNL     1       1.746  -3.210   1.924  0.00  0.00    -0.080 S 
ATOM      6  C   UNL     1       0.883  -4.628   1.505  0.00  0.00    +0.080 A 
ATOM      7  C   UNL     1      -0.198  -4.172   0.739  0.00  0.00    +0.067 A 
ATOM      8  C   UNL     1      -1.149  -5.194   0.231  0.00  0.00    +0.220 C 
ATOM      9  N   UNL     1      -0.808  -6.449   0.340  0.00  0.00    -0.223 NA
ATOM     10  C   UNL     1       0.479  -6.919   0.838  0.00  0.00    +0.227 C 
ATOM     11  N   UNL     1       1.080  -5.959   1.782  0.00  0.00    -0.313 N 
ATOM     12  C   UNL     1       0.878  -0.527   1.068  0.00  0.00    -0.035 C 
ATOM     13  H   UNL     1       1.587  -6.251   2.555  0.00  0.00    +0.149 HD
ATOM     14  N   UNL     1       0.012  -0.013  -0.021  0.00  0.00    +0.384 N 
ATOM     15  H   UNL     1       0.392  -0.321  -0.924  0.00  0.00    -0.081 HD
ENDROOT
BRANCH  10  16
ATOM     16  C   UNL     1       1.415  -7.116  -0.327  0.00  0.00    +0.040 A 
ATOM     17  C   UNL     1       2.768  -6.889  -0.171  0.00  0.00    +0.056 A 
ATOM     18  C   UNL     1       3.630  -7.070  -1.243  0.00  0.00    +0.121 A 
ATOM     19  C   UNL     1       3.132  -7.479  -2.471  0.00  0.00    +0.049 A 
ATOM     20  C   UNL     1       1.778  -7.707  -2.627  0.00  0.00    +0.049 A 
ATOM     21  C   UNL     1       0.917  -7.530  -1.554  0.00  0.00    +0.127 A 
BRANCH  21  22
ATOM     22  O   UNL     1      -0.414  -7.758  -1.706  0.00  0.00    -0.495 OA
ATOM     23  C   UNL     1      -0.857  -8.183  -2.996  0.00  0.00    +0.277 C 
ENDBRANCH  21  22
BRANCH  18  24
ATOM     24  O   UNL     1       4.962  -6.847  -1.090  0.00  0.00    -0.495 OA
ATOM     25  C   UNL     1       5.790  -7.053  -2.236  0.00  0.00    +0.277 C 
ENDBRANCH  18  24
ENDBRANCH  10  16
BRANCH  14  27
ATOM     26  C   UNL     1       1.417   1.994  -0.001  0.00  0.00    -0.014 C 
ATOM     27  C   UNL     1      -0.018   1.465   0.010  0.00  0.00    -0.074 C 
ATOM     28  C   UNL     1      -0.758   1.972  -1.229  0.00  0.00    -0.014 C 
ENDBRANCH  14  27
BRANCH   8  29
ATOM     29  O   UNL     1      -2.329  -4.836  -0.326  0.00  0.00    -0.492 OA
ATOM     30  H   UNL     1      -2.867  -5.583  -0.621  0.00  0.00    +0.294 HD
ENDBRANCH   8  29
TORSDOF 5
