REMARK  Name = ZINC04017210
REMARK  12 active torsions:
REMARK  status: ('A' for Active; 'I' for Inactive)
REMARK    1  A    between atoms: C_1  and  C_2
REMARK    2  A    between atoms: C_6  and  C_32
REMARK    3  A    between atoms: C_7  and  N_8
REMARK    4  A    between atoms: C_9  and  C_13
REMARK    5  A    between atoms: C_13  and  C_15
REMARK    6  A    between atoms: C_13  and  N_63
REMARK    7  A    between atoms: C_15  and  C_16
REMARK    8  A    between atoms: C_15  and  C_17
REMARK    9  A    between atoms: C_18  and  C_19
REMARK   10  A    between atoms: C_18  and  N_63
REMARK   11  A    between atoms: C_25  and  C_26
REMARK   12  A    between atoms: C_25  and  N_63
REMARK                            x       y       z     vdW  Elec       q    Type
REMARK                         _______ _______ _______ _____ _____    ______ ____
ROOT
ATOM      1  C   UNL     1       5.673  -0.786  -2.064  0.00  0.00    +0.006 C 
ENDROOT
BRANCH   1   3
ATOM      2  N   UNL     1       7.635   0.817  -2.362  0.00  0.00    -0.198 N 
ATOM      3  C   UNL     1       6.477   0.454  -1.769  0.00  0.00    +0.144 A 
ATOM      4  N   UNL     1       6.186   1.375  -0.888  0.00  0.00    -0.115 NA
ATOM      5  N   UNL     1       7.079   2.298  -0.887  0.00  0.00    -0.023 NA
ATOM      6  N   UNL     1       7.993   2.035  -1.758  0.00  0.00    -0.039 NA
BRANCH   2  13
ATOM      7  C   UNL     1      10.271  -0.094  -1.795  0.00  0.00    +0.046 C 
ATOM      8  C   UNL     1       9.617  -0.333  -3.132  0.00  0.00    -0.025 A 
ATOM      9  C   UNL     1      10.297  -1.016  -4.121  0.00  0.00    +0.005 A 
ATOM     10  C   UNL     1       9.700  -1.230  -5.350  0.00  0.00    +0.001 A 
ATOM     11  C   UNL     1       8.419  -0.767  -5.590  0.00  0.00    +0.005 A 
ATOM     12  C   UNL     1       7.733  -0.088  -4.602  0.00  0.00    -0.025 A 
ATOM     13  C   UNL     1       8.330   0.128  -3.368  0.00  0.00    +0.075 A 
ATOM     14  C   UNL     1       6.338   0.417  -4.864  0.00  0.00    +0.046 C 
ENDBRANCH   2  13
ENDBRANCH   1   3
BRANCH   1  15
ATOM     15  C   UNL     1       5.998  -1.863  -1.026  0.00  0.00    -0.024 C 
ATOM     16  C   UNL     1       5.197  -3.129  -1.338  0.00  0.00    +0.006 C 
ATOM     17  C   UNL     1       7.494  -2.181  -1.073  0.00  0.00    +0.006 C 
ENDBRANCH   1  15
BRANCH   1  18
ATOM     18  N   UNL     1       4.237  -0.439  -2.013  0.00  0.00    +0.392 N 
ATOM     19  H   UNL     1       4.122   0.544  -2.286  0.00  0.00    -0.080 HD
BRANCH  18  20
ATOM     20  C   UNL     1       3.722  -0.618  -0.639  0.00  0.00    -0.042 C 
BRANCH  20  21
ATOM     21  C   UNL     1       4.085   0.598   0.174  0.00  0.00    -0.064 A 
ATOM     22  C   UNL     1       3.334   1.753   0.061  0.00  0.00    +0.002 A 
ATOM     23  C   UNL     1       3.667   2.869   0.807  0.00  0.00    +0.000 A 
ATOM     24  C   UNL     1       4.750   2.829   1.665  0.00  0.00    +0.000 A 
ATOM     25  C   UNL     1       5.500   1.674   1.778  0.00  0.00    +0.000 A 
ATOM     26  C   UNL     1       5.168   0.558   1.032  0.00  0.00    +0.002 A 
ENDBRANCH  20  21
ENDBRANCH  18  20
BRANCH  18  27
ATOM     27  C   UNL     1       3.478  -1.291  -2.952  0.00  0.00    -0.042 C 
BRANCH  27  28
ATOM     28  C   UNL     1       2.162  -0.622  -3.254  0.00  0.00    -0.064 A 
ATOM     29  C   UNL     1       1.024  -0.988  -2.558  0.00  0.00    +0.002 A 
ATOM     30  C   UNL     1      -0.182  -0.370  -2.831  0.00  0.00    +0.000 A 
ATOM     31  C   UNL     1      -0.253   0.606  -3.808  0.00  0.00    +0.000 A 
ATOM     32  C   UNL     1       0.883   0.968  -4.507  0.00  0.00    +0.000 A 
ATOM     33  C   UNL     1       2.090   0.354  -4.230  0.00  0.00    +0.002 A 
ENDBRANCH  27  28
ENDBRANCH  18  27
ENDBRANCH   1  18
TORSDOF 8
