REMARK  Name = ZINC35341249
REMARK  4 active torsions:
REMARK  status: ('A' for Active; 'I' for Inactive)
REMARK    1  A    between atoms: C_1  and  C_2
REMARK    2  A    between atoms: C_8  and  N_10
REMARK    3  A    between atoms: N_10  and  C_11
REMARK    4  A    between atoms: C_16  and  N_17
REMARK                            x       y       z     vdW  Elec       q    Type
REMARK                         _______ _______ _______ _____ _____    ______ ____
ROOT
ATOM      1  C   UNL     1       2.822   0.133   2.435  0.00  0.00    +0.049 A 
ATOM      2  C   UNL     1       2.222  -0.217   3.635  0.00  0.00    +0.030 A 
ATOM      3  C   UNL     1       2.917  -0.082   4.822  0.00  0.00    -0.024 A 
ATOM      4  C   UNL     1       4.218   0.404   4.817  0.00  0.00    +0.038 A 
ATOM      5  C   UNL     1       4.824   0.755   3.618  0.00  0.00    +0.048 A 
ATOM      6  C   UNL     1       4.131   0.616   2.426  0.00  0.00    +0.047 A 
ATOM      7  N   UNL     1       4.918   0.539   6.023  0.00  0.00    -0.285 N 
ATOM      8  C   UNL     1       4.514  -0.122   7.123  0.00  0.00    +0.218 C 
ATOM      9  O   UNL     1       5.122   0.017   8.163  0.00  0.00    -0.275 OA
ATOM     10  C   UNL     1       3.316  -1.032   7.077  0.00  0.00    +0.101 C 
ATOM     11  C   UNL     1       2.264  -0.461   6.126  0.00  0.00    +0.046 C 
ATOM     12  H   UNL     1       5.698   1.114   6.065  0.00  0.00    +0.155 HD
ENDROOT
BRANCH   6  13
ATOM     13  N   UNL     1       4.741   0.964   1.215  0.00  0.00    -0.356 N 
ATOM     14  H   UNL     1       4.254   0.869   0.381  0.00  0.00    +0.142 HD
ATOM     15  H   UNL     1       5.652   1.299   1.210  0.00  0.00    +0.142 HD
ENDBRANCH   6  13
BRANCH   1  16
ATOM     16  N   UNL     1       2.116  -0.004   1.231  0.00  0.00    -0.339 N 
ATOM     17  H   UNL     1       2.538   0.237   0.392  0.00  0.00    +0.146 HD
BRANCH  16  24
ATOM     18  C   UNL     1      -0.019   1.526   0.010  0.00  0.00    +0.009 C 
ATOM     19  C   UNL     1       0.002  -0.004   0.002  0.00  0.00    +0.006 C 
ATOM     20  C   UNL     1      -1.433  -0.534   0.013  0.00  0.00    +0.005 C 
ATOM     21  C   UNL     1      -1.413  -2.063   0.004  0.00  0.00    +0.000 C 
ATOM     22  C   UNL     1      -0.673  -2.570   1.244  0.00  0.00    +0.002 C 
ATOM     23  C   UNL     1       0.763  -2.041   1.233  0.00  0.00    +0.022 C 
ATOM     24  C   UNL     1       0.742  -0.511   1.242  0.00  0.00    +0.073 C 
ENDBRANCH  16  24
ENDBRANCH   1  16
TORSDOF 3
