REMARK  Name = ZINC39557994
REMARK  8 active torsions:
REMARK  status: ('A' for Active; 'I' for Inactive)
REMARK    1  A    between atoms: C_1  and  C_2
REMARK    2  A    between atoms: C_4  and  C_23
REMARK    3  A    between atoms: C_9  and  C_22
REMARK    4  A    between atoms: N_10  and  C_11
REMARK    5  A    between atoms: C_11  and  C_12
REMARK    6  A    between atoms: C_12  and  C_13
REMARK    7  A    between atoms: N_25  and  C_26
REMARK    8  A    between atoms: C_26  and  C_27
REMARK                            x       y       z     vdW  Elec       q    Type
REMARK                         _______ _______ _______ _____ _____    ______ ____
ROOT
ATOM      1  C   UNL     1      -0.019   1.526   0.010  0.00  0.00    +0.029 C 
ATOM      2  C   UNL     1       0.002  -0.004   0.002  0.00  0.00    +0.089 C 
ATOM      3  C   UNL     1      -1.434  -0.541   0.029  0.00  0.00    +0.165 C 
ATOM      4  C   UNL     1      -2.038  -0.260   1.382  0.00  0.00    +0.171 C 
ATOM      5  O   UNL     1      -3.240  -0.124   1.490  0.00  0.00    -0.292 OA
ATOM      6  C   UNL     1      -1.222  -0.155   2.515  0.00  0.00    +0.065 C 
ATOM      7  C   UNL     1       0.123  -0.282   2.420  0.00  0.00    +0.007 C 
ATOM      8  N   UNL     1       0.699  -0.498   1.200  0.00  0.00    -0.329 N 
ATOM      9  C   UNL     1       0.981  -0.184   3.655  0.00  0.00    +0.060 C 
ENDROOT
BRANCH   3  10
ATOM     10  C   UNL     1      -1.421  -2.028  -0.221  0.00  0.00    +0.226 C 
ATOM     11  O   UNL     1      -0.369  -2.603  -0.403  0.00  0.00    -0.275 OA
ATOM     12  N   UNL     1      -2.579  -2.717  -0.242  0.00  0.00    -0.311 N 
ATOM     13  H   UNL     1      -3.421  -2.257  -0.097  0.00  0.00    +0.149 HD
BRANCH  12  14
ATOM     14  C   UNL     1      -2.567  -4.162  -0.485  0.00  0.00    +0.141 C 
BRANCH  14  15
ATOM     15  C   UNL     1      -3.979  -4.688  -0.458  0.00  0.00    -0.012 A 
ATOM     16  C   UNL     1      -4.463  -5.310   0.677  0.00  0.00    +0.006 A 
ATOM     17  C   UNL     1      -5.758  -5.793   0.702  0.00  0.00    +0.000 A 
ATOM     18  C   UNL     1      -6.570  -5.654  -0.408  0.00  0.00    +0.001 A 
ATOM     19  C   UNL     1      -6.086  -5.032  -1.544  0.00  0.00    +0.020 A 
ATOM     20  C   UNL     1      -4.792  -4.544  -1.568  0.00  0.00    +0.046 A 
ATOM     21 CL   UNL     1      -4.186  -3.757  -2.992  0.00  0.00    -0.083 Cl
ENDBRANCH  14  15
ENDBRANCH  12  14
ENDBRANCH   3  10
BRANCH   8  22
ATOM     22  C   UNL     1       1.978  -1.204   1.086  0.00  0.00    +0.110 C 
BRANCH  22  23
ATOM     23  C   UNL     1       3.126  -0.195   1.155  0.00  0.00    +0.056 C 
BRANCH  23  24
ATOM     24  C   UNL     1       4.441  -0.921   1.038  0.00  0.00    -0.021 A 
ATOM     25  C   UNL     1       5.115  -1.309  -0.203  0.00  0.00    +0.003 A 
ATOM     26  C   UNL     1       4.814  -1.160  -1.558  0.00  0.00    +0.010 A 
ATOM     27  C   UNL     1       5.674  -1.647  -2.502  0.00  0.00    +0.001 A 
ATOM     28  C   UNL     1       6.846  -2.288  -2.124  0.00  0.00    +0.002 A 
ATOM     29  C   UNL     1       7.163  -2.445  -0.792  0.00  0.00    +0.026 A 
ATOM     30  C   UNL     1       6.301  -1.957   0.185  0.00  0.00    +0.047 A 
ATOM     31  N   UNL     1       6.333  -1.956   1.562  0.00  0.00    -0.360 N 
ATOM     32  C   UNL     1       5.220  -1.330   2.052  0.00  0.00    +0.087 A 
ATOM     33  H   UNL     1       7.041  -2.339   2.103  0.00  0.00    +0.165 HD
ENDBRANCH  23  24
ENDBRANCH  22  23
ENDBRANCH   8  22
TORSDOF 6
