REMARK  Name = ZINC36494486
REMARK  15 active torsions:
REMARK  status: ('A' for Active; 'I' for Inactive)
REMARK    1  A    between atoms: C_1  and  C_2
REMARK    2  A    between atoms: C_2  and  C_3
REMARK    3  A    between atoms: C_2  and  C_4
REMARK    4  A    between atoms: C_2  and  C_5
REMARK    5  A    between atoms: C_5  and  C_6
REMARK    6  A    between atoms: C_6  and  C_7
REMARK    7  A    between atoms: C_6  and  C_8
REMARK    8  A    between atoms: C_6  and  N_9
REMARK    9  A    between atoms: C_10  and  C_12
REMARK   10  A    between atoms: C_12  and  C_14
REMARK   11  A    between atoms: C_12  and  N_24
REMARK   12  A    between atoms: C_16  and  N_21
REMARK   13  A    between atoms: N_24  and  C_25
REMARK   14  A    between atoms: C_25  and  C_26
REMARK   15  A    between atoms: C_31  and  C_33
REMARK                            x       y       z     vdW  Elec       q    Type
REMARK                         _______ _______ _______ _____ _____    ______ ____
ROOT
ATOM      1  C   UNL     1       5.090   0.426  -4.079  0.00  0.00    +0.194 C 
ENDROOT
BRANCH   1   2
ATOM      2  C   UNL     1       5.446  -0.917  -4.663  0.00  0.00    +0.002 A 
ATOM      3  C   UNL     1       6.635  -1.529  -4.314  0.00  0.00    +0.040 A 
ATOM      4  C   UNL     1       6.962  -2.760  -4.851  0.00  0.00    +0.127 A 
ATOM      5  C   UNL     1       6.101  -3.380  -5.737  0.00  0.00    +0.034 A 
ATOM      6  C   UNL     1       4.912  -2.768  -6.087  0.00  0.00    +0.022 A 
ATOM      7  C   UNL     1       4.581  -1.539  -5.545  0.00  0.00    +0.047 A 
ATOM      8 CL   UNL     1       3.084  -0.773  -5.979  0.00  0.00    -0.083 Cl
BRANCH   4   9
ATOM      9  N   UNL     1       8.236  -3.416  -4.476  0.00  0.00    +0.056 N 
ATOM     10  O   UNL     1       9.030  -2.836  -3.774  0.00  0.00    -0.126 OA
ATOM     11  O   UNL     1       8.480  -4.531  -4.873  0.00  0.00    -0.126 OA
ENDBRANCH   4   9
ENDBRANCH   1   2
BRANCH   1  13
ATOM     12  N   UNL     1       3.261  -0.483  -2.683  0.00  0.00    -0.308 N 
ATOM     13  C   UNL     1       4.403   0.230  -2.752  0.00  0.00    +0.239 C 
ATOM     14  O   UNL     1       4.878   0.713  -1.746  0.00  0.00    -0.273 OA
ATOM     15  H   UNL     1       2.911  -0.916  -3.477  0.00  0.00    +0.149 HD
BRANCH  12  16
ATOM     16  C   UNL     1       2.548  -0.603  -1.409  0.00  0.00    +0.030 C 
ATOM     17  C   UNL     1       2.453   0.773  -0.746  0.00  0.00    +0.031 C 
ATOM     18  C   UNL     1       3.307  -1.561  -0.488  0.00  0.00    +0.031 C 
BRANCH  16  19
ATOM     19  C   UNL     1       1.140  -1.146  -1.662  0.00  0.00    +0.031 C 
BRANCH  19  21
ATOM     20  C   UNL     1       1.036  -1.046  -4.156  0.00  0.00    +0.010 C 
ATOM     21  C   UNL     1       0.521  -0.420  -2.858  0.00  0.00    -0.036 C 
ATOM     22  C   UNL     1       0.910   1.058  -2.815  0.00  0.00    +0.010 C 
ATOM     23  C   UNL     1      -1.003  -0.549  -2.799  0.00  0.00    +0.010 C 
ENDBRANCH  19  21
ENDBRANCH  16  19
ENDBRANCH  12  16
ENDBRANCH   1  13
BRANCH   1  24
ATOM     24  N   UNL     1       6.310   1.213  -3.885  0.00  0.00    -0.278 N 
ATOM     25  C   UNL     1       7.174   0.887  -2.903  0.00  0.00    +0.220 C 
ATOM     26  O   UNL     1       6.896   0.005  -2.119  0.00  0.00    -0.275 OA
BRANCH  25  27
ATOM     27  C   UNL     1       8.485   1.620  -2.779  0.00  0.00    +0.075 C 
ATOM     28  C   UNL     1       9.372   1.284  -3.979  0.00  0.00    +0.013 C 
ATOM     29  C   UNL     1      10.703   2.028  -3.854  0.00  0.00    +0.001 C 
ATOM     30  C   UNL     1      11.407   1.599  -2.564  0.00  0.00    +0.000 C 
ATOM     31  C   UNL     1      10.520   1.935  -1.364  0.00  0.00    +0.001 C 
ATOM     32  C   UNL     1       9.189   1.191  -1.490  0.00  0.00    +0.013 C 
ENDBRANCH  25  27
BRANCH  24  33
ATOM     33  C   UNL     1       6.591   2.355  -4.759  0.00  0.00    +0.183 C 
BRANCH  33  34
ATOM     34  C   UNL     1       5.632   3.474  -4.447  0.00  0.00    +0.122 A 
ATOM     35  C   UNL     1       5.789   4.400  -3.485  0.00  0.00    +0.046 A 
ATOM     36  C   UNL     1       4.660   5.250  -3.545  0.00  0.00    +0.041 A 
ATOM     37  C   UNL     1       3.881   4.792  -4.542  0.00  0.00    +0.195 A 
ATOM     38  O   UNL     1       4.477   3.720  -5.088  0.00  0.00    -0.466 OA
ENDBRANCH  33  34
ENDBRANCH  24  33
ENDBRANCH   1  24
TORSDOF 10
