REMARK  Name = ZINC02403689
REMARK  7 active torsions:
REMARK  status: ('A' for Active; 'I' for Inactive)
REMARK    1  A    between atoms: C_1  and  C_2
REMARK    2  A    between atoms: C_2  and  C_3
REMARK    3  A    between atoms: C_2  and  C_4
REMARK    4  A    between atoms: C_7  and  C_10
REMARK    5  A    between atoms: C_10  and  C_12
REMARK    6  A    between atoms: C_12  and  C_13
REMARK    7  A    between atoms: C_13  and  O_25
REMARK                            x       y       z     vdW  Elec       q    Type
REMARK                         _______ _______ _______ _____ _____    ______ ____
ROOT
ATOM      1  C   UNL     1       2.244   4.211   0.003  0.00  0.00    +0.177 C 
ATOM      2  C   UNL     1       1.153   3.164   0.008  0.00  0.00    +0.033 A 
ATOM      3  C   UNL     1      -0.052   3.856   0.023  0.00  0.00    +0.043 A 
ATOM      4  C   UNL     1      -1.244   3.134   0.031  0.00  0.00    +0.043 A 
ATOM      5  C   UNL     1      -1.219   1.753   0.017  0.00  0.00    +0.044 A 
ATOM      6  C   UNL     1      -0.013   1.076   0.008  0.00  0.00    +0.040 A 
ATOM      7  C   UNL     1       1.176   1.787   0.000  0.00  0.00    +0.051 A 
ATOM      8 CL   UNL     1       2.693   0.943  -0.019  0.00  0.00    -0.083 Cl
ATOM      9 CL   UNL     1      -2.709   0.863   0.019  0.00  0.00    -0.083 Cl
ATOM     10  N   UNL     1       0.181   5.231   0.029  0.00  0.00    -0.282 N 
ATOM     11  C   UNL     1       1.492   5.525   0.018  0.00  0.00    +0.254 C 
ATOM     12  O   UNL     1       1.982   6.635   0.019  0.00  0.00    -0.272 OA
ATOM     13  H   UNL     1      -0.522   5.899   0.039  0.00  0.00    +0.155 HD
ENDROOT
BRANCH   1  14
ATOM     14  O   UNL     1       3.038   4.101  -1.179  0.00  0.00    -0.374 OA
ATOM     15  H   UNL     1       3.753   4.749  -1.234  0.00  0.00    +0.211 HD
ENDBRANCH   1  14
BRANCH   1  16
ATOM     16  C   UNL     1       3.120   4.077   1.250  0.00  0.00    +0.129 C 
BRANCH  16  17
ATOM     17  C   UNL     1       4.120   5.204   1.284  0.00  0.00    +0.167 C 
ATOM     18  O   UNL     1       4.131   6.032   0.398  0.00  0.00    -0.292 OA
BRANCH  17  22
ATOM     19  C   UNL     1       6.898   5.478   4.478  0.00  0.00    -0.045 A 
ATOM     20  C   UNL     1       6.914   6.426   3.469  0.00  0.00    +0.004 A 
ATOM     21  C   UNL     1       6.014   6.343   2.427  0.00  0.00    +0.011 A 
ATOM     22  C   UNL     1       5.084   5.299   2.392  0.00  0.00    +0.018 A 
ATOM     23  C   UNL     1       5.071   4.349   3.419  0.00  0.00    +0.011 A 
ATOM     24  C   UNL     1       5.981   4.442   4.450  0.00  0.00    +0.004 A 
BRANCH  19  26
ATOM     25  C   UNL     1       7.129   5.712   6.936  0.00  0.00    +0.012 C 
ATOM     26  C   UNL     1       7.885   5.576   5.612  0.00  0.00    +0.013 C 
ATOM     27  C   UNL     1       8.749   4.314   5.647  0.00  0.00    +0.012 C 
ENDBRANCH  19  26
ENDBRANCH  17  22
ENDBRANCH  16  17
ENDBRANCH   1  16
TORSDOF 5
