REMARK  Name = ZINC39664756
REMARK  9 active torsions:
REMARK  status: ('A' for Active; 'I' for Inactive)
REMARK    1  A    between atoms: C_1  and  N_2
REMARK    2  A    between atoms: C_6  and  C_7
REMARK    3  A    between atoms: C_11  and  C_20
REMARK    4  A    between atoms: N_22  and  C_23
REMARK    5  A    between atoms: C_23  and  C_25
REMARK    6  A    between atoms: C_23  and  C_29
REMARK    7  A    between atoms: C_25  and  N_26
REMARK    8  A    between atoms: N_26  and  C_27
REMARK    9  A    between atoms: N_26  and  C_28
REMARK                            x       y       z     vdW  Elec       q    Type
REMARK                         _______ _______ _______ _____ _____    ______ ____
ROOT
ATOM      1  C   UNL     1       0.049  -0.414   1.150  0.00  0.00    +0.263 C 
ATOM      2  O   UNL     1       0.178  -1.402   1.849  0.00  0.00    -0.268 OA
ATOM      3  N   UNL     1      -0.052   0.804   1.717  0.00  0.00    -0.295 N 
ATOM      4  C   UNL     1      -0.356   2.094   1.052  0.00  0.00    +0.121 C 
ATOM      5  C   UNL     1      -1.286   2.832   2.040  0.00  0.00    +0.100 C 
ATOM      6  C   UNL     1      -0.970   2.216   3.412  0.00  0.00    -0.004 C 
ATOM      7  C   UNL     1       0.110   1.157   3.147  0.00  0.00    +0.115 C 
ATOM      8  C   UNL     1      -2.216   1.555   3.994  0.00  0.00    -0.010 C 
ATOM      9  C   UNL     1      -1.891   0.999   5.384  0.00  0.00    -0.082 C 
ATOM     10  N   UNL     1      -1.439   2.090   6.256  0.00  0.00    +0.379 N 
ATOM     11  C   UNL     1      -0.189   2.659   5.738  0.00  0.00    -0.082 C 
ATOM     12  C   UNL     1      -0.442   3.285   4.364  0.00  0.00    -0.010 C 
ATOM     13  H   UNL     1      -2.147   2.808   6.288  0.00  0.00    -0.086 HD
ATOM     14  H   UNL     1      -1.284   1.732   7.186  0.00  0.00    -0.086 HD
ENDROOT
BRANCH   1  20
ATOM     15  C   UNL     1      -0.087  -3.074  -0.433  0.00  0.00    +0.149 C 
ATOM     16  N   UNL     1      -0.058  -1.730  -1.016  0.00  0.00    -0.346 N 
ATOM     17  C   UNL     1      -0.091  -1.442  -2.340  0.00  0.00    +0.086 A 
ATOM     18  C   UNL     1      -0.048  -0.097  -2.497  0.00  0.00    +0.020 A 
ATOM     19  C   UNL     1       0.015   0.481  -1.225  0.00  0.00    +0.032 A 
ATOM     20  C   UNL     1       0.003  -0.550  -0.310  0.00  0.00    +0.104 A 
ENDBRANCH   1  20
BRANCH   5  21
ATOM     21  C   UNL     1      -2.730   2.598   1.676  0.00  0.00    +0.219 C 
ATOM     22  O   UNL     1      -3.505   3.530   1.640  0.00  0.00    -0.275 OA
ATOM     23  N   UNL     1      -3.160   1.353   1.392  0.00  0.00    -0.310 N 
ATOM     24  H   UNL     1      -2.560   0.597   1.496  0.00  0.00    +0.149 HD
BRANCH  23  25
ATOM     25  C   UNL     1      -4.532   1.140   0.926  0.00  0.00    +0.087 C 
BRANCH  25  26
ATOM     26  C   UNL     1      -4.977  -0.253   1.294  0.00  0.00    -0.029 A 
ATOM     27  C   UNL     1      -4.095  -1.312   1.184  0.00  0.00    +0.005 A 
ATOM     28  C   UNL     1      -4.503  -2.588   1.521  0.00  0.00    +0.000 A 
ATOM     29  C   UNL     1      -5.793  -2.807   1.968  0.00  0.00    +0.000 A 
ATOM     30  C   UNL     1      -6.675  -1.748   2.079  0.00  0.00    +0.000 A 
ATOM     31  C   UNL     1      -6.265  -0.470   1.746  0.00  0.00    +0.005 A 
ENDBRANCH  25  26
BRANCH  25  32
ATOM     32  C   UNL     1      -4.588   1.308  -0.593  0.00  0.00    -0.052 C 
BRANCH  32  33
ATOM     33  N   UNL     1      -5.975   1.157  -1.053  0.00  0.00    +0.377 N 
ATOM     34  C   UNL     1      -6.783   2.274  -0.546  0.00  0.00    -0.097 C 
ATOM     35  C   UNL     1      -6.007   1.156  -2.521  0.00  0.00    -0.097 C 
ATOM     36  H   UNL     1      -6.350   0.287  -0.707  0.00  0.00    -0.083 HD
ENDBRANCH  32  33
ENDBRANCH  25  32
ENDBRANCH  23  25
ENDBRANCH   5  21
TORSDOF 6
