REMARK  Name = ZINC02225936
REMARK  1 active torsions:
REMARK  status: ('A' for Active; 'I' for Inactive)
REMARK    1  A    between atoms: C_5  and  N_7
REMARK                            x       y       z     vdW  Elec       q    Type
REMARK                         _______ _______ _______ _____ _____    ______ ____
ROOT
ATOM      1  N   UNL     1       1.236  -2.083  -0.021  0.00  0.00    -0.209 N 
ATOM      2  C   UNL     1       1.253  -2.813   1.100  0.00  0.00    +0.228 C 
ATOM      3  O   UNL     1       1.251  -2.366   2.227  0.00  0.00    -0.275 OA
ATOM      4  C   UNL     1       1.275  -4.282   0.742  0.00  0.00    +0.074 C 
ATOM      5  C   UNL     1      -0.055  -4.931   1.167  0.00  0.00    -0.054 C 
ATOM      6  C   UNL     1      -0.677  -4.111   2.312  0.00  0.00    -0.016 C 
ATOM      7  C   UNL     1      -1.588  -3.073   1.627  0.00  0.00    -0.020 C 
ATOM      8  C   UNL     1      -1.424  -3.329   0.115  0.00  0.00    -0.076 C 
ATOM      9  N   UNL     1      -0.967  -4.760  -0.004  0.00  0.00    +0.395 N 
ATOM     10  C   UNL     1      -0.095  -4.916  -1.179  0.00  0.00    +0.053 C 
ATOM     11  C   UNL     1       1.263  -4.273  -0.811  0.00  0.00    +0.089 C 
ATOM     12  C   UNL     1       1.236  -2.800  -1.151  0.00  0.00    +0.229 C 
ATOM     13  O   UNL     1       1.219  -2.340  -2.273  0.00  0.00    -0.275 OA
ATOM     14  C   UNL     1       0.072  -6.362  -1.554  0.00  0.00    -0.026 A 
ATOM     15  C   UNL     1       0.560  -7.464  -0.887  0.00  0.00    +0.004 A 
ATOM     16  C   UNL     1       0.586  -8.698  -1.512  0.00  0.00    +0.002 A 
ATOM     17  C   UNL     1       0.121  -8.822  -2.809  0.00  0.00    +0.022 A 
ATOM     18  C   UNL     1      -0.368  -7.721  -3.482  0.00  0.00    +0.062 A 
ATOM     19  C   UNL     1      -0.398  -6.475  -2.858  0.00  0.00    +0.054 A 
ATOM     20  N   UNL     1      -0.839  -5.233  -3.322  0.00  0.00    -0.285 N 
ATOM     21  C   UNL     1      -0.695  -4.265  -2.396  0.00  0.00    +0.212 C 
ATOM     22  O   UNL     1      -0.992  -3.096  -2.520  0.00  0.00    -0.277 OA
ATOM     23 CL   UNL     1      -0.947  -7.888  -5.110  0.00  0.00    -0.082 Cl
ATOM     24  H   UNL     1      -1.206  -5.084  -4.208  0.00  0.00    +0.155 HD
ATOM     25  H   UNL     1      -1.735  -5.415   0.005  0.00  0.00    -0.079 HD
ENDROOT
BRANCH   1  30
ATOM     26  C   UNL     1      -0.017   1.377   0.010  0.00  0.00    +0.002 A 
ATOM     27  C   UNL     1       1.170   2.087   0.002  0.00  0.00    +0.002 A 
ATOM     28  C   UNL     1       2.380   1.417  -0.013  0.00  0.00    +0.022 A 
ATOM     29  C   UNL     1       2.405   0.034  -0.021  0.00  0.00    +0.063 A 
ATOM     30  C   UNL     1       1.214  -0.681  -0.013  0.00  0.00    +0.062 A 
ATOM     31  C   UNL     1       0.002  -0.004   0.002  0.00  0.00    +0.025 A 
ATOM     32 CL   UNL     1       3.924  -0.807  -0.041  0.00  0.00    -0.082 Cl
ENDBRANCH   1  30
TORSDOF 1
