REMARK  Name = ZINC66309895
REMARK  6 active torsions:
REMARK  status: ('A' for Active; 'I' for Inactive)
REMARK    1  A    between atoms: C_1  and  C_2
REMARK    2  A    between atoms: C_4  and  C_7
REMARK    3  A    between atoms: N_9  and  C_10
REMARK    4  A    between atoms: C_10  and  C_11
REMARK    5  A    between atoms: C_11  and  C_13
REMARK    6  A    between atoms: C_11  and  C_18
REMARK                            x       y       z     vdW  Elec       q    Type
REMARK                         _______ _______ _______ _____ _____    ______ ____
ROOT
ATOM      1  C   UNL     1      -5.573  -2.995   0.011  0.00  0.00    +0.075 C 
ENDROOT
BRANCH   1   2
ATOM      2  C   UNL     1      -6.681  -4.009   0.135  0.00  0.00    -0.013 A 
ATOM      3  C   UNL     1      -6.943  -5.013  -0.716  0.00  0.00    +0.088 A 
ATOM      4  N   UNL     1      -8.025  -5.726  -0.277  0.00  0.00    -0.360 N 
ATOM      5  H   UNL     1      -8.403  -6.499  -0.726  0.00  0.00    +0.165 HD
ATOM      6  C   UNL     1      -8.499  -5.184   0.896  0.00  0.00    +0.047 A 
ATOM      7  C   UNL     1      -7.673  -4.088   1.210  0.00  0.00    +0.003 A 
ATOM      8  C   UNL     1      -7.916  -3.341   2.363  0.00  0.00    +0.010 A 
ATOM      9  C   UNL     1      -8.953  -3.680   3.186  0.00  0.00    +0.001 A 
ATOM     10  C   UNL     1      -9.767  -4.763   2.884  0.00  0.00    +0.002 A 
ATOM     11  C   UNL     1      -9.551  -5.508   1.746  0.00  0.00    +0.026 A 
ENDBRANCH   1   2
BRANCH   1  12
ATOM     12  C   UNL     1      -5.739  -2.222  -1.272  0.00  0.00    -0.001 A 
ATOM     13  C   UNL     1      -5.910  -0.889  -1.449  0.00  0.00    +0.012 A 
ATOM     14  C   UNL     1      -6.043  -0.395  -2.733  0.00  0.00    +0.008 A 
ATOM     15  C   UNL     1      -5.998  -1.259  -3.777  0.00  0.00    +0.045 A 
ATOM     16  S   UNL     1      -5.756  -2.823  -2.953  0.00  0.00    -0.101 S 
ENDBRANCH   1  12
BRANCH   1  17
ATOM     17  C   UNL     1      -4.223  -3.715   0.001  0.00  0.00    +0.118 C 
BRANCH  17  20
ATOM     18  C   UNL     1      -1.857  -3.132  -0.007  0.00  0.00    +0.263 C 
ATOM     19  O   UNL     1      -1.594  -4.319  -0.015  0.00  0.00    -0.269 OA
ATOM     20  N   UNL     1      -3.142  -2.726   0.001  0.00  0.00    -0.309 N 
ATOM     21  H   UNL     1      -3.351  -1.779   0.007  0.00  0.00    +0.149 HD
BRANCH  18  25
ATOM     22  C   UNL     1      -0.018   1.503   0.010  0.00  0.00    +0.073 C 
ATOM     23  C   UNL     1       0.002  -0.004   0.002  0.00  0.00    +0.076 A 
ATOM     24  N   UNL     1      -1.014  -0.823   0.002  0.00  0.00    -0.240 NA
ATOM     25  C   UNL     1      -0.770  -2.137  -0.007  0.00  0.00    +0.133 A 
ATOM     26  C   UNL     1       0.548  -2.505  -0.015  0.00  0.00    +0.080 A 
ATOM     27  S   UNL     1       1.337  -1.022  -0.017  0.00  0.00    -0.080 S 
ENDBRANCH  18  25
ENDBRANCH  17  20
ENDBRANCH   1  17
TORSDOF 5
