REMARK  Name = ZINC15981607
REMARK  6 active torsions:
REMARK  status: ('A' for Active; 'I' for Inactive)
REMARK    1  A    between atoms: C_1  and  N_2
REMARK    2  A    between atoms: N_4  and  N_15
REMARK    3  A    between atoms: C_5  and  C_8
REMARK    4  A    between atoms: C_16  and  C_17
REMARK    5  A    between atoms: C_21  and  O_24
REMARK    6  A    between atoms: C_22  and  O_23
REMARK                            x       y       z     vdW  Elec       q    Type
REMARK                         _______ _______ _______ _____ _____    ______ ____
ROOT
ATOM      1  C   UNL     1      -1.281  -2.773  -0.088  0.00  0.00    +0.173 C 
ATOM      2  N   UNL     1      -1.132  -1.315  -0.081  0.00  0.00    -0.263 NA
ATOM      3  C   UNL     1      -2.191  -0.550   0.001  0.00  0.00    +0.189 A 
ATOM      4  N   UNL     1      -2.272   0.828   0.023  0.00  0.00    -0.208 N 
ATOM      5  C   UNL     1      -3.508   1.409   0.120  0.00  0.00    +0.082 A 
ATOM      6  C   UNL     1      -4.608   0.630   0.180  0.00  0.00    +0.077 A 
ATOM      7  S   UNL     1      -3.912  -1.012   0.113  0.00  0.00    -0.056 S 
ENDROOT
BRANCH   5   8
ATOM      8  C   UNL     1      -3.638   2.882   0.153  0.00  0.00    +0.002 A 
ATOM      9  C   UNL     1      -4.643   3.480   0.913  0.00  0.00    +0.010 A 
ATOM     10  C   UNL     1      -4.756   4.855   0.944  0.00  0.00    +0.002 A 
ATOM     11  C   UNL     1      -3.881   5.640   0.214  0.00  0.00    +0.015 A 
ATOM     12  C   UNL     1      -2.884   5.053  -0.546  0.00  0.00    +0.019 A 
ATOM     13  C   UNL     1      -2.758   3.679  -0.581  0.00  0.00    +0.025 A 
ATOM     14 BR   UNL     1      -1.694   6.136  -1.540  0.00  0.00    -0.050 Br
ENDBRANCH   5   8
BRANCH   4  15
ATOM     15  N   UNL     1      -1.114   1.615  -0.047  0.00  0.00    -0.172 NA
ATOM     16  C   UNL     1      -0.040   1.142  -0.604  0.00  0.00    +0.145 C 
BRANCH  16  17
ATOM     17  C   UNL     1       1.214   1.915  -0.559  0.00  0.00    +0.040 A 
ATOM     18  C   UNL     1       2.393   1.369  -1.073  0.00  0.00    +0.013 A 
ATOM     19  C   UNL     1       3.563   2.097  -1.036  0.00  0.00    +0.004 A 
ATOM     20  C   UNL     1       3.580   3.365  -0.480  0.00  0.00    +0.049 A 
ATOM     21  C   UNL     1       2.419   3.917   0.039  0.00  0.00    +0.159 A 
ATOM     22  C   UNL     1       1.231   3.197   0.002  0.00  0.00    +0.167 A 
BRANCH  22  23
ATOM     23  O   UNL     1       0.090   3.735   0.509  0.00  0.00    -0.503 OA
ATOM     24  H   UNL     1      -0.015   3.608   1.462  0.00  0.00    +0.292 HD
ENDBRANCH  22  23
BRANCH  21  25
ATOM     25  O   UNL     1       2.442   5.163   0.583  0.00  0.00    -0.503 OA
ATOM     26  H   UNL     1       2.636   5.175   1.530  0.00  0.00    +0.292 HD
ENDBRANCH  21  25
ENDBRANCH  16  17
ENDBRANCH   4  15
TORSDOF 5
