REMARK  Name = ZINC09092255
REMARK  7 active torsions:
REMARK  status: ('A' for Active; 'I' for Inactive)
REMARK    1  A    between atoms: C_1  and  C_2
REMARK    2  A    between atoms: C_2  and  C_4
REMARK    3  A    between atoms: C_2  and  S_11
REMARK    4  A    between atoms: N_9  and  C_10
REMARK    5  A    between atoms: S_11  and  C_12
REMARK    6  A    between atoms: C_15  and  C_18
REMARK    7  A    between atoms: N_16  and  N_17
REMARK                            x       y       z     vdW  Elec       q    Type
REMARK                         _______ _______ _______ _____ _____    ______ ____
ROOT
ATOM      1  C   UNL     1      -0.183  -0.154   2.809  0.00  0.00    +0.209 A 
ATOM      2  N   UNL     1      -1.220   0.649   2.733  0.00  0.00    -0.121 NA
ATOM      3  N   UNL     1      -1.668   0.904   3.911  0.00  0.00    -0.127 NA
ATOM      4  C   UNL     1      -0.945   0.280   4.811  0.00  0.00    +0.183 A 
ATOM      5  N   UNL     1       0.025  -0.422   4.132  0.00  0.00    -0.224 N 
ENDROOT
BRANCH   4   6
ATOM      6  C   UNL     1      -1.139   0.318   6.275  0.00  0.00    +0.035 A 
ATOM      7  C   UNL     1      -0.052   0.545   7.121  0.00  0.00    +0.013 A 
ATOM      8  C   UNL     1      -0.240   0.580   8.487  0.00  0.00    +0.001 A 
ATOM      9  C   UNL     1      -1.503   0.392   9.020  0.00  0.00    +0.001 A 
ATOM     10  C   UNL     1      -2.585   0.167   8.189  0.00  0.00    +0.016 A 
ATOM     11  C   UNL     1      -2.412   0.134   6.819  0.00  0.00    +0.029 A 
ATOM     12 BR   UNL     1      -3.894  -0.166   5.683  0.00  0.00    -0.050 Br
ENDBRANCH   4   6
BRANCH   5  13
ATOM     13  N   UNL     1       0.996  -1.219   4.670  0.00  0.00    -0.295 N 
ATOM     14  H   UNL     1       1.797  -0.673   4.951  0.00  0.00    +0.163 HD
ATOM     15  H   UNL     1       0.635  -1.756   5.445  0.00  0.00    +0.163 HD
ENDBRANCH   5  13
BRANCH   1  16
ATOM     16  S   UNL     1       0.759  -0.776   1.456  0.00  0.00    -0.072 S 
BRANCH  16  18
ATOM     17  C   UNL     1       0.142   1.475   0.031  0.00  0.00    +0.029 C 
ATOM     18  C   UNL     1      -0.033  -0.044  -0.002  0.00  0.00    +0.137 C 
BRANCH  18  19
ATOM     19  C   UNL     1       0.606  -0.596  -1.251  0.00  0.00    +0.234 C 
ATOM     20  O   UNL     1       1.707  -1.101  -1.196  0.00  0.00    -0.274 OA
ATOM     21  N   UNL     1      -0.047  -0.529  -2.428  0.00  0.00    -0.239 N 
ATOM     22  C   UNL     1       0.524  -1.023  -3.544  0.00  0.00    +0.306 C 
ATOM     23  O   UNL     1       1.628  -1.529  -3.490  0.00  0.00    -0.252 OA
ATOM     24  N   UNL     1      -0.129  -0.956  -4.722  0.00  0.00    -0.302 N 
ATOM     25  C   UNL     1       0.492  -1.492  -5.935  0.00  0.00    +0.129 C 
ATOM     26  H   UNL     1      -0.928  -0.126  -2.472  0.00  0.00    +0.159 HD
ATOM     27  H   UNL     1      -1.010  -0.552  -4.765  0.00  0.00    +0.150 HD
ENDBRANCH  18  19
ENDBRANCH  16  18
ENDBRANCH   1  16
TORSDOF 5
