REMARK  Name = ZINC39531091
REMARK  15 active torsions:
REMARK  status: ('A' for Active; 'I' for Inactive)
REMARK    1  A    between atoms: C_1  and  C_2
REMARK    2  A    between atoms: C_2  and  O_3
REMARK    3  A    between atoms: O_3  and  C_4
REMARK    4  A    between atoms: C_8  and  C_11
REMARK    5  A    between atoms: C_9  and  O_10
REMARK    6  A    between atoms: C_11  and  N_12
REMARK    7  A    between atoms: N_15  and  C_22
REMARK    8  A    between atoms: C_16  and  C_19
REMARK    9  A    between atoms: C_19  and  C_20
REMARK   10  A    between atoms: C_20  and  O_21
REMARK   11  A    between atoms: C_22  and  C_23
REMARK   12  A    between atoms: C_25  and  O_31
REMARK   13  A    between atoms: C_27  and  O_29
REMARK   14  A    between atoms: O_29  and  C_30
REMARK   15  A    between atoms: O_31  and  C_32
REMARK                            x       y       z     vdW  Elec       q    Type
REMARK                         _______ _______ _______ _____ _____    ______ ____
ROOT
ATOM      1  N   UNL     1       3.678  -4.026  -3.725  0.00  0.00    +0.384 N 
ATOM      2  C   UNL     1       4.040  -2.613  -3.546  0.00  0.00    -0.063 C 
ATOM      3  C   UNL     1       5.549  -2.497  -3.322  0.00  0.00    +0.066 C 
ATOM      4  N   UNL     1       6.258  -3.060  -4.481  0.00  0.00    -0.299 NA
ATOM      5  C   UNL     1       5.887  -4.467  -4.687  0.00  0.00    +0.043 C 
ATOM      6  C   UNL     1       4.375  -4.567  -4.899  0.00  0.00    -0.059 C 
ATOM      7  H   UNL     1       3.948  -4.548  -2.904  0.00  0.00    -0.081 HD
ENDROOT
BRANCH   1   8
ATOM      8  C   UNL     1       2.227  -4.138  -3.921  0.00  0.00    -0.039 C 
BRANCH   8  13
ATOM      9  C   UNL     1       0.798  -4.171  -0.416  0.00  0.00    +0.162 A 
ATOM     10  C   UNL     1       0.203  -2.922  -0.354  0.00  0.00    +0.049 A 
ATOM     11  C   UNL     1       0.264  -2.072  -1.443  0.00  0.00    +0.004 A 
ATOM     12  C   UNL     1       0.919  -2.466  -2.595  0.00  0.00    +0.005 A 
ATOM     13  C   UNL     1       1.515  -3.712  -2.664  0.00  0.00    -0.019 A 
ATOM     14  C   UNL     1       1.462  -4.566  -1.574  0.00  0.00    +0.160 A 
BRANCH  14  15
ATOM     15  O   UNL     1       2.053  -5.789  -1.637  0.00  0.00    -0.503 OA
ATOM     16  H   UNL     1       1.499  -6.473  -2.037  0.00  0.00    +0.292 HD
ENDBRANCH  14  15
BRANCH   9  17
ATOM     17  O   UNL     1       0.739  -5.008   0.654  0.00  0.00    -0.489 OA
BRANCH  17  19
ATOM     18  C   UNL     1       0.081  -5.607   2.901  0.00  0.00    +0.048 C 
ATOM     19  C   UNL     1       0.042  -4.536   1.809  0.00  0.00    +0.226 C 
ENDBRANCH  17  19
ENDBRANCH   9  17
ENDBRANCH   8  13
ENDBRANCH   1   8
BRANCH   5  20
ATOM     20  C   UNL     1       6.613  -5.011  -5.919  0.00  0.00    +0.045 C 
BRANCH  20  21
ATOM     21  C   UNL     1       6.279  -6.494  -6.094  0.00  0.00    +0.157 C 
BRANCH  21  22
ATOM     22  O   UNL     1       7.050  -7.032  -7.170  0.00  0.00    -0.395 OA
ATOM     23  H   UNL     1       6.889  -7.970  -7.339  0.00  0.00    +0.209 HD
ENDBRANCH  21  22
ENDBRANCH  20  21
ENDBRANCH   5  20
BRANCH   4  24
ATOM     24  C   UNL     1       7.712  -2.916  -4.329  0.00  0.00    +0.120 C 
BRANCH  24  25
ATOM     25  C   UNL     1       8.090  -1.464  -4.474  0.00  0.00    -0.026 A 
ATOM     26  C   UNL     1       8.396  -0.952  -5.720  0.00  0.00    +0.050 A 
ATOM     27  C   UNL     1       8.745   0.384  -5.856  0.00  0.00    +0.124 A 
ATOM     28  C   UNL     1       8.787   1.206  -4.740  0.00  0.00    +0.091 A 
ATOM     29  C   UNL     1       8.479   0.690  -3.490  0.00  0.00    +0.124 A 
ATOM     30  C   UNL     1       8.126  -0.646  -3.361  0.00  0.00    +0.050 A 
BRANCH  29  31
ATOM     31  O   UNL     1       8.519   1.492  -2.394  0.00  0.00    -0.495 OA
ATOM     32  C   UNL     1       8.886   2.857  -2.603  0.00  0.00    +0.277 C 
ENDBRANCH  29  31
BRANCH  27  33
ATOM     33  O   UNL     1       9.047   0.887  -7.082  0.00  0.00    -0.495 OA
ATOM     34  C   UNL     1       9.397   2.271  -7.147  0.00  0.00    +0.277 C 
ENDBRANCH  27  33
ENDBRANCH  24  25
ENDBRANCH   4  24
TORSDOF 12
