REMARK  Name = ZINC11854872
REMARK  9 active torsions:
REMARK  status: ('A' for Active; 'I' for Inactive)
REMARK    1  A    between atoms: C_1  and  C_2
REMARK    2  A    between atoms: C_2  and  C_3
REMARK    3  A    between atoms: C_3  and  C_4
REMARK    4  A    between atoms: C_4  and  C_5
REMARK    5  A    between atoms: C_8  and  C_11
REMARK    6  A    between atoms: N_13  and  C_14
REMARK    7  A    between atoms: C_16  and  C_29
REMARK    8  A    between atoms: C_24  and  C_28
REMARK    9  A    between atoms: C_25  and  C_27
REMARK                            x       y       z     vdW  Elec       q    Type
REMARK                         _______ _______ _______ _____ _____    ______ ____
ROOT
ATOM      1  C   UNL     1       2.297   6.891   0.018  0.00  0.00    +0.132 A 
ATOM      2  C   UNL     1       2.267   5.534   0.011  0.00  0.00    +0.074 A 
ATOM      3  C   UNL     1       0.915   5.132   0.021  0.00  0.00    +0.102 A 
ATOM      4  N   UNL     1       0.164   6.215   0.029  0.00  0.00    -0.162 NA
ATOM      5  N   UNL     1       1.005   7.334   0.033  0.00  0.00    -0.185 N 
ATOM      6  C   UNL     1       0.600   8.655   0.044  0.00  0.00    +0.234 A 
ATOM      7  N   UNL     1      -0.728   8.945   0.059  0.00  0.00    -0.291 N 
ATOM      8  H   UNL     1      -1.383   8.229   0.061  0.00  0.00    +0.172 HD
ATOM      9  C   UNL     1      -1.133  10.233   0.070  0.00  0.00    +0.256 A 
ATOM     10  O   UNL     1      -2.321  10.512   0.084  0.00  0.00    -0.267 OA
ATOM     11  C   UNL     1      -0.158  11.248   0.067  0.00  0.00    +0.035 A 
ATOM     12  C   UNL     1       1.160  10.895   0.052  0.00  0.00    +0.050 A 
ATOM     13  N   UNL     1       1.506   9.608   0.046  0.00  0.00    -0.217 NA
ATOM     14  C   UNL     1       2.225  11.960   0.048  0.00  0.00    +0.066 C 
ATOM     15  C   UNL     1      -0.561  12.700   0.079  0.00  0.00    +0.051 C 
ENDROOT
BRANCH   3  16
ATOM     16  C   UNL     1       0.425   3.737   0.018  0.00  0.00    +0.039 A 
ATOM     17  C   UNL     1      -0.864   3.276   0.028  0.00  0.00    +0.018 A 
ATOM     18  C   UNL     1      -1.080   1.915   0.017  0.00  0.00    +0.008 A 
ATOM     19  C   UNL     1      -0.013   1.076   0.008  0.00  0.00    +0.046 A 
ATOM     20  S   UNL     1       1.360   2.217   0.001  0.00  0.00    -0.095 S 
ENDBRANCH   3  16
BRANCH   1  23
ATOM     21  C   UNL     1       4.660   7.116  -0.004  0.00  0.00    +0.221 C 
ATOM     22  O   UNL     1       4.764   5.908  -0.012  0.00  0.00    -0.275 OA
ATOM     23  N   UNL     1       3.440   7.688   0.012  0.00  0.00    -0.270 N 
ATOM     24  H   UNL     1       3.357   8.654   0.018  0.00  0.00    +0.156 HD
BRANCH  21  28
ATOM     25  C   UNL     1       7.115   7.102  -2.527  0.00  0.00    -0.011 C 
ATOM     26  C   UNL     1       7.122   6.211  -1.283  0.00  0.00    +0.004 C 
ATOM     27  C   UNL     1       7.140   7.087  -0.029  0.00  0.00    +0.013 C 
ATOM     28  C   UNL     1       5.896   7.978  -0.011  0.00  0.00    +0.075 C 
ATOM     29  C   UNL     1       5.890   8.869  -1.255  0.00  0.00    +0.013 C 
ATOM     30  C   UNL     1       5.872   7.993  -2.509  0.00  0.00    +0.004 C 
BRANCH  25  31
ATOM     31  C   UNL     1       7.097   6.226  -3.781  0.00  0.00    +0.003 C 
BRANCH  31  32
ATOM     32  C   UNL     1       7.216   7.112  -5.024  0.00  0.00    +0.000 C 
BRANCH  32  34
ATOM     33  C   UNL     1       7.317   7.122  -7.520  0.00  0.00    +0.004 C 
ATOM     34  C   UNL     1       7.198   6.236  -6.278  0.00  0.00    -0.003 C 
ENDBRANCH  32  34
ENDBRANCH  31  32
ENDBRANCH  25  31
ENDBRANCH  21  28
ENDBRANCH   1  23
TORSDOF 6
