REMARK  Name = ZINC03817234
REMARK  11 active torsions:
REMARK  status: ('A' for Active; 'I' for Inactive)
REMARK    1  A    between atoms: C_1  and  C_2
REMARK    2  A    between atoms: C_5  and  C_38
REMARK    3  A    between atoms: N_6  and  C_7
REMARK    4  A    between atoms: N_16  and  C_17
REMARK    5  A    between atoms: C_17  and  C_18
REMARK    6  A    between atoms: C_18  and  C_19
REMARK    7  A    between atoms: C_19  and  C_21
REMARK    8  A    between atoms: C_19  and  N_27
REMARK    9  A    between atoms: C_28  and  C_30
REMARK   10  A    between atoms: C_38  and  C_39
REMARK   11  A    between atoms: C_38  and  C_40
REMARK                            x       y       z     vdW  Elec       q    Type
REMARK                         _______ _______ _______ _____ _____    ______ ____
ROOT
ATOM      1  C   UNL     1       0.217   3.808   5.500  0.00  0.00    +0.008 C 
ENDROOT
BRANCH   1   2
ATOM      2  C   UNL     1      -0.757   2.628   5.491  0.00  0.00    -0.076 C 
BRANCH   2  10
ATOM      3  C   UNL     1      -0.187  -0.408   2.489  0.00  0.00    +0.087 C 
ATOM      4  C   UNL     1      -1.559   0.231   2.722  0.00  0.00    +0.010 C 
ATOM      5  C   UNL     1      -1.612   0.788   4.154  0.00  0.00    -0.066 C 
ATOM      6  C   UNL     1      -1.100  -0.315   5.108  0.00  0.00    -0.017 C 
ATOM      7  C   UNL     1       0.427  -0.104   5.174  0.00  0.00    -0.017 C 
ATOM      8  C   UNL     1       0.699   1.108   4.253  0.00  0.00    -0.066 C 
ATOM      9  C   UNL     1       0.917   0.601   2.818  0.00  0.00    +0.010 C 
ATOM     10  N   UNL     1      -0.595   1.869   4.244  0.00  0.00    +0.384 N 
ATOM     11  H   UNL     1      -0.655   2.481   3.444  0.00  0.00    -0.081 HD
BRANCH   3  17
ATOM     12  C   UNL     1       0.299  -3.319   1.445  0.00  0.00    +0.088 C 
ATOM     13  C   UNL     1       0.139  -2.070   0.617  0.00  0.00    +0.131 A 
ATOM     14  N   UNL     1       0.171  -1.996  -0.686  0.00  0.00    -0.135 NA
ATOM     15  N   UNL     1      -0.001  -0.777  -1.055  0.00  0.00    -0.134 NA
ATOM     16  C   UNL     1      -0.151  -0.017  -0.005  0.00  0.00    +0.136 A 
ATOM     17  N   UNL     1      -0.072  -0.817   1.086  0.00  0.00    -0.312 N 
BRANCH  16  18
ATOM     18  C   UNL     1      -0.376   1.473  -0.005  0.00  0.00    +0.051 C 
ATOM     19  C   UNL     1       0.806   2.168  -0.685  0.00  0.00    +0.015 C 
ATOM     20  C   UNL     1      -1.663   1.794  -0.767  0.00  0.00    +0.015 C 
ENDBRANCH  16  18
ENDBRANCH   3  17
ENDBRANCH   2  10
ENDBRANCH   1   2
BRANCH   1  21
ATOM     21  C   UNL     1       0.049   4.598   6.800  0.00  0.00    +0.101 C 
BRANCH  21  22
ATOM     22  C   UNL     1       1.090   5.686   6.865  0.00  0.00    -0.027 A 
ATOM     23  C   UNL     1       0.901   6.866   6.169  0.00  0.00    +0.005 A 
ATOM     24  C   UNL     1       1.856   7.864   6.229  0.00  0.00    +0.000 A 
ATOM     25  C   UNL     1       2.999   7.682   6.984  0.00  0.00    +0.000 A 
ATOM     26  C   UNL     1       3.188   6.502   7.680  0.00  0.00    +0.000 A 
ATOM     27  C   UNL     1       2.231   5.506   7.624  0.00  0.00    +0.005 A 
ENDBRANCH  21  22
BRANCH  21  28
ATOM     28  N   UNL     1      -1.287   5.198   6.837  0.00  0.00    -0.308 N 
ATOM     29  C   UNL     1      -1.859   5.497   8.020  0.00  0.00    +0.217 C 
ATOM     30  O   UNL     1      -1.268   5.269   9.054  0.00  0.00    -0.275 OA
ATOM     31  H   UNL     1      -1.760   5.381   6.010  0.00  0.00    +0.149 HD
BRANCH  29  32
ATOM     32  C   UNL     1      -3.234   6.114   8.058  0.00  0.00    +0.075 C 
ATOM     33  C   UNL     1      -3.215   7.448   7.310  0.00  0.00    +0.018 C 
ATOM     34  C   UNL     1      -4.610   8.075   7.349  0.00  0.00    +0.076 C 
ATOM     35  C   UNL     1      -5.022   8.311   8.803  0.00  0.00    +0.249 C 
ATOM     36  C   UNL     1      -5.042   6.977   9.551  0.00  0.00    +0.076 C 
ATOM     37  C   UNL     1      -3.646   6.351   9.512  0.00  0.00    +0.018 C 
ATOM     38  F   UNL     1      -4.106   9.175   9.413  0.00  0.00    -0.206 F 
ATOM     39  F   UNL     1      -6.298   8.884   8.838  0.00  0.00    -0.206 F 
ENDBRANCH  29  32
ENDBRANCH  21  28
ENDBRANCH   1  21
TORSDOF 8
