REMARK  Name = ZINC17245238
REMARK  11 active torsions:
REMARK  status: ('A' for Active; 'I' for Inactive)
REMARK    1  A    between atoms: C_1  and  C_2
REMARK    2  A    between atoms: N_8  and  S_9
REMARK    3  A    between atoms: S_9  and  C_12
REMARK    4  A    between atoms: C_15  and  C_18
REMARK    5  A    between atoms: N_20  and  C_21
REMARK    6  A    between atoms: C_21  and  C_22
REMARK    7  A    between atoms: C_22  and  N_67
REMARK    8  A    between atoms: C_23  and  N_67
REMARK    9  A    between atoms: C_24  and  N_67
REMARK   10  A    between atoms: C_29  and  O_34
REMARK   11  A    between atoms: O_34  and  C_35
REMARK                            x       y       z     vdW  Elec       q    Type
REMARK                         _______ _______ _______ _____ _____    ______ ____
ROOT
ATOM      1  C   UNL     1       6.178   1.370  -0.663  0.00  0.00    +0.252 C 
ATOM      2  O   UNL     1       5.288   0.701  -0.176  0.00  0.00    -0.270 OA
ATOM      3  N   UNL     1       6.100   2.715  -0.640  0.00  0.00    -0.248 N 
ATOM      4  C   UNL     1       4.948   3.334  -0.186  0.00  0.00    +0.168 A 
ATOM      5  N   UNL     1       3.839   2.787   0.257  0.00  0.00    -0.224 NA
ATOM      6  C   UNL     1       2.784   3.521   0.672  0.00  0.00    +0.084 A 
ATOM      7  C   UNL     1       1.542   3.059   1.169  0.00  0.00    +0.074 A 
ATOM      8  C   UNL     1       0.564   3.948   1.546  0.00  0.00    +0.122 A 
ATOM      9  C   UNL     1       0.763   5.323   1.465  0.00  0.00    +0.047 A 
ATOM     10  C   UNL     1       1.966   5.804   0.984  0.00  0.00    +0.021 A 
ATOM     11  C   UNL     1       2.946   4.923   0.600  0.00  0.00    +0.041 A 
ATOM     12  S   UNL     1       4.591   5.080  -0.054  0.00  0.00    -0.052 S 
ENDROOT
BRANCH   1  16
ATOM     13  C   UNL     1       9.536  -0.531  -2.438  0.00  0.00    +0.106 A 
ATOM     14  C   UNL     1       8.288  -1.123  -2.517  0.00  0.00    +0.029 A 
ATOM     15  C   UNL     1       7.193  -0.511  -1.943  0.00  0.00    +0.015 A 
ATOM     16  C   UNL     1       7.347   0.708  -1.280  0.00  0.00    +0.037 A 
ATOM     17  C   UNL     1       8.608   1.302  -1.208  0.00  0.00    +0.015 A 
ATOM     18  C   UNL     1       9.695   0.677  -1.783  0.00  0.00    +0.029 A 
BRANCH  13  19
ATOM     19  S   UNL     1      10.929  -1.320  -3.174  0.00  0.00    +0.061 S 
ATOM     20  O   UNL     1      12.084  -0.727  -2.597  0.00  0.00    -0.153 OA
ATOM     21  O   UNL     1      10.681  -2.718  -3.117  0.00  0.00    -0.153 OA
BRANCH  19  28
ATOM     22  C   UNL     1      12.119   1.103  -4.025  0.00  0.00    +0.026 C 
ATOM     23  C   UNL     1      11.475   0.389  -5.214  0.00  0.00    +0.077 C 
ATOM     24  C   UNL     1      12.532   0.136  -6.300  0.00  0.00    +0.020 C 
ATOM     25  C   UNL     1      11.912  -0.697  -7.424  0.00  0.00    +0.003 C 
ATOM     26  C   UNL     1      11.459  -2.049  -6.869  0.00  0.00    +0.017 C 
ATOM     27  C   UNL     1      10.395  -1.824  -5.790  0.00  0.00    +0.110 C 
ATOM     28  N   UNL     1      10.935  -0.906  -4.778  0.00  0.00    -0.174 NA
ENDBRANCH  19  28
ENDBRANCH  13  19
ENDBRANCH   1  16
BRANCH   8  29
ATOM     29  O   UNL     1      -0.622   3.473   2.014  0.00  0.00    -0.495 OA
ATOM     30  C   UNL     1      -1.603   4.440   2.392  0.00  0.00    +0.277 C 
ENDBRANCH   8  29
BRANCH   3  31
ATOM     31  C   UNL     1       7.234   3.523  -1.096  0.00  0.00    +0.097 C 
BRANCH  31  32
ATOM     32  C   UNL     1       7.947   4.130   0.114  0.00  0.00    -0.060 C 
BRANCH  32  35
ATOM     33  C   UNL     1       9.655   5.712   0.778  0.00  0.00    -0.097 C 
ATOM     34  C   UNL     1      10.059   4.200  -1.069  0.00  0.00    -0.097 C 
ATOM     35  N   UNL     1       9.039   5.004  -0.364  0.00  0.00    +0.377 N 
ATOM     36  H   UNL     1       8.651   5.696  -1.016  0.00  0.00    -0.083 HD
ENDBRANCH  32  35
ENDBRANCH  31  32
ENDBRANCH   3  31
TORSDOF 7
