REMARK  Name = ZINC57315919
REMARK  10 active torsions:
REMARK  status: ('A' for Active; 'I' for Inactive)
REMARK    1  A    between atoms: C_1  and  C_2
REMARK    2  A    between atoms: C_2  and  C_3
REMARK    3  A    between atoms: C_2  and  C_4
REMARK    4  A    between atoms: C_2  and  N_5
REMARK    5  A    between atoms: C_6  and  C_8
REMARK    6  A    between atoms: C_14  and  N_17
REMARK    7  A    between atoms: N_17  and  C_18
REMARK    8  A    between atoms: C_18  and  N_20
REMARK    9  A    between atoms: C_21  and  C_23
REMARK   10  A    between atoms: C_24  and  C_25
REMARK                            x       y       z     vdW  Elec       q    Type
REMARK                         _______ _______ _______ _____ _____    ______ ____
ROOT
ATOM      1  C   UNL     1       3.166  -1.601  -2.202  0.00  0.00    +0.093 A 
ATOM      2  C   UNL     1       4.295  -1.058  -2.736  0.00  0.00    +0.068 A 
ATOM      3  C   UNL     1       4.589  -1.252  -4.098  0.00  0.00    +0.010 A 
ATOM      4  C   UNL     1       5.705  -0.771  -4.833  0.00  0.00    +0.010 A 
ATOM      5  C   UNL     1       5.843  -1.048  -6.155  0.00  0.00    +0.002 A 
ATOM      6  C   UNL     1       4.905  -1.808  -6.842  0.00  0.00    +0.024 A 
ATOM      7  C   UNL     1       3.798  -2.298  -6.167  0.00  0.00    +0.047 A 
ATOM      8  C   UNL     1       3.648  -2.022  -4.818  0.00  0.00    +0.043 A 
ATOM      9  S   UNL     1       2.431  -2.439  -3.595  0.00  0.00    -0.080 S 
ATOM     10 CL   UNL     1       5.370  -0.130  -1.737  0.00  0.00    -0.082 Cl
ENDROOT
BRANCH   1  12
ATOM     11  N   UNL     1       1.528  -2.134  -0.475  0.00  0.00    -0.306 N 
ATOM     12  C   UNL     1       2.677  -1.520  -0.820  0.00  0.00    +0.253 C 
ATOM     13  O   UNL     1       3.310  -0.900   0.014  0.00  0.00    -0.270 OA
ATOM     14  H   UNL     1       1.023  -2.628  -1.140  0.00  0.00    +0.150 HD
BRANCH  11  16
ATOM     15  C   UNL     1       0.804  -0.589   1.278  0.00  0.00    +0.031 C 
ATOM     16  C   UNL     1       1.040  -2.054   0.904  0.00  0.00    +0.026 C 
ATOM     17  C   UNL     1       2.080  -2.660   1.849  0.00  0.00    +0.031 C 
ATOM     18  C   UNL     1      -0.273  -2.830   1.027  0.00  0.00    +0.031 C 
ENDBRANCH  11  16
ENDBRANCH   1  12
BRANCH   7  19
ATOM     19  N   UNL     1       2.841  -3.065  -6.842  0.00  0.00    -0.296 N 
ATOM     20  H   UNL     1       1.897  -2.898  -6.697  0.00  0.00    +0.154 HD
BRANCH  19  21
ATOM     21  C   UNL     1       3.232  -4.035  -7.692  0.00  0.00    +0.141 C 
ATOM     22  S   UNL     1       4.893  -4.423  -7.842  0.00  0.00    -0.018 S 
BRANCH  21  23
ATOM     23  N   UNL     1       2.316  -4.699  -8.424  0.00  0.00    -0.264 N 
ATOM     24  C   UNL     1       2.707  -5.668  -9.275  0.00  0.00    +0.242 C 
ATOM     25  O   UNL     1       3.888  -5.944  -9.382  0.00  0.00    -0.270 OA
ATOM     26  H   UNL     1       1.375  -4.479  -8.339  0.00  0.00    +0.157 HD
BRANCH  24  27
ATOM     27  C   UNL     1       1.746  -6.365 -10.043  0.00  0.00    +0.071 C 
ATOM     28  C   UNL     1       2.140  -7.341 -10.899  0.00  0.00    +0.051 C 
BRANCH  28  29
ATOM     29  C   UNL     1       1.178  -8.039 -11.668  0.00  0.00    +0.128 A 
ATOM     30  C   UNL     1       1.436  -9.052 -12.569  0.00  0.00    +0.049 A 
ATOM     31  C   UNL     1       0.195  -9.445 -13.094  0.00  0.00    +0.042 A 
ATOM     32  C   UNL     1      -0.749  -8.675 -12.508  0.00  0.00    +0.195 A 
ATOM     33  O   UNL     1      -0.156  -7.835 -11.648  0.00  0.00    -0.464 OA
ENDBRANCH  28  29
ENDBRANCH  24  27
ENDBRANCH  21  23
ENDBRANCH  19  21
ENDBRANCH   7  19
TORSDOF 7
