REMARK  Name = ZINC13072765
REMARK  9 active torsions:
REMARK  status: ('A' for Active; 'I' for Inactive)
REMARK    1  A    between atoms: C_1  and  C_2
REMARK    2  A    between atoms: C_2  and  C_3
REMARK    3  A    between atoms: C_2  and  C_4
REMARK    4  A    between atoms: C_7  and  S_10
REMARK    5  A    between atoms: S_10  and  N_13
REMARK    6  A    between atoms: N_16  and  C_19
REMARK    7  A    between atoms: C_19  and  C_20
REMARK    8  A    between atoms: N_22  and  C_23
REMARK    9  A    between atoms: C_24  and  C_31
REMARK                            x       y       z     vdW  Elec       q    Type
REMARK                         _______ _______ _______ _____ _____    ______ ____
ROOT
ATOM      1  N   UNL     1      -6.599  -0.977  -0.736  0.00  0.00    -0.174 NA
ATOM      2  C   UNL     1      -7.233   0.126   0.003  0.00  0.00    +0.125 C 
ATOM      3  C   UNL     1      -8.724   0.154  -0.348  0.00  0.00    +0.102 C 
ATOM      4  N   UNL     1      -8.880   0.214  -1.808  0.00  0.00    -0.291 NA
ATOM      5  C   UNL     1      -8.331  -0.987  -2.452  0.00  0.00    +0.102 C 
ATOM      6  C   UNL     1      -6.819  -1.058  -2.188  0.00  0.00    +0.125 C 
ENDROOT
BRANCH   1   7
ATOM      7  S   UNL     1      -5.658  -2.093   0.045  0.00  0.00    +0.061 S 
ATOM      8  O   UNL     1      -5.665  -3.264  -0.760  0.00  0.00    -0.153 OA
ATOM      9  O   UNL     1      -6.078  -2.099   1.403  0.00  0.00    -0.153 OA
BRANCH   7  13
ATOM     10  C   UNL     1      -1.412  -0.526   0.013  0.00  0.00    -0.045 A 
ATOM     11  C   UNL     1      -2.259  -0.204   1.056  0.00  0.00    +0.006 A 
ATOM     12  C   UNL     1      -3.556  -0.683   1.066  0.00  0.00    +0.029 A 
ATOM     13  C   UNL     1      -4.006  -1.482   0.032  0.00  0.00    +0.105 A 
ATOM     14  C   UNL     1      -3.159  -1.803  -1.012  0.00  0.00    +0.029 A 
ATOM     15  C   UNL     1      -1.863  -1.321  -1.024  0.00  0.00    +0.006 A 
BRANCH  10  17
ATOM     16  C   UNL     1      -0.019   1.526   0.010  0.00  0.00    +0.012 C 
ATOM     17  C   UNL     1       0.002  -0.004   0.002  0.00  0.00    +0.013 C 
ATOM     18  C   UNL     1       0.742  -0.511   1.242  0.00  0.00    +0.012 C 
ENDBRANCH  10  17
ENDBRANCH   7  13
ENDBRANCH   1   7
BRANCH   4  19
ATOM     19  C   UNL     1     -10.286   0.415  -2.180  0.00  0.00    +0.180 C 
BRANCH  19  20
ATOM     20  C   UNL     1     -10.378   0.716  -3.653  0.00  0.00    +0.232 C 
ATOM     21  O   UNL     1      -9.371   0.758  -4.328  0.00  0.00    -0.274 OA
ATOM     22  N   UNL     1     -11.580   0.937  -4.222  0.00  0.00    -0.278 N 
ATOM     23  H   UNL     1     -12.386   0.903  -3.683  0.00  0.00    +0.155 HD
BRANCH  22  24
ATOM     24  C   UNL     1     -11.665   1.214  -5.578  0.00  0.00    +0.084 A 
ATOM     25  C   UNL     1     -12.800   1.470  -6.324  0.00  0.00    +0.068 A 
ATOM     26  C   UNL     1     -12.619   1.736  -7.750  0.00  0.00    -0.023 A 
ATOM     27  C   UNL     1     -11.337   1.694  -8.158  0.00  0.00    -0.004 A 
ATOM     28  S   UNL     1     -10.413   1.322  -6.689  0.00  0.00    -0.077 S 
ATOM     29  C   UNL     1     -11.208   1.970  -9.631  0.00  0.00    +0.043 C 
ATOM     30  C   UNL     1     -12.634   1.773 -10.192  0.00  0.00    +0.010 C 
ATOM     31  C   UNL     1     -13.503   2.063  -8.952  0.00  0.00    +0.037 C 
BRANCH  25  32
ATOM     32  C   UNL     1     -14.132   1.475  -5.710  0.00  0.00    +0.244 C 
ATOM     33  O   UNL     1     -14.587   2.506  -5.251  0.00  0.00    -0.270 OA
ATOM     34  N   UNL     1     -14.852   0.337  -5.655  0.00  0.00    -0.325 N 
ATOM     35  H   UNL     1     -14.489  -0.485  -6.021  0.00  0.00    +0.145 HD
ATOM     36  H   UNL     1     -15.733   0.340  -5.249  0.00  0.00    +0.145 HD
ENDBRANCH  25  32
ENDBRANCH  22  24
ENDBRANCH  19  20
ENDBRANCH   4  19
TORSDOF 7
