REMARK  Name = ZINC56874791
REMARK  4 active torsions:
REMARK  status: ('A' for Active; 'I' for Inactive)
REMARK    1  A    between atoms: C_4  and  N_7
REMARK    2  A    between atoms: C_10  and  C_13
REMARK    3  A    between atoms: C_13  and  N_14
REMARK    4  A    between atoms: C_21  and  C_23
REMARK                            x       y       z     vdW  Elec       q    Type
REMARK                         _______ _______ _______ _____ _____    ______ ____
ROOT
ATOM      1  N   UNL     1       7.559  -3.448   0.651  0.00  0.00    -0.299 N 
ATOM      2  C   UNL     1       8.084  -4.649   0.337  0.00  0.00    +0.302 C 
ATOM      3  O   UNL     1       7.498  -5.386  -0.432  0.00  0.00    -0.253 OA
ATOM      4  N   UNL     1       9.258  -5.033   0.876  0.00  0.00    -0.282 N 
ATOM      5  C   UNL     1      10.117  -4.205   1.742  0.00  0.00    +0.110 C 
ATOM      6  C   UNL     1      10.947  -5.222   2.565  0.00  0.00    +0.021 C 
ATOM      7  C   UNL     1      11.201  -6.338   1.517  0.00  0.00    +0.024 C 
ATOM      8  C   UNL     1       9.891  -6.348   0.702  0.00  0.00    +0.081 C 
ATOM      9  H   UNL     1       8.026  -2.860   1.265  0.00  0.00    +0.150 HD
ENDROOT
BRANCH   8  10
ATOM     10  C   UNL     1      10.204  -6.584  -0.777  0.00  0.00    +0.010 C 
ATOM     11  C   UNL     1      10.926  -7.935  -0.956  0.00  0.00    +0.005 C 
ATOM     12  C   UNL     1      11.959  -7.668  -2.079  0.00  0.00    +0.000 C 
ATOM     13  C   UNL     1      12.440  -6.229  -1.765  0.00  0.00    +0.000 C 
ATOM     14  C   UNL     1      11.166  -5.499  -1.292  0.00  0.00    +0.005 C 
ENDBRANCH   8  10
BRANCH   1  15
ATOM     15  C   UNL     1       6.282  -3.031   0.066  0.00  0.00    +0.110 C 
BRANCH  15  19
ATOM     16  N   UNL     1       4.659   0.324   0.023  0.00  0.00    -0.330 N 
ATOM     17  C   UNL     1       6.073   0.723   0.073  0.00  0.00    +0.105 C 
ATOM     18  C   UNL     1       6.914  -0.571   0.066  0.00  0.00    +0.025 C 
ATOM     19  C   UNL     1       5.915  -1.639   0.584  0.00  0.00    +0.025 C 
ATOM     20  C   UNL     1       4.584  -1.147  -0.034  0.00  0.00    +0.110 C 
BRANCH  16  24
ATOM     21  C   UNL     1       1.403   2.919   0.058  0.00  0.00    +0.000 A 
ATOM     22  C   UNL     1       2.689   3.425   0.102  0.00  0.00    +0.002 A 
ATOM     23  C   UNL     1       3.771   2.567   0.091  0.00  0.00    +0.023 A 
ATOM     24  C   UNL     1       3.567   1.194   0.035  0.00  0.00    +0.030 A 
ATOM     25  C   UNL     1       2.273   0.689  -0.010  0.00  0.00    +0.023 A 
ATOM     26  C   UNL     1       1.196   1.553   0.001  0.00  0.00    +0.002 A 
ENDBRANCH  16  24
ENDBRANCH  15  19
ENDBRANCH   1  15
TORSDOF 4
