REMARK  Name = ZINC43286066
REMARK  8 active torsions:
REMARK  status: ('A' for Active; 'I' for Inactive)
REMARK    1  A    between atoms: C_1  and  C_2
REMARK    2  A    between atoms: C_2  and  C_3
REMARK    3  A    between atoms: C_3  and  C_5
REMARK    4  A    between atoms: C_3  and  N_22
REMARK    5  A    between atoms: C_5  and  C_7
REMARK    6  A    between atoms: C_5  and  N_13
REMARK    7  A    between atoms: C_17  and  C_20
REMARK    8  A    between atoms: C_20  and  O_21
REMARK                            x       y       z     vdW  Elec       q    Type
REMARK                         _______ _______ _______ _____ _____    ______ ____
ROOT
ATOM      1  C   UNL     1       0.655  -2.037   1.299  0.00  0.00    +0.079 C 
ENDROOT
BRANCH   1   2
ATOM      2  C   UNL     1       1.394  -2.627   0.125  0.00  0.00    +0.006 A 
ATOM      3  C   UNL     1       2.639  -3.162   0.081  0.00  0.00    +0.028 A 
ATOM      4  C   UNL     1       3.117  -3.648  -1.122  0.00  0.00    +0.025 A 
ATOM      5  C   UNL     1       2.327  -3.575  -2.221  0.00  0.00    +0.060 A 
ATOM      6  S   UNL     1       0.854  -2.808  -1.567  0.00  0.00    -0.099 S 
ATOM      7 BR   UNL     1       4.847  -4.404  -1.232  0.00  0.00    -0.050 Br
ENDBRANCH   1   2
BRANCH   1   8
ATOM      8  N   UNL     1      -0.753  -2.450   1.248  0.00  0.00    -0.296 NA
ATOM      9  C   UNL     1      -1.527  -1.813   2.321  0.00  0.00    +0.085 C 
ATOM     10  C   UNL     1      -3.011  -2.149   2.151  0.00  0.00    +0.016 C 
ATOM     11  C   UNL     1      -3.193  -3.669   2.197  0.00  0.00    +0.008 C 
ATOM     12  C   UNL     1      -2.340  -4.311   1.100  0.00  0.00    +0.029 C 
ATOM     13  C   UNL     1      -0.876  -3.913   1.301  0.00  0.00    +0.090 C 
BRANCH  12  14
ATOM     14  C   UNL     1      -2.470  -5.833   1.176  0.00  0.00    +0.160 C 
BRANCH  14  15
ATOM     15  O   UNL     1      -3.816  -6.211   0.878  0.00  0.00    -0.395 OA
ATOM     16  H   UNL     1      -3.972  -7.165   0.907  0.00  0.00    +0.209 HD
ENDBRANCH  14  15
ENDBRANCH  12  14
ENDBRANCH   1   8
BRANCH   1  17
ATOM     17  C   UNL     1       0.742  -0.511   1.242  0.00  0.00    -0.053 C 
BRANCH  17  18
ATOM     18  N   UNL     1       2.151  -0.103   1.171  0.00  0.00    +0.381 N 
ATOM     19  H   UNL     1       2.209   0.904   1.134  0.00  0.00    -0.090 HD
ATOM     20  H   UNL     1       2.639  -0.437   1.989  0.00  0.00    -0.090 HD
ATOM     21  H   UNL     1       2.574  -0.495   0.344  0.00  0.00    -0.090 HD
ENDBRANCH  17  18
BRANCH  17  23
ATOM     22  C   UNL     1      -0.019   1.526   0.010  0.00  0.00    +0.002 C 
ATOM     23  C   UNL     1       0.002  -0.004   0.002  0.00  0.00    -0.018 C 
ENDBRANCH  17  23
ENDBRANCH   1  17
TORSDOF 7
