REMARK  Name = ZINC40159388
REMARK  7 active torsions:
REMARK  status: ('A' for Active; 'I' for Inactive)
REMARK    1  A    between atoms: C_4  and  C_19
REMARK    2  A    between atoms: C_5  and  C_7
REMARK    3  A    between atoms: C_7  and  S_8
REMARK    4  A    between atoms: S_8  and  C_9
REMARK    5  A    between atoms: N_21  and  C_22
REMARK    6  A    between atoms: C_22  and  C_23
REMARK    7  A    between atoms: C_23  and  C_24
REMARK                            x       y       z     vdW  Elec       q    Type
REMARK                         _______ _______ _______ _____ _____    ______ ____
ROOT
ATOM      1  C   UNL     1       0.064   1.470  -0.247  0.00  0.00    +0.000 A 
ATOM      2  C   UNL     1       1.275   2.091   0.004  0.00  0.00    +0.001 A 
ATOM      3  C   UNL     1       2.404   1.336   0.247  0.00  0.00    +0.013 A 
ATOM      4  C   UNL     1       2.322  -0.058   0.239  0.00  0.00    +0.041 A 
ATOM      5  C   UNL     1       1.098  -0.678  -0.015  0.00  0.00    -0.025 A 
ATOM      6  C   UNL     1      -0.023   0.089  -0.257  0.00  0.00    +0.005 A 
ENDROOT
BRANCH   4   7
ATOM      7  C   UNL     1       3.528  -0.874   0.498  0.00  0.00    +0.244 C 
ATOM      8  O   UNL     1       3.434  -2.081   0.599  0.00  0.00    -0.270 OA
ATOM      9  N   UNL     1       4.730  -0.278   0.622  0.00  0.00    -0.311 N 
ATOM     10  H   UNL     1       4.805   0.686   0.541  0.00  0.00    +0.149 HD
BRANCH   9  11
ATOM     11  C   UNL     1       5.925  -1.086   0.879  0.00  0.00    +0.109 C 
BRANCH  11  12
ATOM     12  C   UNL     1       7.148  -0.172   0.975  0.00  0.00    +0.056 C 
BRANCH  12  13
ATOM     13  C   UNL     1       8.377  -1.004   1.239  0.00  0.00    -0.021 A 
ATOM     14  C   UNL     1       8.918  -1.270   2.439  0.00  0.00    +0.087 A 
ATOM     15  N   UNL     1      10.027  -2.056   2.286  0.00  0.00    -0.360 N 
ATOM     16  H   UNL     1      10.586  -2.379   3.010  0.00  0.00    +0.165 HD
ATOM     17  C   UNL     1      10.232  -2.322   0.950  0.00  0.00    +0.047 A 
ATOM     18  C   UNL     1       9.204  -1.680   0.237  0.00  0.00    +0.003 A 
ATOM     19  C   UNL     1       9.152  -1.781  -1.155  0.00  0.00    +0.010 A 
ATOM     20  C   UNL     1      10.101  -2.509  -1.817  0.00  0.00    +0.001 A 
ATOM     21  C   UNL     1      11.115  -3.147  -1.117  0.00  0.00    +0.002 A 
ATOM     22  C   UNL     1      11.190  -3.053   0.255  0.00  0.00    +0.026 A 
ENDBRANCH  12  13
ENDBRANCH  11  12
ENDBRANCH   9  11
ENDBRANCH   4   7
BRANCH   5  23
ATOM     23  C   UNL     1       1.001  -2.182  -0.026  0.00  0.00    +0.113 C 
BRANCH  23  24
ATOM     24  S   UNL     1       0.807  -2.788   1.673  0.00  0.00    -0.083 S 
BRANCH  24  25
ATOM     25  C   UNL     1       0.709  -4.538   1.493  0.00  0.00    +0.168 A 
ATOM     26  N   UNL     1       0.553  -5.425   2.520  0.00  0.00    -0.333 N 
ATOM     27  H   UNL     1       0.477  -5.207   3.462  0.00  0.00    +0.168 HD
ATOM     28  C   UNL     1       0.522  -6.694   1.964  0.00  0.00    +0.067 A 
ATOM     29  C   UNL     1       0.389  -7.970   2.490  0.00  0.00    +0.028 A 
ATOM     30  C   UNL     1       0.398  -9.064   1.649  0.00  0.00    +0.002 A 
ATOM     31  C   UNL     1       0.540  -8.896   0.280  0.00  0.00    +0.002 A 
ATOM     32  C   UNL     1       0.673  -7.636  -0.260  0.00  0.00    +0.030 A 
ATOM     33  C   UNL     1       0.666  -6.518   0.579  0.00  0.00    +0.090 A 
ATOM     34  N   UNL     1       0.770  -5.182   0.353  0.00  0.00    -0.222 NA
ENDBRANCH  24  25
ENDBRANCH  23  24
ENDBRANCH   5  23
TORSDOF 7
