REMARK  Name = ZINC35600089
REMARK  6 active torsions:
REMARK  status: ('A' for Active; 'I' for Inactive)
REMARK    1  A    between atoms: C_4  and  C_7
REMARK    2  A    between atoms: C_7  and  C_9
REMARK    3  A    between atoms: C_7  and  O_22
REMARK    4  A    between atoms: C_9  and  N_10
REMARK    5  A    between atoms: N_10  and  C_11
REMARK    6  A    between atoms: C_14  and  N_21
REMARK                            x       y       z     vdW  Elec       q    Type
REMARK                         _______ _______ _______ _____ _____    ______ ____
ROOT
ATOM      1  C   UNL     1       5.905  -2.201  -2.712  0.00  0.00    +0.052 A 
ATOM      2  C   UNL     1       5.245  -1.946  -3.894  0.00  0.00    +0.027 A 
ATOM      3  C   UNL     1       5.772  -2.363  -5.112  0.00  0.00    +0.025 A 
ATOM      4  C   UNL     1       6.970  -3.044  -5.165  0.00  0.00    +0.034 A 
ATOM      5  C   UNL     1       7.668  -3.319  -3.971  0.00  0.00    +0.021 A 
ATOM      6  C   UNL     1       7.135  -2.890  -2.731  0.00  0.00    +0.069 A 
ATOM      7  N   UNL     1       7.798  -3.146  -1.599  0.00  0.00    -0.359 N 
ATOM      8  C   UNL     1       8.942  -3.785  -1.607  0.00  0.00    +0.083 A 
ATOM      9  C   UNL     1       9.524  -4.228  -2.793  0.00  0.00    +0.018 A 
ATOM     10  C   UNL     1       8.893  -4.010  -3.985  0.00  0.00    +0.013 A 
ATOM     11  H   UNL     1       7.424  -2.852  -0.753  0.00  0.00    +0.165 HD
ENDROOT
BRANCH   4  12
ATOM     12  N   UNL     1       7.489  -3.458  -6.393  0.00  0.00    -0.357 N 
ATOM     13  H   UNL     1       7.006  -3.267  -7.213  0.00  0.00    +0.142 HD
ATOM     14  H   UNL     1       8.332  -3.937  -6.427  0.00  0.00    +0.142 HD
ENDBRANCH   4  12
BRANCH   1  15
ATOM     15  N   UNL     1       5.358  -1.774  -1.497  0.00  0.00    -0.339 N 
ATOM     16  H   UNL     1       5.826  -1.951  -0.666  0.00  0.00    +0.146 HD
BRANCH  15  17
ATOM     17  C   UNL     1       4.080  -1.059  -1.480  0.00  0.00    +0.137 C 
BRANCH  17  18
ATOM     18  C   UNL     1       3.711  -0.707  -0.038  0.00  0.00    +0.161 C 
BRANCH  18  22
ATOM     19  C   UNL     1      -0.017   1.378   0.010  0.00  0.00    +0.000 A 
ATOM     20  C   UNL     1       1.171   2.086   0.002  0.00  0.00    +0.000 A 
ATOM     21  C   UNL     1       2.377   1.411  -0.013  0.00  0.00    +0.006 A 
ATOM     22  C   UNL     1       2.396   0.029  -0.020  0.00  0.00    -0.018 A 
ATOM     23  C   UNL     1       1.208  -0.679  -0.012  0.00  0.00    +0.006 A 
ATOM     24  C   UNL     1       0.002  -0.004   0.002  0.00  0.00    +0.000 A 
ENDBRANCH  18  22
BRANCH  18  25
ATOM     25  O   UNL     1       3.596  -1.907   0.731  0.00  0.00    -0.386 OA
ATOM     26  H   UNL     1       2.922  -2.519   0.405  0.00  0.00    +0.210 HD
ENDBRANCH  18  25
ENDBRANCH  17  18
ENDBRANCH  15  17
ENDBRANCH   1  15
TORSDOF 6
