REMARK  Name = ZINC38741760
REMARK  4 active torsions:
REMARK  status: ('A' for Active; 'I' for Inactive)
REMARK    1  A    between atoms: C_1  and  C_2
REMARK    2  A    between atoms: N_24  and  C_25
REMARK    3  A    between atoms: C_30  and  O_31
REMARK    4  A    between atoms: O_31  and  C_32
REMARK                            x       y       z     vdW  Elec       q    Type
REMARK                         _______ _______ _______ _____ _____    ______ ____
ROOT
ATOM      1  C   UNL     1      -0.494   1.009  -0.368  0.00  0.00    +0.008 C 
ATOM      2  C   UNL     1      -0.292  -0.493  -0.160  0.00  0.00    -0.005 C 
ATOM      3  C   UNL     1      -1.669  -1.169  -0.028  0.00  0.00    +0.029 C 
ATOM      4  C   UNL     1      -2.325  -0.604   1.202  0.00  0.00    +0.119 C 
ATOM      5  C   UNL     1      -1.519  -1.125   2.428  0.00  0.00    +0.143 C 
ATOM      6  C   UNL     1      -0.203  -0.423   2.357  0.00  0.00    +0.146 C 
ATOM      7  O   UNL     1       0.205   0.299   3.235  0.00  0.00    -0.297 OA
ATOM      8  C   UNL     1       0.580  -0.709   1.074  0.00  0.00    +0.078 C 
ATOM      9  C   UNL     1      -2.471  -0.847   3.536  0.00  0.00    +0.130 C 
ATOM     10  N   UNL     1      -3.669  -0.777   3.015  0.00  0.00    -0.165 NA
ATOM     11  N   UNL     1      -3.655  -0.998   1.620  0.00  0.00    -0.187 N 
ATOM     12  C   UNL     1      -4.682  -1.473   0.836  0.00  0.00    +0.217 A 
ATOM     13  N   UNL     1      -4.619  -1.652  -0.461  0.00  0.00    -0.213 NA
ATOM     14  C   UNL     1      -5.807  -2.132  -0.914  0.00  0.00    +0.091 A 
ATOM     15  C   UNL     1      -6.277  -2.490  -2.180  0.00  0.00    +0.030 A 
ATOM     16  C   UNL     1      -7.564  -2.957  -2.324  0.00  0.00    +0.002 A 
ATOM     17  C   UNL     1      -8.398  -3.073  -1.223  0.00  0.00    +0.002 A 
ATOM     18  C   UNL     1      -7.949  -2.723   0.035  0.00  0.00    +0.028 A 
ATOM     19  C   UNL     1      -6.656  -2.252   0.199  0.00  0.00    +0.067 A 
ATOM     20  N   UNL     1      -5.918  -1.834   1.294  0.00  0.00    -0.325 N 
ATOM     21  N   UNL     1      -2.149  -0.690   4.874  0.00  0.00    -0.298 N 
ATOM     22  H   UNL     1      -6.223  -1.802   2.215  0.00  0.00    +0.169 HD
ATOM     23  H   UNL     1      -1.235  -0.819   5.171  0.00  0.00    +0.153 HD
ENDROOT
BRANCH  21  24
ATOM     24  C   UNL     1      -3.143  -0.345   5.798  0.00  0.00    +0.074 A 
ATOM     25  C   UNL     1      -4.421  -0.029   5.359  0.00  0.00    +0.027 A 
ATOM     26  C   UNL     1      -5.400   0.310   6.273  0.00  0.00    +0.002 A 
ATOM     27  C   UNL     1      -5.110   0.337   7.625  0.00  0.00    +0.004 A 
ATOM     28  C   UNL     1      -3.839   0.024   8.069  0.00  0.00    +0.047 A 
ATOM     29  C   UNL     1      -2.853  -0.324   7.160  0.00  0.00    +0.141 A 
BRANCH  29  30
ATOM     30  O   UNL     1      -1.604  -0.638   7.597  0.00  0.00    -0.493 OA
ATOM     31  C   UNL     1      -1.379  -0.596   9.007  0.00  0.00    +0.277 C 
ENDBRANCH  29  30
ENDBRANCH  21  24
TORSDOF 2
