REMARK  Name = ZINC54038138
REMARK  8 active torsions:
REMARK  status: ('A' for Active; 'I' for Inactive)
REMARK    1  A    between atoms: C_1  and  N_2
REMARK    2  A    between atoms: N_2  and  C_3
REMARK    3  A    between atoms: N_2  and  C_4
REMARK    4  A    between atoms: C_4  and  C_6
REMARK    5  A    between atoms: C_4  and  C_21
REMARK    6  A    between atoms: C_6  and  N_7
REMARK    7  A    between atoms: N_10  and  N_11
REMARK    8  A    between atoms: C_12  and  C_14
REMARK                            x       y       z     vdW  Elec       q    Type
REMARK                         _______ _______ _______ _____ _____    ______ ____
ROOT
ATOM      1  N   UNL     1      -0.923  -2.532   0.575  0.00  0.00    -0.299 N 
ATOM      2  C   UNL     1      -0.990  -3.877   0.545  0.00  0.00    +0.316 C 
ATOM      3  O   UNL     1      -1.651  -4.435  -0.310  0.00  0.00    -0.251 OA
ATOM      4  N   UNL     1      -0.325  -4.605   1.464  0.00  0.00    -0.218 N 
ATOM      5  H   UNL     1      -0.396  -2.087   1.257  0.00  0.00    +0.150 HD
ATOM      6  H   UNL     1      -0.374  -5.574   1.444  0.00  0.00    +0.174 HD
ENDROOT
BRANCH   4   7
ATOM      7  N   UNL     1       0.436  -3.963   2.450  0.00  0.00    -0.228 N 
ATOM      8  C   UNL     1       1.101  -4.691   3.369  0.00  0.00    +0.276 C 
ATOM      9  O   UNL     1       1.040  -5.906   3.342  0.00  0.00    -0.267 OA
ATOM     10  H   UNL     1       0.484  -2.994   2.471  0.00  0.00    +0.173 HD
BRANCH   8  11
ATOM     11  C   UNL     1       1.897  -4.019   4.400  0.00  0.00    +0.104 A 
ATOM     12  C   UNL     1       2.630  -4.633   5.394  0.00  0.00    +0.047 A 
ATOM     13  C   UNL     1       3.229  -3.620   6.150  0.00  0.00    +0.036 A 
ATOM     14  C   UNL     1       2.860  -2.430   5.616  0.00  0.00    +0.098 A 
ATOM     15  N   UNL     1       2.055  -2.659   4.549  0.00  0.00    -0.356 N 
ATOM     16  H   UNL     1       1.655  -1.978   3.986  0.00  0.00    +0.166 HD
ATOM     17 BR   UNL     1       4.353  -3.867   7.650  0.00  0.00    -0.049 Br
ENDBRANCH   8  11
ENDBRANCH   4   7
BRANCH   1  18
ATOM     18  C   UNL     1      -1.646  -1.740  -0.424  0.00  0.00    +0.098 C 
BRANCH  18  19
ATOM     19  C   UNL     1      -1.510  -0.253  -0.093  0.00  0.00    +0.016 C 
BRANCH  19  20
ATOM     20  C   UNL     1      -0.068   0.163  -0.236  0.00  0.00    +0.093 A 
ATOM     21  C   UNL     1       0.463   0.808  -1.290  0.00  0.00    +0.043 A 
ATOM     22  C   UNL     1       1.835   0.997  -1.006  0.00  0.00    +0.041 A 
ATOM     23  C   UNL     1       2.060   0.457   0.206  0.00  0.00    +0.195 A 
ATOM     24  O   UNL     1       0.902  -0.041   0.669  0.00  0.00    -0.469 OA
ENDBRANCH  19  20
BRANCH  19  26
ATOM     25  C   UNL     1      -1.813   1.411   1.609  0.00  0.00    -0.096 C 
ATOM     26  N   UNL     1      -1.953  -0.016   1.287  0.00  0.00    +0.384 N 
ATOM     27  C   UNL     1      -3.360  -0.413   1.425  0.00  0.00    -0.096 C 
ATOM     28  H   UNL     1      -1.386  -0.560   1.921  0.00  0.00    -0.082 HD
ENDBRANCH  19  26
ENDBRANCH  18  19
ENDBRANCH   1  18
TORSDOF 6
