REMARK  Name = ZINC42524561
REMARK  3 active torsions:
REMARK  status: ('A' for Active; 'I' for Inactive)
REMARK    1  A    between atoms: C_1  and  C_2
REMARK    2  A    between atoms: N_12  and  S_13
REMARK    3  A    between atoms: S_13  and  C_16
REMARK                            x       y       z     vdW  Elec       q    Type
REMARK                         _______ _______ _______ _____ _____    ______ ____
ROOT
ATOM      1  C   UNL     1      -0.019   1.526   0.010  0.00  0.00    +0.026 C 
ATOM      2  C   UNL     1       0.002  -0.004   0.002  0.00  0.00    +0.077 C 
ATOM      3  C   UNL     1       0.779  -0.523  -1.251  0.00  0.00    +0.023 C 
ATOM      4  C   UNL     1       1.489  -1.733  -0.664  0.00  0.00    -0.010 C 
ATOM      5  C   UNL     1       2.818  -2.229  -1.184  0.00  0.00    -0.078 C 
ATOM      6  N   UNL     1       3.598  -2.610   0.032  0.00  0.00    +0.380 N 
ATOM      7  C   UNL     1       2.813  -2.178   1.235  0.00  0.00    -0.062 C 
ATOM      8  C   UNL     1       1.948  -1.073   0.694  0.00  0.00    +0.065 C 
ATOM      9  N   UNL     1       0.739  -0.513   1.198  0.00  0.00    -0.172 NA
ATOM     10  H   UNL     1       3.732  -3.610   0.052  0.00  0.00    -0.086 HD
ATOM     11  H   UNL     1       4.494  -2.145   0.023  0.00  0.00    -0.086 HD
ENDROOT
BRANCH   9  12
ATOM     12  S   UNL     1       0.251  -0.441   2.779  0.00  0.00    +0.069 S 
ATOM     13  O   UNL     1       1.428  -0.508   3.571  0.00  0.00    -0.152 OA
ATOM     14  O   UNL     1      -0.669   0.639   2.871  0.00  0.00    -0.152 OA
BRANCH  12  15
ATOM     15  C   UNL     1      -0.664  -1.910   3.110  0.00  0.00    +0.157 A 
ATOM     16  C   UNL     1      -1.267  -2.300   4.260  0.00  0.00    +0.051 A 
ATOM     17  C   UNL     1      -1.937  -3.509   4.289  0.00  0.00    +0.025 A 
ATOM     18  C   UNL     1      -1.971  -4.269   3.167  0.00  0.00    +0.048 A 
ATOM     19  S   UNL     1      -1.042  -3.269   2.015  0.00  0.00    -0.076 S 
ATOM     20 BR   UNL     1      -1.193  -1.206   5.801  0.00  0.00    -0.048 Br
ENDBRANCH  12  15
ENDBRANCH   9  12
TORSDOF 2
