REMARK  Name = ZINC38744049
REMARK  5 active torsions:
REMARK  status: ('A' for Active; 'I' for Inactive)
REMARK    1  A    between atoms: C_7  and  C_10
REMARK    2  A    between atoms: C_10  and  C_11
REMARK    3  A    between atoms: C_11  and  C_12
REMARK    4  A    between atoms: N_14  and  C_15
REMARK    5  A    between atoms: C_17  and  C_26
REMARK                            x       y       z     vdW  Elec       q    Type
REMARK                         _______ _______ _______ _____ _____    ______ ____
ROOT
ATOM      1  C   UNL     1      -5.441   4.914  -1.514  0.00  0.00    +0.214 C 
ATOM      2  O   UNL     1      -6.149   5.285  -0.602  0.00  0.00    -0.276 OA
ATOM      3  N   UNL     1      -5.136   5.761  -2.517  0.00  0.00    -0.302 N 
ATOM      4  H   UNL     1      -4.570   5.464  -3.247  0.00  0.00    +0.150 HD
ENDROOT
BRANCH   3   5
ATOM      5  C   UNL     1      -5.661   7.129  -2.507  0.00  0.00    +0.151 C 
ATOM      6  C   UNL     1      -4.711   8.107  -3.240  0.00  0.00    +0.132 C 
ATOM      7  C   UNL     1      -4.651   9.445  -2.548  0.00  0.00    -0.046 C 
ATOM      8  C   UNL     1      -5.054   9.504  -1.285  0.00  0.00    -0.013 C 
ATOM      9  S   UNL     1      -5.582   7.870  -0.822  0.00  0.00    -0.106 S 
ATOM     10  C   UNL     1      -5.071  10.717  -0.396  0.00  0.00    +0.042 C 
ATOM     11  C   UNL     1      -4.213  11.813  -1.040  0.00  0.00    +0.005 C 
ATOM     12  C   UNL     1      -4.609  11.935  -2.515  0.00  0.00    +0.005 C 
ATOM     13  C   UNL     1      -4.143  10.691  -3.272  0.00  0.00    +0.032 C 
BRANCH   6  14
ATOM     14  C   UNL     1      -3.327   7.512  -3.279  0.00  0.00    +0.220 C 
ATOM     15  O   UNL     1      -2.576   7.662  -2.338  0.00  0.00    -0.275 OA
ATOM     16  N   UNL     1      -2.924   6.814  -4.359  0.00  0.00    -0.329 N 
ATOM     17  H   UNL     1      -3.496   6.755  -5.139  0.00  0.00    +0.145 HD
ATOM     18  H   UNL     1      -2.061   6.371  -4.355  0.00  0.00    +0.145 HD
ENDBRANCH   6  14
ENDBRANCH   3   5
BRANCH   1  19
ATOM     19  C   UNL     1      -4.902   3.507  -1.525  0.00  0.00    +0.100 C 
BRANCH  19  20
ATOM     20  C   UNL     1      -5.394   2.763  -0.282  0.00  0.00    +0.046 C 
BRANCH  20  27
ATOM     21  C   UNL     1      -1.354   0.865   1.151  0.00  0.00    +0.001 A 
ATOM     22  C   UNL     1      -1.294  -0.505   0.936  0.00  0.00    +0.002 A 
ATOM     23  C   UNL     1      -2.351  -1.173   0.357  0.00  0.00    +0.026 A 
ATOM     24  C   UNL     1      -3.491  -0.469  -0.017  0.00  0.00    +0.047 A 
ATOM     25  N   UNL     1      -4.682  -0.836  -0.603  0.00  0.00    -0.360 N 
ATOM     26  C   UNL     1      -5.482   0.264  -0.759  0.00  0.00    +0.087 A 
ATOM     27  C   UNL     1      -4.855   1.355  -0.293  0.00  0.00    -0.022 A 
ATOM     28  C   UNL     1      -3.547   0.920   0.202  0.00  0.00    +0.003 A 
ATOM     29  C   UNL     1      -2.466   1.575   0.795  0.00  0.00    +0.010 A 
ATOM     30  H   UNL     1      -4.919  -1.739  -0.866  0.00  0.00    +0.165 HD
ENDBRANCH  20  27
ENDBRANCH  19  20
ENDBRANCH   1  19
TORSDOF 5
