REMARK  Name = ZINC63698437
REMARK  8 active torsions:
REMARK  status: ('A' for Active; 'I' for Inactive)
REMARK    1  A    between atoms: C_1  and  C_2
REMARK    2  A    between atoms: C_7  and  C_11
REMARK    3  A    between atoms: C_7  and  C_12
REMARK    4  A    between atoms: N_13  and  C_15
REMARK    5  A    between atoms: C_18  and  C_21
REMARK    6  A    between atoms: N_23  and  C_24
REMARK    7  A    between atoms: C_24  and  C_25
REMARK    8  A    between atoms: C_25  and  C_26
REMARK                            x       y       z     vdW  Elec       q    Type
REMARK                         _______ _______ _______ _____ _____    ______ ____
ROOT
ATOM      1  C   UNL     1       1.723  -3.183   0.128  0.00  0.00    +0.048 A 
ATOM      2  C   UNL     1       1.249  -4.489   0.220  0.00  0.00    +0.025 A 
ATOM      3  C   UNL     1       2.134  -5.536   0.345  0.00  0.00    +0.015 A 
ATOM      4  C   UNL     1       3.509  -5.287   0.378  0.00  0.00    +0.037 A 
ATOM      5  C   UNL     1       3.981  -3.975   0.285  0.00  0.00    +0.015 A 
ATOM      6  C   UNL     1       3.092  -2.933   0.156  0.00  0.00    +0.025 A 
ENDROOT
BRANCH   1  18
ATOM      7  C   UNL     1      -2.623  -0.735  -0.217  0.00  0.00    +0.062 C 
ATOM      8  C   UNL     1      -1.140  -0.999  -0.213  0.00  0.00    +0.027 C 
ATOM      9  C   UNL     1      -0.214  -0.094  -0.526  0.00  0.00    +0.035 C 
ATOM     10  C   UNL     1       1.153  -0.721  -0.267  0.00  0.00    +0.129 C 
ATOM     11  C   UNL     1       1.981  -0.551  -1.534  0.00  0.00    +0.036 C 
ATOM     12  C   UNL     1       1.915   0.864  -2.089  0.00  0.00    -0.026 C 
ATOM     13  C   UNL     1       1.100   1.831  -1.239  0.00  0.00    +0.086 C 
ATOM     14  C   UNL     1      -0.282   1.228  -1.010  0.00  0.00    +0.163 C 
ATOM     15  O   UNL     1      -1.322   1.827  -1.200  0.00  0.00    -0.292 OA
ATOM     16  C   UNL     1       1.301   0.809  -3.489  0.00  0.00    +0.011 C 
ATOM     17  C   UNL     1       3.341   1.406  -2.209  0.00  0.00    +0.011 C 
ATOM     18  N   UNL     1       0.827  -2.127   0.003  0.00  0.00    -0.246 N 
ATOM     19  N   UNL     1      -0.571  -2.190   0.115  0.00  0.00    -0.267 N 
ATOM     20  H   UNL     1      -1.066  -2.978   0.388  0.00  0.00    +0.170 HD
ENDBRANCH   1  18
BRANCH   4  21
ATOM     21  C   UNL     1       4.459  -6.407   0.512  0.00  0.00    +0.244 C 
ATOM     22  O   UNL     1       4.047  -7.548   0.593  0.00  0.00    -0.270 OA
ATOM     23  N   UNL     1       5.785  -6.166   0.544  0.00  0.00    -0.311 N 
ATOM     24  H   UNL     1       6.114  -5.256   0.479  0.00  0.00    +0.149 HD
BRANCH  23  25
ATOM     25  C   UNL     1       6.729  -7.279   0.677  0.00  0.00    +0.109 C 
BRANCH  25  26
ATOM     26  C   UNL     1       8.159  -6.735   0.687  0.00  0.00    +0.052 C 
BRANCH  26  27
ATOM     27  C   UNL     1       9.130  -7.879   0.824  0.00  0.00    -0.040 C 
ATOM     28  C   UNL     1       9.773  -8.524  -0.176  0.00  0.00    -0.001 A 
ATOM     29  C   UNL     1       9.760  -8.360  -1.635  0.00  0.00    +0.010 A 
ATOM     30  C   UNL     1      10.527  -9.176  -2.394  0.00  0.00    +0.001 A 
ATOM     31  C   UNL     1      11.332 -10.171  -1.823  0.00  0.00    +0.002 A 
ATOM     32  C   UNL     1      11.397 -10.383  -0.491  0.00  0.00    +0.026 A 
ATOM     33  C   UNL     1      10.632  -9.583   0.401  0.00  0.00    +0.043 A 
ATOM     34  N   UNL     1      10.524  -9.592   1.708  0.00  0.00    -0.380 N 
ATOM     35  C   UNL     1       9.589  -8.535   2.107  0.00  0.00    +0.144 C 
ATOM     36  H   UNL     1      10.989 -10.194   2.310  0.00  0.00    +0.160 HD
ENDBRANCH  26  27
ENDBRANCH  25  26
ENDBRANCH  23  25
ENDBRANCH   4  21
TORSDOF 5
