REMARK  Name = ZINC20600104
REMARK  9 active torsions:
REMARK  status: ('A' for Active; 'I' for Inactive)
REMARK    1  A    between atoms: C_3  and  C_7
REMARK    2  A    between atoms: C_7  and  C_9
REMARK    3  A    between atoms: C_7  and  N_31
REMARK    4  A    between atoms: C_9  and  N_10
REMARK    5  A    between atoms: C_11  and  C_17
REMARK    6  A    between atoms: C_17  and  C_18
REMARK    7  A    between atoms: C_18  and  N_19
REMARK    8  A    between atoms: N_19  and  C_20
REMARK    9  A    between atoms: C_20  and  C_21
REMARK                            x       y       z     vdW  Elec       q    Type
REMARK                         _______ _______ _______ _____ _____    ______ ____
ROOT
ATOM      1  N   UNL     1       1.146   2.868  -0.178  0.00  0.00    -0.297 N 
ATOM      2  C   UNL     1       1.291   4.318  -0.347  0.00  0.00    +0.075 C 
ATOM      3  C   UNL     1      -0.123   4.902  -0.132  0.00  0.00    +0.031 C 
ATOM      4  C   UNL     1      -1.020   3.699  -0.512  0.00  0.00    +0.098 C 
ATOM      5  C   UNL     1      -0.141   2.491  -0.268  0.00  0.00    +0.216 C 
ATOM      6  O   UNL     1      -0.540   1.350  -0.173  0.00  0.00    -0.276 OA
ENDROOT
BRANCH   1   7
ATOM      7  C   UNL     1       2.261   1.948   0.060  0.00  0.00    +0.131 C 
BRANCH   7   8
ATOM      8  C   UNL     1       2.397   1.688   1.562  0.00  0.00    +0.106 C 
BRANCH   8  11
ATOM      9  C   UNL     1       2.229   4.893   3.545  0.00  0.00    +0.020 A 
ATOM     10  C   UNL     1       1.827   3.725   2.915  0.00  0.00    +0.008 A 
ATOM     11  C   UNL     1       2.784   2.966   2.260  0.00  0.00    -0.011 A 
ATOM     12  C   UNL     1       4.098   3.393   2.260  0.00  0.00    +0.116 A 
ATOM     13  N   UNL     1       4.444   4.512   2.865  0.00  0.00    -0.263 NA
ATOM     14  C   UNL     1       3.560   5.260   3.498  0.00  0.00    +0.111 A 
ENDBRANCH   8  11
BRANCH   8  15
ATOM     15  N   UNL     1       3.432   0.671   1.791  0.00  0.00    -0.290 NA
ATOM     16  C   UNL     1       3.174  -0.534   0.990  0.00  0.00    +0.113 C 
ATOM     17  C   UNL     1       4.306  -1.541   1.213  0.00  0.00    +0.175 C 
ATOM     18  O   UNL     1       4.410  -1.831   2.610  0.00  0.00    -0.377 OA
ATOM     19  C   UNL     1       4.662  -0.680   3.420  0.00  0.00    +0.175 C 
ATOM     20  C   UNL     1       3.534   0.336   3.219  0.00  0.00    +0.113 C 
ENDBRANCH   8  15
ENDBRANCH   7   8
ENDBRANCH   1   7
BRANCH   2  21
ATOM     21  C   UNL     1       1.787   4.639  -1.758  0.00  0.00    +0.003 C 
BRANCH  21  22
ATOM     22  C   UNL     1       3.205   4.093  -1.937  0.00  0.00    -0.080 C 
BRANCH  22  23
ATOM     23  N   UNL     1       3.720   4.489  -3.255  0.00  0.00    +0.382 N 
ATOM     24  H   UNL     1       3.118   4.011  -4.042  0.00  0.00    -0.085 HD
ATOM     25  H   UNL     1       3.659   5.582  -3.360  0.00  0.00    -0.085 HD
BRANCH  23  26
ATOM     26  C   UNL     1       5.120   4.077  -3.419  0.00  0.00    -0.045 C 
BRANCH  26  27
ATOM     27  C   UNL     1       5.647   4.598  -4.731  0.00  0.00    -0.042 A 
ATOM     28  C   UNL     1       6.457   5.719  -4.753  0.00  0.00    +0.052 A 
ATOM     29  C   UNL     1       6.947   6.197  -5.957  0.00  0.00    +0.167 A 
ATOM     30  C   UNL     1       6.613   5.553  -7.146  0.00  0.00    +0.168 A 
ATOM     31  C   UNL     1       5.797   4.434  -7.118  0.00  0.00    +0.069 A 
ATOM     32  C   UNL     1       5.316   3.958  -5.911  0.00  0.00    +0.046 A 
ATOM     33 CL   UNL     1       4.293   2.556  -5.878  0.00  0.00    -0.083 Cl
ATOM     34  O   UNL     1       7.209   6.213  -8.182  0.00  0.00    -0.453 OA
ATOM     35  C   UNL     1       7.574   7.503  -7.656  0.00  0.00    +0.466 C 
ATOM     36  O   UNL     1       7.752   7.261  -6.248  0.00  0.00    -0.453 OA
ENDBRANCH  26  27
ENDBRANCH  23  26
ENDBRANCH  22  23
ENDBRANCH  21  22
ENDBRANCH   2  21
TORSDOF 9
