REMARK  Name = ZINC12498179
REMARK  11 active torsions:
REMARK  status: ('A' for Active; 'I' for Inactive)
REMARK    1  A    between atoms: C_1  and  C_2
REMARK    2  A    between atoms: C_2  and  C_3
REMARK    3  A    between atoms: C_3  and  C_4
REMARK    4  A    between atoms: C_4  and  C_32
REMARK    5  A    between atoms: C_9  and  C_11
REMARK    6  A    between atoms: N_20  and  C_23
REMARK    7  A    between atoms: C_27  and  C_29
REMARK    8  A    between atoms: C_29  and  C_31
REMARK    9  A    between atoms: C_32  and  O_34
REMARK   10  A    between atoms: O_34  and  C_35
REMARK   11  A    between atoms: C_35  and  C_36
REMARK                            x       y       z     vdW  Elec       q    Type
REMARK                         _______ _______ _______ _____ _____    ______ ____
ROOT
ATOM      1  C   UNL     1      -4.285   0.937   2.401  0.00  0.00    +0.044 C 
ATOM      2  C   UNL     1      -4.747   0.899   3.847  0.00  0.00    +0.086 C 
ATOM      3  C   UNL     1      -5.825  -0.246   3.717  0.00  0.00    +0.077 C 
ATOM      4  C   UNL     1      -5.071  -1.279   2.982  0.00  0.00    -0.027 C 
ATOM      5  C   UNL     1      -6.568  -0.072   4.949  0.00  0.00    +0.229 C 
ATOM      6  O   UNL     1      -7.084  -0.940   5.619  0.00  0.00    -0.275 OA
ATOM      7  N   UNL     1      -6.550   1.278   5.199  0.00  0.00    -0.210 N 
ATOM      8  C   UNL     1      -5.651   1.947   4.416  0.00  0.00    +0.229 C 
ATOM      9  O   UNL     1      -5.597   3.143   4.222  0.00  0.00    -0.275 OA
ATOM     10  N   UNL     1      -4.383  -0.470   1.927  0.00  0.00    +0.395 N 
ATOM     11  H   UNL     1      -3.443  -0.846   1.761  0.00  0.00    -0.083 HD
ATOM     12  H   UNL     1      -4.925  -0.504   1.056  0.00  0.00    -0.083 HD
ENDROOT
BRANCH   4  13
ATOM     13  C   UNL     1      -6.006  -2.289   2.368  0.00  0.00    -0.058 A 
ATOM     14  C   UNL     1      -6.210  -3.508   2.988  0.00  0.00    +0.002 A 
ATOM     15  C   UNL     1      -7.067  -4.436   2.426  0.00  0.00    +0.003 A 
ATOM     16  C   UNL     1      -7.721  -4.145   1.244  0.00  0.00    +0.038 A 
ATOM     17  C   UNL     1      -7.518  -2.926   0.622  0.00  0.00    +0.124 A 
ATOM     18  C   UNL     1      -6.663  -1.995   1.189  0.00  0.00    +0.040 A 
ATOM     19  F   UNL     1      -8.156  -2.641  -0.534  0.00  0.00    -0.205 F 
ENDBRANCH   4  13
BRANCH   7  20
ATOM     20  C   UNL     1      -7.366   1.902   6.153  0.00  0.00    +0.045 A 
ATOM     21  C   UNL     1      -7.280   3.276   6.348  0.00  0.00    +0.024 A 
ATOM     22  C   UNL     1      -8.086   3.898   7.284  0.00  0.00    +0.003 A 
ATOM     23  C   UNL     1      -8.972   3.159   8.040  0.00  0.00    +0.011 A 
ATOM     24  C   UNL     1      -9.062   1.776   7.856  0.00  0.00    +0.019 A 
ATOM     25  C   UNL     1      -8.251   1.149   6.906  0.00  0.00    +0.035 A 
BRANCH  24  26
ATOM     26  C   UNL     1     -10.006   0.984   8.661  0.00  0.00    +0.160 C 
ATOM     27  O   UNL     1     -10.082  -0.216   8.500  0.00  0.00    -0.292 OA
ATOM     28  C   UNL     1     -10.879   1.663   9.684  0.00  0.00    +0.091 C 
ENDBRANCH  24  26
ENDBRANCH   7  20
BRANCH   1  29
ATOM     29  C   UNL     1      -2.860   1.421   2.322  0.00  0.00    +0.297 C 
ATOM     30  O   UNL     1      -2.409   2.120   3.199  0.00  0.00    -0.252 OA
BRANCH  29  31
ATOM     31  O   UNL     1      -2.091   1.077   1.277  0.00  0.00    -0.466 OA
BRANCH  31  32
ATOM     32  C   UNL     1      -0.729   1.579   1.267  0.00  0.00    +0.228 C 
ATOM     33  C   UNL     1      -0.013   1.086   0.008  0.00  0.00    +0.048 C 
ENDBRANCH  31  32
ENDBRANCH  29  31
ENDBRANCH   1  29
BRANCH   1  34
ATOM     34  C   UNL     1      -5.199   1.845   1.576  0.00  0.00    -0.001 C 
BRANCH  34  36
ATOM     35  C   UNL     1      -5.728   2.657  -0.727  0.00  0.00    +0.004 C 
ATOM     36  C   UNL     1      -4.814   1.749   0.099  0.00  0.00    -0.004 C 
ENDBRANCH  34  36
ENDBRANCH   1  34
TORSDOF 8
