REMARK  Name = ZINC63180071
REMARK  9 active torsions:
REMARK  status: ('A' for Active; 'I' for Inactive)
REMARK    1  A    between atoms: C_1  and  C_2
REMARK    2  A    between atoms: C_2  and  O_3
REMARK    3  A    between atoms: O_3  and  C_4
REMARK    4  A    between atoms: C_7  and  N_10
REMARK    5  A    between atoms: C_11  and  C_28
REMARK    6  A    between atoms: C_14  and  S_15
REMARK    7  A    between atoms: S_15  and  C_16
REMARK    8  A    between atoms: C_16  and  C_17
REMARK    9  A    between atoms: C_25  and  C_27
REMARK                            x       y       z     vdW  Elec       q    Type
REMARK                         _______ _______ _______ _____ _____    ______ ____
ROOT
ATOM      1  N   UNL     1      -3.061  -6.079   0.629  0.00  0.00    -0.270 N 
ATOM      2  C   UNL     1      -3.525  -6.836  -0.434  0.00  0.00    +0.168 A 
ATOM      3  N   UNL     1      -3.275  -8.105  -0.143  0.00  0.00    -0.128 NA
ATOM      4  N   UNL     1      -2.700  -8.182   1.004  0.00  0.00    -0.122 NA
ATOM      5  C   UNL     1      -2.539  -6.972   1.518  0.00  0.00    +0.197 A 
ENDROOT
BRANCH   2   6
ATOM      6  C   UNL     1      -4.143  -6.352  -1.597  0.00  0.00    +0.025 C 
ATOM      7  C   UNL     1      -4.620  -7.101  -2.673  0.00  0.00    +0.006 A 
ATOM      8  C   UNL     1      -4.642  -8.488  -2.933  0.00  0.00    +0.010 A 
ATOM      9  C   UNL     1      -5.184  -8.947  -4.091  0.00  0.00    +0.001 A 
ATOM     10  C   UNL     1      -5.725  -8.078  -5.040  0.00  0.00    +0.002 A 
ATOM     11  C   UNL     1      -5.737  -6.735  -4.856  0.00  0.00    +0.026 A 
ATOM     12  C   UNL     1      -5.190  -6.180  -3.670  0.00  0.00    +0.043 A 
ATOM     13  N   UNL     1      -5.083  -4.932  -3.260  0.00  0.00    -0.380 N 
ATOM     14  C   UNL     1      -4.437  -4.909  -1.944  0.00  0.00    +0.152 C 
ATOM     15  H   UNL     1      -5.388  -4.152  -3.749  0.00  0.00    +0.160 HD
ENDBRANCH   2   6
BRANCH   1  19
ATOM     16  C   UNL     1      -3.212  -1.929   1.022  0.00  0.00    +0.121 A 
ATOM     17  C   UNL     1      -1.987  -2.572   0.922  0.00  0.00    +0.047 A 
ATOM     18  C   UNL     1      -1.936  -3.946   0.792  0.00  0.00    +0.030 A 
ATOM     19  C   UNL     1      -3.112  -4.684   0.762  0.00  0.00    +0.051 A 
ATOM     20  C   UNL     1      -4.338  -4.040   0.863  0.00  0.00    +0.030 A 
ATOM     21  C   UNL     1      -4.387  -2.667   0.998  0.00  0.00    +0.047 A 
BRANCH  16  22
ATOM     22  O   UNL     1      -3.261  -0.577   1.150  0.00  0.00    -0.492 OA
BRANCH  22  24
ATOM     23  C   UNL     1      -2.268   1.620   1.317  0.00  0.00    +0.048 C 
ATOM     24  C   UNL     1      -2.013   0.119   1.168  0.00  0.00    +0.225 C 
ENDBRANCH  22  24
ENDBRANCH  16  22
ENDBRANCH   1  19
BRANCH   5  25
ATOM     25  S   UNL     1      -1.793  -6.587   3.067  0.00  0.00    -0.076 S 
BRANCH  25  26
ATOM     26  C   UNL     1      -1.319  -8.203   3.739  0.00  0.00    +0.173 C 
BRANCH  26  27
ATOM     27  C   UNL     1      -0.660  -8.015   5.081  0.00  0.00    +0.226 C 
ATOM     28  O   UNL     1      -0.523  -6.900   5.539  0.00  0.00    -0.275 OA
ATOM     29  N   UNL     1      -0.222  -9.086   5.773  0.00  0.00    -0.298 N 
ATOM     30  C   UNL     1      -0.375 -10.442   5.228  0.00  0.00    +0.127 C 
ATOM     31  C   UNL     1       1.003 -11.114   5.191  0.00  0.00    +0.126 C 
ATOM     32  N   UNL     1       1.643 -10.946   6.503  0.00  0.00    -0.299 N 
ATOM     33  C   UNL     1       1.796  -9.589   7.048  0.00  0.00    +0.126 C 
ATOM     34  C   UNL     1       0.423  -8.917   7.083  0.00  0.00    +0.127 C 
ATOM     35  C   UNL     1       2.081 -12.016   7.195  0.00  0.00    +0.213 C 
ATOM     36  O   UNL     1       1.865 -13.136   6.781  0.00  0.00    -0.276 OA
ATOM     37  C   UNL     1       2.838 -11.823   8.483  0.00  0.00    +0.109 C 
ENDBRANCH  26  27
ENDBRANCH  25  26
ENDBRANCH   5  25
TORSDOF 7
