REMARK  Name = ZINC21247209
REMARK  7 active torsions:
REMARK  status: ('A' for Active; 'I' for Inactive)
REMARK    1  A    between atoms: C_1  and  C_2
REMARK    2  A    between atoms: C_2  and  C_3
REMARK    3  A    between atoms: C_6  and  C_9
REMARK    4  A    between atoms: C_14  and  C_24
REMARK    5  A    between atoms: C_28  and  O_31
REMARK    6  A    between atoms: C_29  and  O_30
REMARK    7  A    between atoms: O_31  and  C_32
REMARK                            x       y       z     vdW  Elec       q    Type
REMARK                         _______ _______ _______ _____ _____    ______ ____
ROOT
ATOM      1  C   UNL     1       2.325   7.631   3.666  0.00  0.00    +0.032 C 
ATOM      2  C   UNL     1       3.693   6.962   3.545  0.00  0.00    +0.059 C 
ATOM      3  C   UNL     1       3.912   6.485   2.118  0.00  0.00    +0.017 C 
ATOM      4  C   UNL     1       2.875   6.067   1.374  0.00  0.00    +0.037 C 
ATOM      5  C   UNL     1       2.953   5.547  -0.042  0.00  0.00    +0.140 C 
ATOM      6  N   UNL     1       4.231   5.762  -0.687  0.00  0.00    -0.331 N 
ATOM      7  C   UNL     1       5.388   5.146  -0.222  0.00  0.00    +0.049 A 
ATOM      8  C   UNL     1       6.033   4.166  -0.959  0.00  0.00    +0.025 A 
ATOM      9  C   UNL     1       7.116   3.503  -0.408  0.00  0.00    +0.002 A 
ATOM     10  C   UNL     1       7.553   3.814   0.867  0.00  0.00    +0.002 A 
ATOM     11  C   UNL     1       6.923   4.808   1.598  0.00  0.00    +0.025 A 
ATOM     12  C   UNL     1       5.851   5.484   1.041  0.00  0.00    +0.052 A 
ATOM     13  N   UNL     1       5.203   6.521   1.701  0.00  0.00    -0.316 N 
ATOM     14  C   UNL     1       1.563   6.093   1.901  0.00  0.00    +0.163 C 
ATOM     15  O   UNL     1       0.646   5.694   1.211  0.00  0.00    -0.292 OA
ATOM     16  C   UNL     1       1.263   6.594   3.282  0.00  0.00    +0.088 C 
ATOM     17  H   UNL     1       4.301   6.424  -1.563  0.00  0.00    +0.147 HD
ATOM     18  H   UNL     1       5.814   7.418   1.880  0.00  0.00    +0.152 HD
ENDROOT
BRANCH   1  22
ATOM     19  C   UNL     1       1.699   8.927   7.688  0.00  0.00    -0.048 A 
ATOM     20  C   UNL     1       1.690   9.847   6.656  0.00  0.00    +0.004 A 
ATOM     21  C   UNL     1       1.893   9.428   5.355  0.00  0.00    +0.004 A 
ATOM     22  C   UNL     1       2.104   8.088   5.085  0.00  0.00    -0.043 A 
ATOM     23  C   UNL     1       2.108   7.168   6.117  0.00  0.00    +0.004 A 
ATOM     24  C   UNL     1       1.910   7.588   7.419  0.00  0.00    +0.004 A 
BRANCH  19  26
ATOM     25  C   UNL     1      -0.017   9.348   9.428  0.00  0.00    +0.009 C 
ATOM     26  C   UNL     1       1.478   9.385   9.107  0.00  0.00    +0.032 C 
ENDBRANCH  19  26
ENDBRANCH   1  22
BRANCH   5  27
ATOM     27  C   UNL     1       2.670   4.067  -0.023  0.00  0.00    +0.022 A 
ATOM     28  C   UNL     1       2.750   3.362   1.164  0.00  0.00    +0.009 A 
ATOM     29  C   UNL     1       2.491   2.005   1.184  0.00  0.00    +0.004 A 
ATOM     30  C   UNL     1       2.151   1.345   0.018  0.00  0.00    +0.049 A 
ATOM     31  C   UNL     1       2.069   2.045  -1.175  0.00  0.00    +0.162 A 
ATOM     32  C   UNL     1       2.336   3.411  -1.197  0.00  0.00    +0.164 A 
BRANCH  32  33
ATOM     33  O   UNL     1       2.262   4.101  -2.366  0.00  0.00    -0.503 OA
ATOM     34  H   UNL     1       1.997   3.579  -3.297  0.00  0.00    +0.292 HD
ENDBRANCH  32  33
BRANCH  31  35
ATOM     35  O   UNL     1       1.734   1.398  -2.323  0.00  0.00    -0.491 OA
ATOM     36  C   UNL     1       1.480  -0.005  -2.227  0.00  0.00    +0.277 C 
ENDBRANCH  31  35
ENDBRANCH   5  27
TORSDOF 5
