REMARK  Name = ZINC65076366
REMARK  6 active torsions:
REMARK  status: ('A' for Active; 'I' for Inactive)
REMARK    1  A    between atoms: C_1  and  C_2
REMARK    2  A    between atoms: C_12  and  C_14
REMARK    3  A    between atoms: N_20  and  C_22
REMARK    4  A    between atoms: C_22  and  C_23
REMARK    5  A    between atoms: N_25  and  C_26
REMARK    6  A    between atoms: C_26  and  C_27
REMARK                            x       y       z     vdW  Elec       q    Type
REMARK                         _______ _______ _______ _____ _____    ______ ____
ROOT
ATOM      1  C   UNL     1       1.045  -0.768   3.499  0.00  0.00    +0.182 C 
ATOM      2  C   UNL     1       2.339   0.006   3.537  0.00  0.00    +0.007 C 
ATOM      3  C   UNL     1       2.955   0.169   4.711  0.00  0.00    +0.066 C 
ATOM      4  C   UNL     1       2.323  -0.421   5.907  0.00  0.00    +0.253 C 
ATOM      5  O   UNL     1       2.966  -0.595   6.924  0.00  0.00    -0.269 OA
ATOM      6  N   UNL     1       1.020  -0.764   5.852  0.00  0.00    -0.224 N 
ATOM      7  N   UNL     1       0.285  -0.529   4.730  0.00  0.00    -0.221 NA
ATOM      8  H   UNL     1      -0.105   0.401   4.739  0.00  0.00    +0.146 HD
ENDROOT
BRANCH   1  19
ATOM      9  C   UNL     1       1.718  -2.776   1.234  0.00  0.00    +0.029 C 
ATOM     10  C   UNL     1       1.866  -1.339   0.729  0.00  0.00    +0.083 C 
ATOM     11  C   UNL     1       1.947  -1.319  -0.806  0.00  0.00    +0.059 C 
ATOM     12  C   UNL     1       0.751  -0.500  -1.240  0.00  0.00    -0.024 A 
ATOM     13  C   UNL     1       0.306  -0.142  -2.498  0.00  0.00    +0.005 A 
ATOM     14  C   UNL     1      -0.834   0.626  -2.639  0.00  0.00    +0.000 A 
ATOM     15  C   UNL     1      -1.530   1.036  -1.516  0.00  0.00    +0.002 A 
ATOM     16  C   UNL     1      -1.090   0.681  -0.259  0.00  0.00    +0.024 A 
ATOM     17  C   UNL     1       0.061  -0.095  -0.109  0.00  0.00    +0.040 A 
ATOM     18  N   UNL     1       0.672  -0.558   1.063  0.00  0.00    -0.266 N 
ATOM     19  C   UNL     1       0.229  -0.321   2.314  0.00  0.00    +0.242 C 
ATOM     20  O   UNL     1      -0.827   0.251   2.485  0.00  0.00    -0.273 OA
ENDBRANCH   1  19
BRANCH   6  21
ATOM     21  C   UNL     1       0.388  -1.395   7.013  0.00  0.00    +0.222 C 
BRANCH  21  22
ATOM     22  C   UNL     1       0.636  -2.881   6.975  0.00  0.00    +0.232 C 
ATOM     23  O   UNL     1       1.277  -3.366   6.066  0.00  0.00    -0.274 OA
ATOM     24  N   UNL     1       0.145  -3.671   7.950  0.00  0.00    -0.310 N 
ATOM     25  H   UNL     1      -0.368  -3.284   8.676  0.00  0.00    +0.149 HD
BRANCH  24  26
ATOM     26  C   UNL     1       0.386  -5.116   7.912  0.00  0.00    +0.151 C 
BRANCH  26  27
ATOM     27  C   UNL     1      -0.274  -5.774   9.126  0.00  0.00    +0.191 C 
ATOM     28  N   UNL     1      -1.710  -5.465   9.149  0.00  0.00    -0.362 N 
ATOM     29  C   UNL     1      -1.953  -4.821  10.253  0.00  0.00    +0.060 A 
ATOM     30  C   UNL     1      -3.180  -4.256  10.831  0.00  0.00    +0.027 A 
ATOM     31  C   UNL     1      -3.127  -3.627  12.022  0.00  0.00    +0.002 A 
ATOM     32  C   UNL     1      -1.932  -3.482  12.749  0.00  0.00    +0.002 A 
ATOM     33  C   UNL     1      -0.751  -3.962  12.311  0.00  0.00    +0.027 A 
ATOM     34  C   UNL     1      -0.689  -4.668  11.024  0.00  0.00    +0.060 A 
ATOM     35  N   UNL     1       0.287  -5.224  10.366  0.00  0.00    -0.362 N 
ATOM     36  H   UNL     1      -2.358  -5.698   8.465  0.00  0.00    +0.162 HD
ATOM     37  H   UNL     1       1.216  -5.267  10.643  0.00  0.00    +0.162 HD
ENDBRANCH  26  27
ENDBRANCH  24  26
ENDBRANCH  21  22
ENDBRANCH   6  21
TORSDOF 5
