REMARK  Name = ZINC09885579
REMARK  10 active torsions:
REMARK  status: ('A' for Active; 'I' for Inactive)
REMARK    1  A    between atoms: C_1  and  C_2
REMARK    2  A    between atoms: C_2  and  C_3
REMARK    3  A    between atoms: C_2  and  C_4
REMARK    4  A    between atoms: C_4  and  C_6
REMARK    5  A    between atoms: C_4  and  N_16
REMARK    6  A    between atoms: N_16  and  C_17
REMARK    7  A    between atoms: C_20  and  S_26
REMARK    8  A    between atoms: C_22  and  N_23
REMARK    9  A    between atoms: S_26  and  N_29
REMARK   10  A    between atoms: C_34  and  N_64
REMARK                            x       y       z     vdW  Elec       q    Type
REMARK                         _______ _______ _______ _____ _____    ______ ____
ROOT
ATOM      1  C   UNL     1      -5.707  -0.867  -1.423  0.00  0.00    +0.058 A 
ATOM      2  C   UNL     1      -5.764  -2.245  -1.257  0.00  0.00    +0.027 A 
ATOM      3  C   UNL     1      -6.784  -2.968  -1.843  0.00  0.00    +0.030 A 
ATOM      4  C   UNL     1      -7.743  -2.323  -2.603  0.00  0.00    +0.108 A 
ATOM      5  C   UNL     1      -7.686  -0.952  -2.775  0.00  0.00    +0.063 A 
ATOM      6  C   UNL     1      -6.671  -0.222  -2.187  0.00  0.00    +0.149 A 
ENDROOT
BRANCH   6   7
ATOM      7  N   UNL     1      -6.612   1.245  -2.371  0.00  0.00    +0.058 N 
ATOM      8  O   UNL     1      -7.515   1.824  -2.948  0.00  0.00    -0.126 OA
ATOM      9  O   UNL     1      -5.660   1.874  -1.944  0.00  0.00    -0.126 OA
ENDBRANCH   6   7
BRANCH   4  10
ATOM     10  S   UNL     1      -9.038  -3.250  -3.356  0.00  0.00    +0.061 S 
ATOM     11  O   UNL     1      -9.179  -4.442  -2.595  0.00  0.00    -0.153 OA
ATOM     12  O   UNL     1     -10.116  -2.347  -3.564  0.00  0.00    -0.153 OA
BRANCH  10  13
ATOM     13  N   UNL     1      -8.506  -3.706  -4.856  0.00  0.00    -0.180 NA
ATOM     14  C   UNL     1      -8.744  -2.856  -6.032  0.00  0.00    +0.091 C 
ATOM     15  C   UNL     1      -7.404  -2.651  -6.758  0.00  0.00    -0.062 C 
ATOM     16  C   UNL     1      -6.492  -4.691  -5.814  0.00  0.00    -0.062 C 
ATOM     17  C   UNL     1      -7.789  -4.976  -5.049  0.00  0.00    +0.091 C 
ATOM     18  C   UNL     1      -5.614  -3.819  -7.896  0.00  0.00    -0.096 C 
ATOM     19  N   UNL     1      -6.827  -3.978  -7.066  0.00  0.00    +0.380 N 
ATOM     20  H   UNL     1      -7.518  -4.528  -7.589  0.00  0.00    -0.082 HD
ENDBRANCH  10  13
ENDBRANCH   4  10
BRANCH   1  21
ATOM     21  N   UNL     1      -4.680  -0.132  -0.827  0.00  0.00    -0.335 N 
ATOM     22  H   UNL     1      -4.577   0.811  -1.030  0.00  0.00    +0.147 HD
BRANCH  21  23
ATOM     23  C   UNL     1      -3.758  -0.785   0.105  0.00  0.00    +0.103 C 
BRANCH  23  24
ATOM     24  C   UNL     1      -2.452  -0.033   0.130  0.00  0.00    -0.023 A 
ATOM     25  C   UNL     1      -2.451   1.349   0.098  0.00  0.00    +0.009 A 
ATOM     26  C   UNL     1      -1.255   2.042   0.116  0.00  0.00    +0.050 A 
ATOM     27  C   UNL     1      -0.053   1.353   0.171  0.00  0.00    +0.162 A 
ATOM     28  C   UNL     1      -0.054  -0.037   0.204  0.00  0.00    +0.162 A 
ATOM     29  C   UNL     1      -1.258  -0.726   0.182  0.00  0.00    +0.055 A 
ATOM     30  O   UNL     1       1.114  -0.733   0.259  0.00  0.00    -0.485 OA
ATOM     31  C   UNL     1       2.304  -0.023  -0.098  0.00  0.00    +0.270 C 
ATOM     32  C   UNL     1       2.284   1.337   0.613  0.00  0.00    +0.270 C 
ATOM     33  O   UNL     1       1.117   2.049   0.186  0.00  0.00    -0.485 OA
ENDBRANCH  23  24
BRANCH  23  35
ATOM     34  C   UNL     1      -4.733   0.640   1.912  0.00  0.00    +0.009 C 
ATOM     35  C   UNL     1      -4.369  -0.790   1.508  0.00  0.00    +0.007 C 
ATOM     36  C   UNL     1      -5.629  -1.658   1.512  0.00  0.00    +0.009 C 
ENDBRANCH  23  35
ENDBRANCH  21  23
ENDBRANCH   1  21
TORSDOF 7
