REMARK  Name = ZINC12697931
REMARK  4 active torsions:
REMARK  status: ('A' for Active; 'I' for Inactive)
REMARK    1  A    between atoms: C_1  and  C_2
REMARK    2  A    between atoms: C_5  and  C_7
REMARK    3  A    between atoms: N_9  and  N_10
REMARK    4  A    between atoms: C_11  and  C_13
REMARK                            x       y       z     vdW  Elec       q    Type
REMARK                         _______ _______ _______ _____ _____    ______ ____
ROOT
ATOM      1  N   UNL     1       3.165  -3.814  -0.050  0.00  0.00    -0.230 N 
ATOM      2  C   UNL     1       4.452  -4.213  -0.064  0.00  0.00    +0.267 C 
ATOM      3  O   UNL     1       5.345  -3.387  -0.068  0.00  0.00    -0.268 OA
ATOM      4  H   UNL     1       2.453  -4.472  -0.047  0.00  0.00    +0.173 HD
ENDROOT
BRANCH   2   5
ATOM      5  C   UNL     1       4.775  -5.643  -0.076  0.00  0.00    +0.076 A 
ATOM      6  C   UNL     1       6.008  -6.257  -0.096  0.00  0.00    +0.024 A 
ATOM      7  C   UNL     1       6.054  -7.653  -0.085  0.00  0.00    -0.036 A 
ATOM      8  C   UNL     1       4.875  -8.305  -0.125  0.00  0.00    -0.006 A 
ATOM      9  S   UNL     1       3.678  -7.046  -0.074  0.00  0.00    -0.088 S 
ATOM     10  C   UNL     1       4.515  -9.761  -0.264  0.00  0.00    +0.043 C 
ATOM     11  C   UNL     1       5.749 -10.654  -0.400  0.00  0.00    +0.005 C 
ATOM     12  C   UNL     1       6.382 -10.908   0.958  0.00  0.00    +0.000 C 
ATOM     13  C   UNL     1       6.339  -9.693   1.863  0.00  0.00    +0.000 C 
ATOM     14  C   UNL     1       7.550  -8.825   1.506  0.00  0.00    +0.005 C 
ATOM     15  C   UNL     1       7.404  -8.340   0.064  0.00  0.00    +0.036 C 
ENDBRANCH   2   5
BRANCH   1  18
ATOM     16  C   UNL     1       1.568  -2.048  -0.025  0.00  0.00    +0.267 C 
ATOM     17  O   UNL     1       0.675  -2.874  -0.021  0.00  0.00    -0.268 OA
ATOM     18  N   UNL     1       2.855  -2.447  -0.039  0.00  0.00    -0.230 N 
ATOM     19  H   UNL     1       3.567  -1.789  -0.042  0.00  0.00    +0.173 HD
BRANCH  16  24
ATOM     20  C   UNL     1       1.380   3.539   0.008  0.00  0.00    +0.051 C 
ATOM     21  C   UNL     1       1.160   2.048   0.002  0.00  0.00    -0.013 A 
ATOM     22  C   UNL     1      -0.017   1.368   0.010  0.00  0.00    +0.011 A 
ATOM     23  C   UNL     1       0.002  -0.004   0.002  0.00  0.00    +0.021 A 
ATOM     24  C   UNL     1       1.244  -0.619  -0.013  0.00  0.00    +0.076 A 
ATOM     25  S   UNL     1       2.347   0.784  -0.016  0.00  0.00    -0.089 S 
ENDBRANCH  16  24
ENDBRANCH   1  18
TORSDOF 3
