REMARK  Name = ZINC08636393
REMARK  6 active torsions:
REMARK  status: ('A' for Active; 'I' for Inactive)
REMARK    1  A    between atoms: C_2  and  C_3
REMARK    2  A    between atoms: C_3  and  N_4
REMARK    3  A    between atoms: C_5  and  C_7
REMARK    4  A    between atoms: C_10  and  O_33
REMARK    5  A    between atoms: C_12  and  O_32
REMARK    6  A    between atoms: N_18  and  C_22
REMARK                            x       y       z     vdW  Elec       q    Type
REMARK                         _______ _______ _______ _____ _____    ______ ____
ROOT
ATOM      1  C   UNL     1       3.730   0.442  -0.292  0.00  0.00    +0.100 C 
ATOM      2  C   UNL     1       4.731   1.224   0.525  0.00  0.00    +0.048 C 
ATOM      3  C   UNL     1       4.376   2.695   0.595  0.00  0.00    +0.146 C 
ATOM      4  C   UNL     1       2.984   2.927   1.124  0.00  0.00    +0.165 C 
ATOM      5  C   UNL     1       1.899   2.118   0.452  0.00  0.00    +0.124 C 
ATOM      6  C   UNL     1       2.299   0.737  -0.014  0.00  0.00    +0.115 C 
ATOM      7  N   UNL     1       1.649  -0.190   0.912  0.00  0.00    -0.276 N 
ATOM      8  C   UNL     1       0.809   0.518   1.687  0.00  0.00    +0.138 C 
ATOM      9  S   UNL     1      -0.215  -0.200   2.857  0.00  0.00    -0.018 S 
ATOM     10  N   UNL     1       0.846   1.839   1.458  0.00  0.00    -0.319 N 
ATOM     11  H   UNL     1       0.276   2.501   1.878  0.00  0.00    +0.148 HD
ENDROOT
BRANCH   7  12
ATOM     12  C   UNL     1       1.865  -1.568   0.981  0.00  0.00    +0.043 A 
ATOM     13  C   UNL     1       1.286  -2.409   0.054  0.00  0.00    +0.024 A 
ATOM     14  C   UNL     1       1.498  -3.783   0.111  0.00  0.00    +0.002 A 
ATOM     15  C   UNL     1       2.272  -4.335   1.085  0.00  0.00    +0.008 A 
ATOM     16  C   UNL     1       2.876  -3.513   2.052  0.00  0.00    -0.016 A 
ATOM     17  C   UNL     1       2.671  -2.112   2.002  0.00  0.00    +0.004 A 
ATOM     18  C   UNL     1       3.274  -1.293   2.969  0.00  0.00    +0.010 A 
ATOM     19  C   UNL     1       4.047  -1.853   3.940  0.00  0.00    +0.001 A 
ATOM     20  C   UNL     1       4.249  -3.231   3.991  0.00  0.00    +0.001 A 
ATOM     21  C   UNL     1       3.680  -4.056   3.070  0.00  0.00    +0.008 A 
ENDBRANCH   7  12
BRANCH   1  23
ATOM     22  N   UNL     1       4.904  -1.420   0.837  0.00  0.00    -0.304 N 
ATOM     23  C   UNL     1       3.965  -1.026  -0.047  0.00  0.00    +0.219 C 
ATOM     24  O   UNL     1       3.309  -1.854  -0.644  0.00  0.00    -0.275 OA
ATOM     25  H   UNL     1       5.343  -0.765   1.402  0.00  0.00    +0.150 HD
BRANCH  22  26
ATOM     26  C   UNL     1       5.261  -2.837   0.943  0.00  0.00    +0.193 C 
BRANCH  26  28
ATOM     27  C   UNL     1       7.233  -3.120   2.684  0.00  0.00    +0.005 C 
ATOM     28  C   UNL     1       6.358  -2.994   1.912  0.00  0.00    -0.087 C 
ENDBRANCH  26  28
ENDBRANCH  22  26
ENDBRANCH   1  23
BRANCH   4  29
ATOM     29  O   UNL     1       2.974   2.615   2.518  0.00  0.00    -0.387 OA
ATOM     30  H   UNL     1       3.583   3.150   3.045  0.00  0.00    +0.210 HD
ENDBRANCH   4  29
BRANCH   3  31
ATOM     31  O   UNL     1       4.473   3.257  -0.715  0.00  0.00    -0.389 OA
ATOM     32  H   UNL     1       5.354   3.189  -1.108  0.00  0.00    +0.210 HD
ENDBRANCH   3  31
TORSDOF 6
