REMARK  Name = ZINC19048079
REMARK  8 active torsions:
REMARK  status: ('A' for Active; 'I' for Inactive)
REMARK    1  A    between atoms: C_7  and  C_11
REMARK    2  A    between atoms: C_11  and  C_12
REMARK    3  A    between atoms: C_12  and  N_13
REMARK    4  A    between atoms: C_14  and  C_16
REMARK    5  A    between atoms: C_16  and  S_17
REMARK    6  A    between atoms: S_17  and  C_18
REMARK    7  A    between atoms: C_21  and  C_24
REMARK    8  A    between atoms: N_22  and  N_23
REMARK                            x       y       z     vdW  Elec       q    Type
REMARK                         _______ _______ _______ _____ _____    ______ ____
ROOT
ATOM      1  C   UNL     1      -0.349  -1.938  -3.573  0.00  0.00    +0.173 C 
ENDROOT
BRANCH   1   3
ATOM      2  N   UNL     1      -0.563  -2.822  -5.873  0.00  0.00    -0.314 N 
ATOM      3  C   UNL     1      -0.533  -1.750  -5.057  0.00  0.00    +0.223 C 
ATOM      4  O   UNL     1      -0.655  -0.634  -5.516  0.00  0.00    -0.275 OA
ATOM      5  H   UNL     1      -0.466  -3.715  -5.505  0.00  0.00    +0.149 HD
BRANCH   2   6
ATOM      6  C   UNL     1      -0.742  -2.640  -7.315  0.00  0.00    +0.109 C 
BRANCH   6   7
ATOM      7  C   UNL     1      -0.739  -4.005  -8.006  0.00  0.00    +0.056 C 
BRANCH   7  14
ATOM      8  C   UNL     1       2.233  -3.104 -11.518  0.00  0.00    +0.001 A 
ATOM      9  C   UNL     1       1.602  -3.013 -12.751  0.00  0.00    +0.002 A 
ATOM     10  C   UNL     1       0.239  -3.181 -12.856  0.00  0.00    +0.026 A 
ATOM     11  C   UNL     1      -0.515  -3.445 -11.717  0.00  0.00    +0.047 A 
ATOM     12  C   UNL     1       0.130  -3.536 -10.470  0.00  0.00    +0.003 A 
ATOM     13  C   UNL     1       1.512  -3.362 -10.386  0.00  0.00    +0.010 A 
ATOM     14  C   UNL     1      -0.922  -3.817  -9.490  0.00  0.00    -0.021 A 
ATOM     15  C   UNL     1      -2.081  -3.882 -10.166  0.00  0.00    +0.087 A 
ATOM     16  N   UNL     1      -1.858  -3.657 -11.497  0.00  0.00    -0.360 N 
ATOM     17  H   UNL     1      -2.543  -3.651 -12.183  0.00  0.00    +0.165 HD
ENDBRANCH   7  14
ENDBRANCH   6   7
ENDBRANCH   2   6
ENDBRANCH   1   3
BRANCH   1  18
ATOM     18  S   UNL     1      -0.353  -0.323  -2.755  0.00  0.00    -0.075 S 
BRANCH  18  19
ATOM     19  C   UNL     1      -0.128  -0.826  -1.082  0.00  0.00    +0.209 A 
ATOM     20  N   UNL     1       0.001  -2.061  -0.650  0.00  0.00    -0.121 NA
ATOM     21  N   UNL     1       0.143  -2.069   0.627  0.00  0.00    -0.127 NA
ATOM     22  C   UNL     1       0.119  -0.840   1.089  0.00  0.00    +0.183 A 
ATOM     23  N   UNL     1      -0.051  -0.006   0.007  0.00  0.00    -0.224 N 
BRANCH  22  24
ATOM     24  C   UNL     1       0.250  -0.429   2.503  0.00  0.00    +0.035 A 
ATOM     25  C   UNL     1      -0.639   0.497   3.049  0.00  0.00    +0.013 A 
ATOM     26  C   UNL     1      -0.512   0.876   4.369  0.00  0.00    +0.001 A 
ATOM     27  C   UNL     1       0.495   0.339   5.152  0.00  0.00    +0.001 A 
ATOM     28  C   UNL     1       1.381  -0.579   4.618  0.00  0.00    +0.016 A 
ATOM     29  C   UNL     1       1.261  -0.971   3.300  0.00  0.00    +0.029 A 
ATOM     30 BR   UNL     1       2.467  -2.233   2.572  0.00  0.00    -0.050 Br
ENDBRANCH  22  24
BRANCH  23  31
ATOM     31  N   UNL     1      -0.133   1.357   0.022  0.00  0.00    -0.295 N 
ATOM     32  H   UNL     1       0.767   1.775  -0.163  0.00  0.00    +0.163 HD
ATOM     33  H   UNL     1      -0.825   1.685  -0.635  0.00  0.00    +0.163 HD
ENDBRANCH  23  31
ENDBRANCH  18  19
ENDBRANCH   1  18
TORSDOF 8
