REMARK  Name = ZINC20882746
REMARK  7 active torsions:
REMARK  status: ('A' for Active; 'I' for Inactive)
REMARK    1  A    between atoms: C_1  and  C_2
REMARK    2  A    between atoms: C_2  and  C_3
REMARK    3  A    between atoms: C_3  and  O_4
REMARK    4  A    between atoms: O_4  and  C_5
REMARK    5  A    between atoms: C_8  and  C_11
REMARK    6  A    between atoms: C_16  and  C_26
REMARK    7  A    between atoms: C_29  and  O_32
REMARK                            x       y       z     vdW  Elec       q    Type
REMARK                         _______ _______ _______ _____ _____    ______ ____
ROOT
ATOM      1  C   UNL     1      -1.862  -0.998  -4.244  0.00  0.00    +0.032 C 
ATOM      2  C   UNL     1      -2.184  -2.292  -3.499  0.00  0.00    +0.059 C 
ATOM      3  C   UNL     1      -1.716  -2.193  -2.058  0.00  0.00    +0.017 C 
ATOM      4  C   UNL     1      -1.718  -1.010  -1.419  0.00  0.00    +0.036 C 
ATOM      5  C   UNL     1      -1.293  -0.774   0.010  0.00  0.00    +0.136 C 
ATOM      6  N   UNL     1      -1.105  -1.979   0.790  0.00  0.00    -0.331 N 
ATOM      7  C   UNL     1      -0.101  -2.891   0.468  0.00  0.00    +0.049 A 
ATOM      8  C   UNL     1       0.959  -3.134   1.326  0.00  0.00    +0.025 A 
ATOM      9  C   UNL     1       1.957  -4.012   0.942  0.00  0.00    +0.002 A 
ATOM     10  C   UNL     1       1.901  -4.642  -0.288  0.00  0.00    +0.002 A 
ATOM     11  C   UNL     1       0.833  -4.415  -1.141  0.00  0.00    +0.025 A 
ATOM     12  C   UNL     1      -0.176  -3.554  -0.748  0.00  0.00    +0.052 A 
ATOM     13  N   UNL     1      -1.330  -3.369  -1.501  0.00  0.00    -0.316 N 
ATOM     14  C   UNL     1      -2.144   0.161  -2.090  0.00  0.00    +0.163 C 
ATOM     15  O   UNL     1      -2.154   1.214  -1.484  0.00  0.00    -0.292 OA
ATOM     16  C   UNL     1      -2.584   0.147  -3.524  0.00  0.00    +0.088 C 
ATOM     17  H   UNL     1      -1.759  -2.186   1.649  0.00  0.00    +0.147 HD
ATOM     18  H   UNL     1      -1.949  -4.269  -1.633  0.00  0.00    +0.152 HD
ENDROOT
BRANCH   1  22
ATOM     19  C   UNL     1      -3.241  -1.267  -8.280  0.00  0.00    +0.121 A 
ATOM     20  C   UNL     1      -1.894  -1.063  -8.018  0.00  0.00    +0.046 A 
ATOM     21  C   UNL     1      -1.451  -0.977  -6.712  0.00  0.00    +0.007 A 
ATOM     22  C   UNL     1      -2.349  -1.093  -5.667  0.00  0.00    -0.043 A 
ATOM     23  C   UNL     1      -3.691  -1.302  -5.925  0.00  0.00    +0.007 A 
ATOM     24  C   UNL     1      -4.140  -1.384  -7.229  0.00  0.00    +0.046 A 
BRANCH  19  25
ATOM     25  O   UNL     1      -3.680  -1.353  -9.563  0.00  0.00    -0.492 OA
BRANCH  25  26
ATOM     26  C   UNL     1      -5.080  -1.564  -9.758  0.00  0.00    +0.229 C 
BRANCH  26  28
ATOM     27  C   UNL     1      -6.881  -1.859 -11.464  0.00  0.00    +0.007 C 
ATOM     28  C   UNL     1      -5.382  -1.633 -11.256  0.00  0.00    +0.038 C 
ENDBRANCH  26  28
ENDBRANCH  25  26
ENDBRANCH  19  25
ENDBRANCH   1  22
BRANCH   5  29
ATOM     29  C   UNL     1       0.002  -0.004   0.002  0.00  0.00    -0.023 A 
ATOM     30  C   UNL     1       0.046   1.278   0.517  0.00  0.00    +0.009 A 
ATOM     31  C   UNL     1       1.232   1.986   0.510  0.00  0.00    +0.046 A 
ATOM     32  C   UNL     1       2.380   1.409  -0.013  0.00  0.00    +0.117 A 
ATOM     33  C   UNL     1       2.334   0.122  -0.528  0.00  0.00    +0.046 A 
ATOM     34  C   UNL     1       1.145  -0.582  -0.520  0.00  0.00    +0.009 A 
BRANCH  32  35
ATOM     35  O   UNL     1       3.549   2.103  -0.020  0.00  0.00    -0.507 OA
ATOM     36  H   UNL     1       4.458   1.645  -0.435  0.00  0.00    +0.292 HD
ENDBRANCH  32  35
ENDBRANCH   5  29
TORSDOF 6
