REMARK  Name = ZINC10812904
REMARK  14 active torsions:
REMARK  status: ('A' for Active; 'I' for Inactive)
REMARK    1  A    between atoms: C_1  and  N_62
REMARK    2  A    between atoms: C_2  and  N_62
REMARK    3  A    between atoms: C_3  and  C_4
REMARK    4  A    between atoms: C_3  and  N_62
REMARK    5  A    between atoms: C_4  and  N_5
REMARK    6  A    between atoms: C_14  and  S_15
REMARK    7  A    between atoms: S_15  and  C_16
REMARK    8  A    between atoms: C_17  and  C_19
REMARK    9  A    between atoms: C_19  and  C_20
REMARK   10  A    between atoms: C_20  and  C_21
REMARK   11  A    between atoms: C_21  and  S_22
REMARK   12  A    between atoms: S_22  and  C_25
REMARK   13  A    between atoms: C_28  and  O_31
REMARK   14  A    between atoms: O_31  and  C_32
REMARK                            x       y       z     vdW  Elec       q    Type
REMARK                         _______ _______ _______ _____ _____    ______ ____
ROOT
ATOM      1  N   UNL     1      -1.582   2.281  -6.215  0.00  0.00    -0.252 N 
ATOM      2  C   UNL     1      -1.053   1.989  -7.463  0.00  0.00    +0.168 A 
ATOM      3  N   UNL     1       0.066   1.372  -7.759  0.00  0.00    -0.223 NA
ATOM      4  C   UNL     1       0.460   1.154  -9.033  0.00  0.00    +0.094 A 
ATOM      5  C   UNL     1      -0.411   1.635 -10.035  0.00  0.00    +0.042 A 
ATOM      6  S   UNL     1      -1.726   2.352  -9.079  0.00  0.00    -0.052 S 
ATOM      7  C   UNL     1      -0.151   1.492 -11.377  0.00  0.00    +0.017 A 
ATOM      8  C   UNL     1       1.005   0.854 -11.787  0.00  0.00    +0.002 A 
ATOM      9  C   UNL     1       1.888   0.366 -10.835  0.00  0.00    +0.017 A 
ATOM     10  C   UNL     1       1.638   0.504  -9.487  0.00  0.00    +0.034 A 
ATOM     11  C   UNL     1      -0.919   1.915  -5.101  0.00  0.00    +0.221 C 
ATOM     12  O   UNL     1       0.140   1.331  -5.189  0.00  0.00    -0.275 OA
ENDROOT
BRANCH  10  13
ATOM     13  S   UNL     1       2.791  -0.132  -8.317  0.00  0.00    -0.126 S 
ATOM     14  C   UNL     1       4.102  -0.857  -9.340  0.00  0.00    +0.090 C 
ENDBRANCH  10  13
BRANCH   1  15
ATOM     15  C   UNL     1      -2.861   2.987  -6.109  0.00  0.00    +0.097 C 
BRANCH  15  16
ATOM     16  C   UNL     1      -2.609   4.496  -6.071  0.00  0.00    -0.060 C 
BRANCH  16  19
ATOM     17  C   UNL     1      -4.540   4.926  -4.676  0.00  0.00    -0.097 C 
ATOM     18  C   UNL     1      -3.714   6.648  -6.163  0.00  0.00    -0.097 C 
ATOM     19  N   UNL     1      -3.909   5.194  -5.985  0.00  0.00    +0.377 N 
ATOM     20  H   UNL     1      -4.524   4.846  -6.730  0.00  0.00    -0.083 HD
ENDBRANCH  16  19
ENDBRANCH  15  16
ENDBRANCH   1  15
BRANCH  11  21
ATOM     21  C   UNL     1      -1.493   2.232  -3.744  0.00  0.00    +0.098 C 
BRANCH  21  22
ATOM     22  C   UNL     1      -0.551   1.712  -2.657  0.00  0.00    +0.032 C 
BRANCH  22  23
ATOM     23  C   UNL     1      -1.135   2.034  -1.279  0.00  0.00    +0.172 C 
BRANCH  23  24
ATOM     24  S   UNL     1      -0.017   1.417   0.010  0.00  0.00    -0.003 S 
ATOM     25  O   UNL     1       0.002  -0.004   0.002  0.00  0.00    -0.169 OA
ATOM     26  O   UNL     1       1.195   2.158   0.002  0.00  0.00    -0.169 OA
BRANCH  24  27
ATOM     27  C   UNL     1      -0.798   1.847   1.530  0.00  0.00    +0.088 A 
ATOM     28  C   UNL     1      -0.520   3.063   2.128  0.00  0.00    +0.030 A 
ATOM     29  C   UNL     1      -1.135   3.405   3.317  0.00  0.00    +0.047 A 
ATOM     30  C   UNL     1      -2.023   2.524   3.916  0.00  0.00    +0.120 A 
ATOM     31  C   UNL     1      -2.296   1.303   3.316  0.00  0.00    +0.047 A 
ATOM     32  C   UNL     1      -1.683   0.967   2.125  0.00  0.00    +0.030 A 
BRANCH  30  33
ATOM     33  O   UNL     1      -2.626   2.856   5.088  0.00  0.00    -0.495 OA
ATOM     34  C   UNL     1      -2.298   4.129   5.647  0.00  0.00    +0.277 C 
ENDBRANCH  30  33
ENDBRANCH  24  27
ENDBRANCH  23  24
ENDBRANCH  22  23
ENDBRANCH  21  22
ENDBRANCH  11  21
TORSDOF 10
