REMARK  Name = ZINC39653414
REMARK  13 active torsions:
REMARK  status: ('A' for Active; 'I' for Inactive)
REMARK    1  A    between atoms: C_1  and  C_2
REMARK    2  A    between atoms: C_2  and  O_3
REMARK    3  A    between atoms: O_3  and  C_4
REMARK    4  A    between atoms: C_6  and  C_12
REMARK    5  A    between atoms: C_9  and  O_10
REMARK    6  A    between atoms: O_10  and  C_11
REMARK    7  A    between atoms: C_12  and  C_13
REMARK    8  A    between atoms: C_13  and  N_14
REMARK    9  A    between atoms: C_15  and  C_17
REMARK   10  A    between atoms: C_28  and  C_30
REMARK   11  A    between atoms: C_34  and  N_36
REMARK   12  A    between atoms: N_36  and  C_37
REMARK   13  A    between atoms: N_36  and  C_38
REMARK                            x       y       z     vdW  Elec       q    Type
REMARK                         _______ _______ _______ _____ _____    ______ ____
ROOT
ATOM      1  C   UNL     1      -4.160  -8.004   2.565  0.00  0.00    +0.100 C 
ATOM      2  C   UNL     1      -4.021  -7.037   3.762  0.00  0.00    +0.121 C 
ATOM      3  N   UNL     1      -5.350  -6.393   3.879  0.00  0.00    -0.296 N 
ATOM      4  C   UNL     1      -6.315  -7.485   3.606  0.00  0.00    +0.115 C 
ATOM      5  C   UNL     1      -5.667  -8.298   2.468  0.00  0.00    -0.004 C 
ATOM      6  C   UNL     1      -6.209  -7.839   1.118  0.00  0.00    -0.010 C 
ATOM      7  C   UNL     1      -7.696  -8.194   1.023  0.00  0.00    -0.082 C 
ATOM      8  N   UNL     1      -7.865  -9.644   1.174  0.00  0.00    +0.379 N 
ATOM      9  C   UNL     1      -7.427 -10.063   2.510  0.00  0.00    -0.082 C 
ATOM     10  C   UNL     1      -5.929  -9.788   2.668  0.00  0.00    -0.010 C 
ATOM     11  C   UNL     1      -5.621  -5.104   4.169  0.00  0.00    +0.247 C 
ATOM     12  O   UNL     1      -4.717  -4.295   4.241  0.00  0.00    -0.270 OA
ATOM     13  H   UNL     1      -8.838  -9.882   1.051  0.00  0.00    -0.086 HD
ATOM     14  H   UNL     1      -7.314 -10.120   0.476  0.00  0.00    -0.086 HD
ENDROOT
BRANCH  11  15
ATOM     15  C   UNL     1      -7.018  -4.676   4.399  0.00  0.00    +0.039 A 
ATOM     16  C   UNL     1      -7.992  -5.617   4.736  0.00  0.00    +0.013 A 
ATOM     17  C   UNL     1      -9.295  -5.215   4.950  0.00  0.00    +0.003 A 
ATOM     18  C   UNL     1      -9.640  -3.882   4.831  0.00  0.00    +0.023 A 
ATOM     19  C   UNL     1      -8.678  -2.937   4.495  0.00  0.00    +0.030 A 
ATOM     20  C   UNL     1      -7.364  -3.330   4.284  0.00  0.00    +0.036 A 
BRANCH  19  21
ATOM     21  N   UNL     1      -9.032  -1.591   4.375  0.00  0.00    -0.336 N 
ATOM     22  C   UNL     1     -10.439  -1.193   4.463  0.00  0.00    +0.129 C 
ATOM     23  C   UNL     1      -7.996  -0.577   4.162  0.00  0.00    +0.129 C 
ENDBRANCH  19  21
ENDBRANCH  11  15
BRANCH   1  25
ATOM     24  N   UNL     1      -3.146  -8.097   0.311  0.00  0.00    -0.315 N 
ATOM     25  C   UNL     1      -3.672  -7.347   1.300  0.00  0.00    +0.218 C 
ATOM     26  O   UNL     1      -3.751  -6.144   1.171  0.00  0.00    -0.275 OA
ATOM     27  H   UNL     1      -3.082  -9.059   0.413  0.00  0.00    +0.149 HD
BRANCH  24  28
ATOM     28  C   UNL     1      -2.671  -7.458  -0.919  0.00  0.00    +0.109 C 
BRANCH  28  29
ATOM     29  C   UNL     1      -2.126  -8.525  -1.871  0.00  0.00    +0.054 C 
BRANCH  29  32
ATOM     30  C   UNL     1       0.126  -6.839  -4.392  0.00  0.00    +0.162 A 
ATOM     31  C   UNL     1      -0.325  -7.444  -3.230  0.00  0.00    +0.053 A 
ATOM     32  C   UNL     1      -1.637  -7.868  -3.136  0.00  0.00    -0.042 A 
ATOM     33  C   UNL     1      -2.502  -7.692  -4.200  0.00  0.00    +0.007 A 
ATOM     34  C   UNL     1      -2.058  -7.090  -5.363  0.00  0.00    +0.049 A 
ATOM     35  C   UNL     1      -0.746  -6.657  -5.461  0.00  0.00    +0.162 A 
BRANCH  35  36
ATOM     36  O   UNL     1      -0.309  -6.059  -6.602  0.00  0.00    -0.491 OA
ATOM     37  C   UNL     1      -1.260  -5.905  -7.658  0.00  0.00    +0.277 C 
ENDBRANCH  35  36
BRANCH  30  38
ATOM     38  O   UNL     1       1.417  -6.421  -4.486  0.00  0.00    -0.489 OA
BRANCH  38  40
ATOM     39  C   UNL     1       3.659  -6.108  -3.641  0.00  0.00    +0.048 C 
ATOM     40  C   UNL     1       2.255  -6.641  -3.350  0.00  0.00    +0.226 C 
ENDBRANCH  38  40
ENDBRANCH  30  38
ENDBRANCH  29  32
ENDBRANCH  28  29
ENDBRANCH  24  28
ENDBRANCH   1  25
TORSDOF 9
