REMARK  Name = ZINC11868526
REMARK  9 active torsions:
REMARK  status: ('A' for Active; 'I' for Inactive)
REMARK    1  A    between atoms: C_1  and  C_2
REMARK    2  A    between atoms: C_8  and  C_9
REMARK    3  A    between atoms: C_8  and  N_57
REMARK    4  A    between atoms: C_10  and  O_33
REMARK    5  A    between atoms: C_16  and  C_29
REMARK    6  A    between atoms: C_17  and  O_20
REMARK    7  A    between atoms: O_20  and  C_21
REMARK    8  A    between atoms: C_26  and  O_27
REMARK    9  A    between atoms: O_27  and  C_28
REMARK                            x       y       z     vdW  Elec       q    Type
REMARK                         _______ _______ _______ _____ _____    ______ ____
ROOT
ATOM      1  C   UNL     1      -4.668   4.819   7.675  0.00  0.00    +0.020 A 
ATOM      2  C   UNL     1      -4.018   5.140   8.855  0.00  0.00    +0.122 A 
ATOM      3  C   UNL     1      -2.652   4.906   8.999  0.00  0.00    +0.046 A 
ATOM      4  C   UNL     1      -1.935   4.354   7.977  0.00  0.00    +0.019 A 
ATOM      5  C   UNL     1      -2.574   4.025   6.781  0.00  0.00    +0.068 A 
ATOM      6  C   UNL     1      -3.953   4.258   6.626  0.00  0.00    +0.144 A 
ATOM      7  O   UNL     1      -4.560   3.935   5.467  0.00  0.00    -0.447 OA
ATOM      8  C   UNL     1      -3.898   3.392   4.436  0.00  0.00    +0.254 A 
ATOM      9  C   UNL     1      -2.578   3.127   4.477  0.00  0.00    +0.222 A 
ATOM     10  C   UNL     1      -1.837   3.423   5.657  0.00  0.00    +0.235 A 
ATOM     11  O   UNL     1      -0.642   3.192   5.731  0.00  0.00    -0.283 OA
ENDROOT
BRANCH   8  12
ATOM     12  C   UNL     1      -4.663   3.065   3.180  0.00  0.00    +0.454 C 
ATOM     13  F   UNL     1      -5.156   1.758   3.261  0.00  0.00    -0.163 F 
ATOM     14  F   UNL     1      -5.730   3.958   3.037  0.00  0.00    -0.163 F 
ATOM     15  F   UNL     1      -3.812   3.174   2.075  0.00  0.00    -0.163 F 
ENDBRANCH   8  12
BRANCH   2  16
ATOM     16  O   UNL     1      -4.719   5.688   9.881  0.00  0.00    -0.506 OA
ATOM     17  H   UNL     1      -5.093   5.039  10.492  0.00  0.00    +0.292 HD
ENDBRANCH   2  16
BRANCH   1  18
ATOM     18  C   UNL     1      -6.146   5.076   7.531  0.00  0.00    -0.036 C 
BRANCH  18  25
ATOM     19  C   UNL     1     -10.586   3.210   8.525  0.00  0.00    +0.005 C 
ATOM     20  C   UNL     1      -9.093   2.900   8.401  0.00  0.00    -0.031 C 
ATOM     21  C   UNL     1      -8.578   2.327   9.724  0.00  0.00    -0.001 C 
ATOM     22  C   UNL     1      -7.072   2.076   9.610  0.00  0.00    -0.018 C 
ATOM     23  C   UNL     1      -6.367   3.386   9.250  0.00  0.00    -0.078 C 
ATOM     24  C   UNL     1      -8.330   4.186   8.076  0.00  0.00    -0.075 C 
ATOM     25  N   UNL     1      -6.890   3.873   7.956  0.00  0.00    +0.383 N 
ATOM     26  H   UNL     1      -6.768   3.138   7.250  0.00  0.00    -0.081 HD
ENDBRANCH  18  25
ENDBRANCH   1  18
BRANCH   9  27
ATOM     27  O   UNL     1      -1.957   2.574   3.399  0.00  0.00    -0.445 OA
BRANCH  27  28
ATOM     28  C   UNL     1      -1.432   3.412   2.466  0.00  0.00    +0.170 A 
ATOM     29  C   UNL     1      -1.533   4.784   2.629  0.00  0.00    +0.050 A 
ATOM     30  C   UNL     1      -1.004   5.634   1.676  0.00  0.00    +0.004 A 
ATOM     31  C   UNL     1      -0.368   5.119   0.561  0.00  0.00    +0.004 A 
ATOM     32  C   UNL     1      -0.259   3.751   0.395  0.00  0.00    +0.049 A 
ATOM     33  C   UNL     1      -0.787   2.893   1.346  0.00  0.00    +0.162 A 
BRANCH  33  34
ATOM     34  O   UNL     1      -0.682   1.547   1.184  0.00  0.00    -0.491 OA
ATOM     35  C   UNL     1      -0.013   1.086   0.008  0.00  0.00    +0.277 C 
ENDBRANCH  33  34
ENDBRANCH  27  28
ENDBRANCH   9  27
TORSDOF 7
