REMARK  Name = ZINC31049171
REMARK  7 active torsions:
REMARK  status: ('A' for Active; 'I' for Inactive)
REMARK    1  A    between atoms: C_1  and  N_2
REMARK    2  A    between atoms: N_2  and  C_3
REMARK    3  A    between atoms: C_3  and  C_4
REMARK    4  A    between atoms: C_12  and  C_14
REMARK    5  A    between atoms: C_14  and  C_16
REMARK    6  A    between atoms: C_14  and  N_27
REMARK    7  A    between atoms: C_16  and  C_17
REMARK                            x       y       z     vdW  Elec       q    Type
REMARK                         _______ _______ _______ _____ _____    ______ ____
ROOT
ATOM      1  C   UNL     1       4.507   2.228  -3.047  0.00  0.00    +0.165 C 
ENDROOT
BRANCH   1   2
ATOM      2  N   UNL     1       4.949   3.601  -3.305  0.00  0.00    -0.288 N 
ATOM      3  C   UNL     1       5.874   4.172  -2.509  0.00  0.00    +0.298 C 
ATOM      4  O   UNL     1       6.342   3.547  -1.576  0.00  0.00    -0.253 OA
ATOM      5  N   UNL     1       6.281   5.435  -2.746  0.00  0.00    -0.313 N 
ATOM      6  H   UNL     1       4.526   4.166  -4.149  0.00  0.00    +0.151 HD
ATOM      7  H   UNL     1       7.036   5.901  -2.096  0.00  0.00    +0.146 HD
ATOM      8  H   UNL     1       5.858   6.000  -3.589  0.00  0.00    +0.146 HD
ENDBRANCH   1   2
BRANCH   1  11
ATOM      9  C   UNL     1       2.770   0.099  -2.354  0.00  0.00    +0.132 C 
ATOM     10  N   UNL     1       3.078   1.127  -1.355  0.00  0.00    -0.299 N 
ATOM     11  C   UNL     1       3.902   2.146  -1.669  0.00  0.00    +0.236 C 
ATOM     12  O   UNL     1       4.157   2.996  -0.843  0.00  0.00    -0.274 OA
BRANCH  10  13
ATOM     13  C   UNL     1       2.490   1.046  -0.016  0.00  0.00    +0.145 C 
BRANCH  13  14
ATOM     14  C   UNL     1       1.175   1.783   0.000  0.00  0.00    +0.005 A 
ATOM     15  C   UNL     1      -0.013   1.076   0.008  0.00  0.00    +0.011 A 
ATOM     16  C   UNL     1      -1.219   1.750   0.017  0.00  0.00    +0.039 A 
ATOM     17  C   UNL     1      -1.239   3.135   0.030  0.00  0.00    +0.126 A 
ATOM     18  C   UNL     1      -0.050   3.843   0.022  0.00  0.00    +0.077 A 
ATOM     19  C   UNL     1       1.158   3.167   0.008  0.00  0.00    +0.131 A 
ATOM     20  F   UNL     1       2.319   3.858  -0.000  0.00  0.00    -0.205 F 
ATOM     21  F   UNL     1      -2.418   3.793   0.044  0.00  0.00    -0.205 F 
ENDBRANCH  13  14
ENDBRANCH  10  13
ENDBRANCH   1  11
BRANCH   1  22
ATOM     22  C   UNL     1       5.706   1.281  -3.136  0.00  0.00    +0.069 C 
BRANCH  22  23
ATOM     23  C   UNL     1       6.235   1.272  -4.547  0.00  0.00    -0.020 A 
ATOM     24  C   UNL     1       5.926   0.388  -5.509  0.00  0.00    +0.087 A 
ATOM     25  N   UNL     1       6.598   0.699  -6.660  0.00  0.00    -0.360 N 
ATOM     26  H   UNL     1       6.461   0.082  -7.561  0.00  0.00    +0.165 HD
ATOM     27  C   UNL     1       7.382   1.812  -6.459  0.00  0.00    +0.047 A 
ATOM     28  C   UNL     1       7.189   2.220  -5.126  0.00  0.00    +0.003 A 
ATOM     29  C   UNL     1       7.865   3.339  -4.635  0.00  0.00    +0.010 A 
ATOM     30  C   UNL     1       8.712   4.033  -5.453  0.00  0.00    +0.001 A 
ATOM     31  C   UNL     1       8.906   3.634  -6.768  0.00  0.00    +0.002 A 
ATOM     32  C   UNL     1       8.249   2.534  -7.273  0.00  0.00    +0.026 A 
ENDBRANCH  22  23
ENDBRANCH   1  22
TORSDOF 6
