REMARK  Name = ZINC12635631
REMARK  13 active torsions:
REMARK  status: ('A' for Active; 'I' for Inactive)
REMARK    1  A    between atoms: C_1  and  C_2
REMARK    2  A    between atoms: C_2  and  N_68
REMARK    3  A    between atoms: C_6  and  C_8
REMARK    4  A    between atoms: C_8  and  N_9
REMARK    5  A    between atoms: N_9  and  C_10
REMARK    6  A    between atoms: N_9  and  C_25
REMARK    7  A    between atoms: C_10  and  C_11
REMARK    8  A    between atoms: C_16  and  C_24
REMARK    9  A    between atoms: C_17  and  C_23
REMARK   10  A    between atoms: C_25  and  N_27
REMARK   11  A    between atoms: N_27  and  C_28
REMARK   12  A    between atoms: C_33  and  O_34
REMARK   13  A    between atoms: O_34  and  C_35
REMARK                            x       y       z     vdW  Elec       q    Type
REMARK                         _______ _______ _______ _____ _____    ______ ____
ROOT
ATOM      1  N   UNL     1      -2.688   0.960  -0.545  0.00  0.00    -0.309 N 
ENDROOT
BRANCH   1   2
ATOM      2  C   UNL     1      -3.390   1.897  -1.212  0.00  0.00    +0.137 C 
ATOM      3  S   UNL     1      -3.802   3.368  -0.440  0.00  0.00    -0.018 S 
BRANCH   2   4
ATOM      4  N   UNL     1      -3.767   1.676  -2.487  0.00  0.00    -0.294 N 
ATOM      5  H   UNL     1      -3.599   0.815  -2.900  0.00  0.00    +0.154 HD
BRANCH   4   6
ATOM      6  C   UNL     1      -4.402   2.691  -3.216  0.00  0.00    +0.075 A 
ATOM      7  C   UNL     1      -5.451   3.401  -2.651  0.00  0.00    +0.027 A 
ATOM      8  C   UNL     1      -6.075   4.402  -3.371  0.00  0.00    +0.002 A 
ATOM      9  C   UNL     1      -5.656   4.697  -4.655  0.00  0.00    +0.004 A 
ATOM     10  C   UNL     1      -4.611   3.994  -5.225  0.00  0.00    +0.047 A 
ATOM     11  C   UNL     1      -3.977   2.993  -4.508  0.00  0.00    +0.141 A 
BRANCH  11  12
ATOM     12  O   UNL     1      -2.946   2.304  -5.065  0.00  0.00    -0.493 OA
ATOM     13  C   UNL     1      -2.564   2.668  -6.393  0.00  0.00    +0.277 C 
ENDBRANCH  11  12
ENDBRANCH   4   6
ENDBRANCH   2   4
ENDBRANCH   1   2
BRANCH   1  14
ATOM     14  C   UNL     1      -2.335  -0.299  -1.206  0.00  0.00    +0.092 C 
BRANCH  14  18
ATOM     15  C   UNL     1      -3.992  -2.905   0.751  0.00  0.00    -0.078 C 
ATOM     16  C   UNL     1      -3.890  -3.659  -0.592  0.00  0.00    -0.020 C 
ATOM     17  C   UNL     1      -2.989  -2.730  -1.447  0.00  0.00    -0.016 C 
ATOM     18  C   UNL     1      -3.443  -1.328  -0.969  0.00  0.00    -0.051 C 
ATOM     19  N   UNL     1      -3.680  -1.493   0.479  0.00  0.00    +0.382 N 
ATOM     20  H   UNL     1      -2.832  -1.227   0.994  0.00  0.00    -0.081 HD
BRANCH  19  22
ATOM     21  C   UNL     1      -5.096  -0.881   2.396  0.00  0.00    -0.017 C 
ATOM     22  C   UNL     1      -4.805  -0.626   0.916  0.00  0.00    -0.082 C 
ENDBRANCH  19  22
ENDBRANCH  14  18
ENDBRANCH   1  14
BRANCH   1  23
ATOM     23  C   UNL     1      -2.278   1.200   0.841  0.00  0.00    +0.147 C 
BRANCH  23  24
ATOM     24  C   UNL     1      -0.925   1.863   0.856  0.00  0.00    +0.035 A 
ATOM     25  C   UNL     1      -0.835   3.213   0.942  0.00  0.00    +0.020 A 
ATOM     26  C   UNL     1       0.494   3.827   0.948  0.00  0.00    -0.001 A 
ATOM     27  C   UNL     1       0.650   5.215   1.027  0.00  0.00    +0.010 A 
ATOM     28  C   UNL     1       1.904   5.757   1.031  0.00  0.00    +0.004 A 
ATOM     29  C   UNL     1       3.025   4.942   0.957  0.00  0.00    -0.046 A 
ATOM     30  C   UNL     1       2.896   3.572   0.878  0.00  0.00    -0.024 A 
ATOM     31  C   UNL     1       1.629   2.998   0.873  0.00  0.00    +0.052 A 
ATOM     32  N   UNL     1       1.470   1.631   0.794  0.00  0.00    -0.322 N 
ATOM     33  H   UNL     1       2.253   1.061   0.742  0.00  0.00    +0.169 HD
ATOM     34  C   UNL     1       0.245   1.076   0.788  0.00  0.00    +0.254 A 
ATOM     35  O   UNL     1       0.142  -0.136   0.717  0.00  0.00    -0.268 OA
ATOM     36  C   UNL     1       4.122   2.700   0.798  0.00  0.00    +0.046 C 
ATOM     37  C   UNL     1       4.399   5.562   0.963  0.00  0.00    +0.044 C 
ENDBRANCH  23  24
ENDBRANCH   1  23
TORSDOF 9
