REMARK  Name = ZINC04729776
REMARK  9 active torsions:
REMARK  status: ('A' for Active; 'I' for Inactive)
REMARK    1  A    between atoms: C_1  and  O_2
REMARK    2  A    between atoms: O_2  and  C_3
REMARK    3  A    between atoms: C_7  and  C_9
REMARK    4  A    between atoms: C_11  and  C_23
REMARK    5  A    between atoms: C_13  and  C_16
REMARK    6  A    between atoms: C_21  and  O_22
REMARK    7  A    between atoms: C_26  and  C_29
REMARK    8  A    between atoms: C_29  and  O_31
REMARK    9  A    between atoms: O_31  and  C_32
REMARK                            x       y       z     vdW  Elec       q    Type
REMARK                         _______ _______ _______ _____ _____    ______ ____
ROOT
ATOM      1  C   UNL     1      -3.220   5.643   1.546  0.00  0.00    +0.040 C 
ATOM      2  N   UNL     1      -2.383   5.149   0.714  0.00  0.00    -0.299 NA
ATOM      3  C   UNL     1      -2.554   3.865   0.046  0.00  0.00    +0.081 C 
ATOM      4  C   UNL     1      -4.789   3.819   0.952  0.00  0.00    -0.028 C 
ATOM      5  C   UNL     1      -4.489   4.944   1.947  0.00  0.00    +0.044 C 
ATOM      6  N   UNL     1      -3.551   3.041   0.746  0.00  0.00    +0.401 N 
ATOM      7  H   UNL     1      -3.176   2.752   1.657  0.00  0.00    -0.081 HD
ATOM      8  H   UNL     1      -3.762   2.209   0.183  0.00  0.00    -0.081 HD
ENDROOT
BRANCH   1  13
ATOM      9  C   UNL     1      -1.488   8.878   2.355  0.00  0.00    +0.121 A 
ATOM     10  C   UNL     1      -2.379   9.439   3.260  0.00  0.00    +0.045 A 
ATOM     11  C   UNL     1      -3.537   8.767   3.606  0.00  0.00    +0.004 A 
ATOM     12  C   UNL     1      -3.818   7.536   3.048  0.00  0.00    +0.010 A 
ATOM     13  C   UNL     1      -2.926   6.962   2.141  0.00  0.00    -0.001 A 
ATOM     14  C   UNL     1      -1.757   7.642   1.793  0.00  0.00    +0.055 A 
BRANCH   9  16
ATOM     15  C   UNL     1      -0.138  10.815   2.636  0.00  0.00    +0.277 C 
ATOM     16  O   UNL     1      -0.352   9.544   2.019  0.00  0.00    -0.495 OA
ENDBRANCH   9  16
ENDBRANCH   1  13
BRANCH   4  17
ATOM     17  C   UNL     1      -5.863   2.920   1.508  0.00  0.00    -0.019 A 
ATOM     18  C   UNL     1      -5.516   1.782   2.211  0.00  0.00    +0.005 A 
ATOM     19  C   UNL     1      -6.501   0.959   2.726  0.00  0.00    +0.000 A 
ATOM     20  C   UNL     1      -7.835   1.268   2.531  0.00  0.00    +0.004 A 
ATOM     21  C   UNL     1      -8.187   2.402   1.825  0.00  0.00    +0.045 A 
ATOM     22  C   UNL     1      -7.200   3.232   1.311  0.00  0.00    +0.118 A 
BRANCH  22  23
ATOM     23  O   UNL     1      -7.544   4.348   0.616  0.00  0.00    -0.507 OA
ATOM     24  H   UNL     1      -7.641   4.204  -0.335  0.00  0.00    +0.292 HD
ENDBRANCH  22  23
ENDBRANCH   4  17
BRANCH   3  25
ATOM     25  C   UNL     1      -1.236   3.134   0.030  0.00  0.00    -0.040 A 
ATOM     26  C   UNL     1      -1.216   1.751   0.017  0.00  0.00    +0.004 A 
ATOM     27  C   UNL     1      -0.013   1.076   0.008  0.00  0.00    +0.015 A 
ATOM     28  C   UNL     1       1.186   1.792   0.000  0.00  0.00    +0.059 A 
ATOM     29  C   UNL     1       1.158   3.188   0.008  0.00  0.00    +0.015 A 
ATOM     30  C   UNL     1      -0.052   3.850   0.022  0.00  0.00    +0.004 A 
BRANCH  28  31
ATOM     31  C   UNL     1       2.478   1.076  -0.015  0.00  0.00    +0.339 C 
ATOM     32  O   UNL     1       2.499  -0.139  -0.021  0.00  0.00    -0.245 OA
BRANCH  31  33
ATOM     33  O   UNL     1       3.633   1.770  -0.022  0.00  0.00    -0.464 OA
ATOM     34  C   UNL     1       4.864   1.000  -0.037  0.00  0.00    +0.280 C 
ENDBRANCH  31  33
ENDBRANCH  28  31
ENDBRANCH   3  25
TORSDOF 7
