REMARK  Name = ZINC12346738
REMARK  9 active torsions:
REMARK  status: ('A' for Active; 'I' for Inactive)
REMARK    1  A    between atoms: C_1  and  C_2
REMARK    2  A    between atoms: C_2  and  N_3
REMARK    3  A    between atoms: C_7  and  O_31
REMARK    4  A    between atoms: N_12  and  C_13
REMARK    5  A    between atoms: C_13  and  C_15
REMARK    6  A    between atoms: N_20  and  S_21
REMARK    7  A    between atoms: S_21  and  C_24
REMARK    8  A    between atoms: O_31  and  C_32
REMARK    9  A    between atoms: C_32  and  C_33
REMARK                            x       y       z     vdW  Elec       q    Type
REMARK                         _______ _______ _______ _____ _____    ______ ____
ROOT
ATOM      1  C   UNL     1       2.881   1.324  -1.836  0.00  0.00    +0.257 C 
ATOM      2  O   UNL     1       2.742   2.474  -2.207  0.00  0.00    -0.272 OA
ENDROOT
BRANCH   1  12
ATOM      3  N   UNL     1       5.062   0.208  -4.475  0.00  0.00    -0.321 N 
ATOM      4  C   UNL     1       5.606   0.820  -5.591  0.00  0.00    +0.058 A 
ATOM      5  C   UNL     1       6.456   0.264  -6.561  0.00  0.00    +0.030 A 
ATOM      6  C   UNL     1       6.915   1.020  -7.612  0.00  0.00    +0.048 A 
ATOM      7  C   UNL     1       6.554   2.355  -7.749  0.00  0.00    +0.122 A 
ATOM      8  C   UNL     1       5.715   2.928  -6.803  0.00  0.00    +0.062 A 
ATOM      9  C   UNL     1       5.258   2.168  -5.753  0.00  0.00    +0.042 A 
ATOM     10  S   UNL     1       4.203   2.486  -4.361  0.00  0.00    -0.052 S 
ATOM     11  C   UNL     1       4.250   0.909  -3.642  0.00  0.00    +0.166 A 
ATOM     12  N   UNL     1       3.641   0.488  -2.535  0.00  0.00    -0.155 NA
BRANCH   3  14
ATOM     13  C   UNL     1       4.316  -2.086  -4.880  0.00  0.00    +0.027 C 
ATOM     14  C   UNL     1       5.358  -1.200  -4.195  0.00  0.00    +0.121 C 
ENDBRANCH   3  14
BRANCH   7  15
ATOM     15  O   UNL     1       7.017   3.090  -8.795  0.00  0.00    -0.492 OA
BRANCH  15  16
ATOM     16  C   UNL     1       7.876   2.426  -9.724  0.00  0.00    +0.225 C 
ATOM     17  C   UNL     1       8.292   3.406 -10.823  0.00  0.00    +0.048 C 
ENDBRANCH  15  16
ENDBRANCH   7  15
ENDBRANCH   1  12
BRANCH   1  18
ATOM     18  C   UNL     1       2.191   0.848  -0.584  0.00  0.00    +0.167 C 
ATOM     19  C   UNL     1       1.211  -0.294  -0.926  0.00  0.00    +0.031 C 
ATOM     20  C   UNL     1       0.002  -0.004   0.002  0.00  0.00    +0.019 C 
ATOM     21  C   UNL     1      -0.019   1.545   0.011  0.00  0.00    +0.110 C 
ATOM     22  N   UNL     1       1.401   1.942  -0.001  0.00  0.00    -0.165 NA
BRANCH  22  23
ATOM     23  S   UNL     1       2.005   3.381   0.550  0.00  0.00    +0.062 S 
ATOM     24  O   UNL     1       3.238   3.590  -0.125  0.00  0.00    -0.153 OA
ATOM     25  O   UNL     1       0.938   4.318   0.494  0.00  0.00    -0.153 OA
BRANCH  23  26
ATOM     26  C   UNL     1       2.395   3.164   2.255  0.00  0.00    +0.106 A 
ATOM     27  C   UNL     1       1.444   3.434   3.221  0.00  0.00    +0.030 A 
ATOM     28  C   UNL     1       1.748   3.259   4.558  0.00  0.00    +0.022 A 
ATOM     29  C   UNL     1       3.008   2.823   4.930  0.00  0.00    +0.041 A 
ATOM     30  C   UNL     1       3.961   2.558   3.962  0.00  0.00    +0.022 A 
ATOM     31  C   UNL     1       3.654   2.729   2.625  0.00  0.00    +0.030 A 
ATOM     32 CL   UNL     1       3.392   2.609   6.609  0.00  0.00    -0.084 Cl
ENDBRANCH  23  26
ENDBRANCH  22  23
ENDBRANCH   1  18
TORSDOF 7
