REMARK  Name = ZINC09229625
REMARK  9 active torsions:
REMARK  status: ('A' for Active; 'I' for Inactive)
REMARK    1  A    between atoms: C_1  and  C_2
REMARK    2  A    between atoms: C_3  and  C_27
REMARK    3  A    between atoms: C_5  and  N_10
REMARK    4  A    between atoms: C_6  and  C_7
REMARK    5  A    between atoms: N_10  and  C_11
REMARK    6  A    between atoms: C_11  and  N_13
REMARK    7  A    between atoms: C_14  and  C_16
REMARK    8  A    between atoms: C_17  and  C_18
REMARK    9  A    between atoms: C_21  and  N_24
REMARK                            x       y       z     vdW  Elec       q    Type
REMARK                         _______ _______ _______ _____ _____    ______ ____
ROOT
ATOM      1  C   UNL     1       1.196  -2.010  -0.020  0.00  0.00    +0.141 C 
ATOM      2  S   UNL     1      -0.274  -2.886  -0.011  0.00  0.00    -0.018 S 
ENDROOT
BRANCH   1   3
ATOM      3  N   UNL     1       1.178  -0.662  -0.013  0.00  0.00    -0.264 N 
ATOM      4  C   UNL     1       0.002  -0.004   0.002  0.00  0.00    +0.242 C 
ATOM      5  O   UNL     1      -1.043  -0.627   0.009  0.00  0.00    -0.270 OA
ATOM      6  H   UNL     1       2.012  -0.166  -0.018  0.00  0.00    +0.157 HD
BRANCH   4   7
ATOM      7  C   UNL     1      -0.018   1.459   0.010  0.00  0.00    +0.068 C 
ATOM      8  C   UNL     1      -1.195   2.117   0.019  0.00  0.00    +0.013 C 
BRANCH   8   9
ATOM      9  C   UNL     1      -1.215   3.589   0.027  0.00  0.00    -0.025 A 
ATOM     10  C   UNL     1      -0.015   4.308   0.031  0.00  0.00    +0.010 A 
ATOM     11  C   UNL     1      -0.043   5.687   0.033  0.00  0.00    +0.033 A 
ATOM     12  C   UNL     1      -1.252   6.359   0.042  0.00  0.00    +0.126 A 
ATOM     13  C   UNL     1      -2.444   5.654   0.044  0.00  0.00    +0.033 A 
ATOM     14  C   UNL     1      -2.433   4.275   0.037  0.00  0.00    +0.010 A 
BRANCH  12  15
ATOM     15  N   UNL     1      -1.273   7.839   0.050  0.00  0.00    +0.056 N 
ATOM     16  O   UNL     1      -2.336   8.433   0.059  0.00  0.00    -0.126 OA
ATOM     17  O   UNL     1      -0.226   8.462   0.048  0.00  0.00    -0.126 OA
ENDBRANCH  12  15
ENDBRANCH   8   9
ENDBRANCH   4   7
ENDBRANCH   1   3
BRANCH   1  18
ATOM     18  N   UNL     1       2.373  -2.667  -0.035  0.00  0.00    -0.291 N 
ATOM     19  H   UNL     1       3.206  -2.171  -0.040  0.00  0.00    +0.154 HD
BRANCH  18  24
ATOM     20  C   UNL     1       4.333  -7.334  -0.079  0.00  0.00    +0.045 C 
ATOM     21  C   UNL     1       3.219  -6.319  -0.063  0.00  0.00    -0.027 A 
ATOM     22  C   UNL     1       1.928  -6.696  -0.052  0.00  0.00    -0.008 A 
ATOM     23  S   UNL     1       1.049  -5.147  -0.028  0.00  0.00    -0.078 S 
ATOM     24  C   UNL     1       2.392  -4.053  -0.043  0.00  0.00    +0.084 A 
ATOM     25  C   UNL     1       3.493  -4.902  -0.058  0.00  0.00    +0.068 A 
ATOM     26  C   UNL     1       1.361  -8.092  -0.054  0.00  0.00    +0.052 C 
BRANCH  25  27
ATOM     27  C   UNL     1       4.863  -4.383  -0.068  0.00  0.00    +0.244 C 
ATOM     28  O   UNL     1       5.443  -4.173   0.981  0.00  0.00    -0.270 OA
ATOM     29  N   UNL     1       5.482  -4.138  -1.240  0.00  0.00    -0.325 N 
ATOM     30  H   UNL     1       5.020  -4.305  -2.077  0.00  0.00    +0.145 HD
ATOM     31  H   UNL     1       6.389  -3.795  -1.248  0.00  0.00    +0.145 HD
ENDBRANCH  25  27
ENDBRANCH  18  24
ENDBRANCH   1  18
TORSDOF 7
