REMARK  Name = ZINC46619390
REMARK  3 active torsions:
REMARK  status: ('A' for Active; 'I' for Inactive)
REMARK    1  A    between atoms: C_8  and  C_11
REMARK    2  A    between atoms: C_11  and  N_12
REMARK    3  A    between atoms: C_13  and  C_15
REMARK                            x       y       z     vdW  Elec       q    Type
REMARK                         _______ _______ _______ _____ _____    ______ ____
ROOT
ATOM      1  N   UNL     1       5.193  -3.271   0.115  0.00  0.00    -0.308 N 
ATOM      2  C   UNL     1       6.058  -4.168  -0.397  0.00  0.00    +0.246 C 
ATOM      3  O   UNL     1       5.688  -4.949  -1.253  0.00  0.00    -0.270 OA
ATOM      4  H   UNL     1       5.488  -2.647   0.798  0.00  0.00    +0.149 HD
ENDROOT
BRANCH   2   5
ATOM      5  C   UNL     1       7.453  -4.202   0.079  0.00  0.00    +0.061 A 
ATOM      6  C   UNL     1       7.880  -3.313   1.063  0.00  0.00    +0.015 A 
ATOM      7  C   UNL     1       9.187  -3.341   1.514  0.00  0.00    +0.001 A 
ATOM      8  C   UNL     1      10.089  -4.247   0.998  0.00  0.00    +0.010 A 
ATOM      9  C   UNL     1       9.687  -5.149   0.011  0.00  0.00    +0.004 A 
ATOM     10  C   UNL     1       8.358  -5.136  -0.453  0.00  0.00    +0.059 A 
ATOM     11  N   UNL     1       8.246  -6.121  -1.401  0.00  0.00    -0.357 N 
ATOM     12  H   UNL     1       7.435  -6.333  -1.890  0.00  0.00    +0.166 HD
ATOM     13  C   UNL     1       9.444  -6.759  -1.557  0.00  0.00    +0.020 A 
ATOM     14  C   UNL     1      10.358  -6.210  -0.735  0.00  0.00    -0.019 A 
ATOM     15  C   UNL     1      11.793  -6.654  -0.628  0.00  0.00    +0.037 C 
ATOM     16  C   UNL     1      11.926  -8.033  -1.288  0.00  0.00    +0.005 C 
ATOM     17  C   UNL     1      11.273  -7.996  -2.673  0.00  0.00    +0.006 C 
ATOM     18  C   UNL     1       9.747  -7.899  -2.503  0.00  0.00    +0.053 C 
ENDBRANCH   2   5
BRANCH   1  19
ATOM     19  C   UNL     1       3.807  -3.236  -0.358  0.00  0.00    +0.149 C 
BRANCH  19  27
ATOM     20  C   UNL     1      -0.017   1.379   0.010  0.00  0.00    +0.000 A 
ATOM     21  C   UNL     1       1.174   2.082   0.002  0.00  0.00    +0.004 A 
ATOM     22  C   UNL     1       2.379   1.411  -0.017  0.00  0.00    +0.046 A 
ATOM     23  C   UNL     1       2.407   0.019  -0.028  0.00  0.00    +0.124 A 
ATOM     24  C   UNL     1       1.204  -0.676  -0.013  0.00  0.00    -0.002 A 
ATOM     25  C   UNL     1       0.002  -0.004   0.002  0.00  0.00    +0.007 A 
ATOM     26  C   UNL     1       1.545  -2.154  -0.005  0.00  0.00    +0.085 C 
ATOM     27  C   UNL     1       3.043  -2.135   0.380  0.00  0.00    +0.195 C 
ATOM     28  O   UNL     1       3.468  -0.833  -0.059  0.00  0.00    -0.487 OA
ENDBRANCH  19  27
ENDBRANCH   1  19
TORSDOF 3
