REMARK  Name = ZINC08740295
REMARK  11 active torsions:
REMARK  status: ('A' for Active; 'I' for Inactive)
REMARK    1  A    between atoms: C_1  and  C_2
REMARK    2  A    between atoms: C_2  and  C_4
REMARK    3  A    between atoms: C_4  and  O_40
REMARK    4  A    between atoms: C_9  and  C_39
REMARK    5  A    between atoms: N_21  and  O_22
REMARK    6  A    between atoms: O_22  and  C_23
REMARK    7  A    between atoms: C_23  and  C_24
REMARK    8  A    between atoms: N_26  and  C_27
REMARK    9  A    between atoms: C_27  and  C_28
REMARK   10  A    between atoms: C_28  and  C_29
REMARK   11  A    between atoms: C_37  and  C_38
REMARK                            x       y       z     vdW  Elec       q    Type
REMARK                         _______ _______ _______ _____ _____    ______ ____
ROOT
ATOM      1  C   UNL     1      -0.119  -2.183   2.921  0.00  0.00    +0.129 C 
ATOM      2  C   UNL     1       1.397  -2.191   3.208  0.00  0.00    +0.043 C 
ATOM      3  C   UNL     1       2.094  -2.504   1.865  0.00  0.00    +0.008 C 
ATOM      4  C   UNL     1       1.059  -2.045   0.794  0.00  0.00    +0.002 C 
ATOM      5  C   UNL     1      -0.264  -2.502   1.427  0.00  0.00    +0.007 C 
ATOM      6  C   UNL     1      -1.467  -1.832   0.802  0.00  0.00    +0.010 C 
ATOM      7  C   UNL     1      -1.324  -0.315   0.868  0.00  0.00    +0.005 C 
ATOM      8  C   UNL     1      -0.068   0.107   0.091  0.00  0.00    +0.002 C 
ATOM      9  C   UNL     1       1.162  -0.516   0.725  0.00  0.00    -0.003 C 
ATOM     10  C   UNL     1       2.445  -0.193  -0.036  0.00  0.00    +0.008 C 
ATOM     11  C   UNL     1       2.402   1.171  -0.708  0.00  0.00    +0.031 C 
ATOM     12  C   UNL     1       1.439   2.075   0.060  0.00  0.00    -0.062 C 
ATOM     13  C   UNL     1       1.857   3.199   0.622  0.00  0.00    +0.026 C 
ATOM     14  C   UNL     1       0.932   4.060   1.370  0.00  0.00    +0.080 C 
ATOM     15  N   UNL     1       1.355   5.169   1.890  0.00  0.00    -0.089 NA
ATOM     16  C   UNL     1      -0.510   3.650   1.534  0.00  0.00    +0.059 C 
ATOM     17  C   UNL     1      -0.599   2.121   1.476  0.00  0.00    +0.017 C 
ATOM     18  C   UNL     1       0.002   1.639   0.154  0.00  0.00    -0.007 C 
ATOM     19  C   UNL     1      -0.789   2.234  -1.012  0.00  0.00    +0.016 C 
ATOM     20  C   UNL     1      -0.405  -4.015   1.252  0.00  0.00    +0.015 C 
ENDROOT
BRANCH   1  22
ATOM     21  C   UNL     1      -2.272  -3.089   4.086  0.00  0.00    +0.089 C 
ATOM     22  C   UNL     1      -0.810  -3.235   3.749  0.00  0.00    +0.162 C 
ATOM     23  O   UNL     1      -0.193  -4.196   4.142  0.00  0.00    -0.295 OA
ENDBRANCH   1  22
BRANCH   1  24
ATOM     24  O   UNL     1      -0.667  -0.894   3.205  0.00  0.00    -0.381 OA
ATOM     25  H   UNL     1      -0.575  -0.622   4.129  0.00  0.00    +0.211 HD
ENDBRANCH   1  24
BRANCH  15  26
ATOM     26  O   UNL     1       2.709   5.553   1.736  0.00  0.00    -0.384 OA
BRANCH  26  27
ATOM     27  C   UNL     1       3.035   6.796   2.359  0.00  0.00    +0.358 C 
BRANCH  27  28
ATOM     28  C   UNL     1       4.493   7.104   2.133  0.00  0.00    +0.253 C 
ATOM     29  O   UNL     1       5.185   6.334   1.500  0.00  0.00    -0.272 OA
ATOM     30  N   UNL     1       5.029   8.235   2.633  0.00  0.00    -0.312 N 
ATOM     31  H   UNL     1       4.476   8.851   3.139  0.00  0.00    +0.149 HD
BRANCH  30  32
ATOM     32  C   UNL     1       6.446   8.534   2.414  0.00  0.00    +0.110 C 
BRANCH  32  33
ATOM     33  C   UNL     1       6.795   9.866   3.081  0.00  0.00    +0.075 C 
BRANCH  33  34
ATOM     34  C   UNL     1       8.253  10.174   2.855  0.00  0.00    +0.060 A 
ATOM     35  C   UNL     1       8.748  11.297   2.300  0.00  0.00    +0.107 A 
ATOM     36  N   UNL     1      10.111  11.166   2.289  0.00  0.00    -0.351 N 
ATOM     37  H   UNL     1      10.769  11.836   1.946  0.00  0.00    +0.166 HD
ATOM     38  C   UNL     1      10.401   9.962   2.830  0.00  0.00    +0.196 A 
ATOM     39  N   UNL     1       9.285   9.375   3.165  0.00  0.00    -0.241 NA
ENDBRANCH  33  34
ENDBRANCH  32  33
ENDBRANCH  30  32
ENDBRANCH  27  28
ENDBRANCH  26  27
ENDBRANCH  15  26
TORSDOF 8
