REMARK  Name = ZINC36544378
REMARK  15 active torsions:
REMARK  status: ('A' for Active; 'I' for Inactive)
REMARK    1  A    between atoms: C_1  and  C_2
REMARK    2  A    between atoms: C_2  and  C_3
REMARK    3  A    between atoms: C_2  and  C_4
REMARK    4  A    between atoms: C_2  and  C_5
REMARK    5  A    between atoms: C_5  and  C_6
REMARK    6  A    between atoms: C_6  and  C_7
REMARK    7  A    between atoms: C_6  and  C_8
REMARK    8  A    between atoms: C_6  and  N_9
REMARK    9  A    between atoms: C_10  and  C_12
REMARK   10  A    between atoms: C_12  and  C_14
REMARK   11  A    between atoms: C_12  and  N_23
REMARK   12  A    between atoms: C_15  and  O_22
REMARK   13  A    between atoms: C_17  and  O_21
REMARK   14  A    between atoms: C_19  and  O_20
REMARK   15  A    between atoms: N_23  and  C_26
REMARK                            x       y       z     vdW  Elec       q    Type
REMARK                         _______ _______ _______ _____ _____    ______ ____
ROOT
ATOM      1  C   UNL     1       5.162  -0.567  -4.523  0.00  0.00    +0.204 C 
ENDROOT
BRANCH   1   2
ATOM      2  C   UNL     1       4.789   0.478  -5.543  0.00  0.00    +0.065 A 
ATOM      3  C   UNL     1       5.180   0.328  -6.865  0.00  0.00    +0.129 A 
ATOM      4  C   UNL     1       4.837   1.290  -7.803  0.00  0.00    +0.091 A 
ATOM      5  C   UNL     1       4.103   2.402  -7.420  0.00  0.00    +0.124 A 
ATOM      6  C   UNL     1       3.711   2.552  -6.098  0.00  0.00    +0.091 A 
ATOM      7  C   UNL     1       4.050   1.588  -5.161  0.00  0.00    +0.129 A 
BRANCH   7   8
ATOM      8  O   UNL     1       3.662   1.732  -3.866  0.00  0.00    -0.506 OA
ATOM      9  H   UNL     1       4.296   2.212  -3.317  0.00  0.00    +0.292 HD
ENDBRANCH   7   8
BRANCH   5  10
ATOM     10  O   UNL     1       3.767   3.344  -8.339  0.00  0.00    -0.507 OA
ATOM     11  H   UNL     1       2.921   3.182  -8.779  0.00  0.00    +0.292 HD
ENDBRANCH   5  10
BRANCH   3  12
ATOM     12  O   UNL     1       5.900  -0.762  -7.241  0.00  0.00    -0.506 OA
ATOM     13  H   UNL     1       5.364  -1.485  -7.593  0.00  0.00    +0.292 HD
ENDBRANCH   3  12
ENDBRANCH   1   2
BRANCH   1  15
ATOM     14  N   UNL     1       2.980  -1.114  -3.494  0.00  0.00    -0.308 N 
ATOM     15  C   UNL     1       4.185  -0.521  -3.377  0.00  0.00    +0.239 C 
ATOM     16  O   UNL     1       4.482   0.049  -2.349  0.00  0.00    -0.273 OA
ATOM     17  H   UNL     1       2.742  -1.570  -4.317  0.00  0.00    +0.149 HD
BRANCH  14  18
ATOM     18  C   UNL     1       2.030  -1.069  -2.380  0.00  0.00    +0.030 C 
ATOM     19  C   UNL     1       1.867   0.376  -1.906  0.00  0.00    +0.031 C 
ATOM     20  C   UNL     1       2.555  -1.928  -1.228  0.00  0.00    +0.031 C 
BRANCH  18  21
ATOM     21  C   UNL     1       0.675  -1.610  -2.842  0.00  0.00    +0.031 C 
BRANCH  21  23
ATOM     22  C   UNL     1       1.101  -1.923  -5.285  0.00  0.00    +0.010 C 
ATOM     23  C   UNL     1       0.365  -1.077  -4.243  0.00  0.00    -0.036 C 
ATOM     24  C   UNL     1       0.825   0.378  -4.349  0.00  0.00    +0.010 C 
ATOM     25  C   UNL     1      -1.142  -1.155  -4.495  0.00  0.00    +0.010 C 
ENDBRANCH  21  23
ENDBRANCH  18  21
ENDBRANCH  14  18
ENDBRANCH   1  15
BRANCH   1  26
ATOM     26  N   UNL     1       6.513  -0.302  -4.024  0.00  0.00    -0.256 N 
ATOM     27  C   UNL     1       7.519  -1.148  -4.320  0.00  0.00    +0.333 C 
ATOM     28  O   UNL     1       7.306  -2.129  -5.000  0.00  0.00    -0.279 OA
BRANCH  26  29
ATOM     29  C   UNL     1       6.760   0.831  -3.239  0.00  0.00    +0.055 A 
ATOM     30  C   UNL     1       6.644   0.758  -1.857  0.00  0.00    +0.025 A 
ATOM     31  C   UNL     1       6.888   1.877  -1.085  0.00  0.00    +0.002 A 
ATOM     32  C   UNL     1       7.247   3.070  -1.687  0.00  0.00    +0.002 A 
ATOM     33  C   UNL     1       7.363   3.146  -3.062  0.00  0.00    +0.022 A 
ATOM     34  C   UNL     1       7.126   2.029  -3.841  0.00  0.00    +0.062 A 
ATOM     35 CL   UNL     1       7.278   2.124  -5.567  0.00  0.00    -0.082 Cl
ENDBRANCH  26  29
ENDBRANCH   1  26
TORSDOF 10
