REMARK  Name = ZINC14546121
REMARK  7 active torsions:
REMARK  status: ('A' for Active; 'I' for Inactive)
REMARK    1  A    between atoms: C_1  and  O_2
REMARK    2  A    between atoms: O_2  and  C_3
REMARK    3  A    between atoms: C_8  and  C_9
REMARK    4  A    between atoms: C_20  and  S_25
REMARK    5  A    between atoms: S_25  and  N_28
REMARK    6  A    between atoms: N_28  and  C_29
REMARK    7  A    between atoms: C_29  and  C_30
REMARK                            x       y       z     vdW  Elec       q    Type
REMARK                         _______ _______ _______ _____ _____    ______ ____
ROOT
ATOM      1  C   UNL     1      -3.628   1.691   0.516  0.00  0.00    +0.108 C 
ATOM      2  C   UNL     1      -3.829   3.030  -0.169  0.00  0.00    +0.029 C 
ATOM      3  C   UNL     1      -3.821   2.874  -1.708  0.00  0.00    +0.033 C 
ATOM      4  C   UNL     1      -3.325   4.228  -2.183  0.00  0.00    -0.030 C 
ATOM      5  C   UNL     1      -2.666   4.835  -1.228  0.00  0.00    -0.023 C 
ATOM      6  C   UNL     1      -2.623   3.967   0.036  0.00  0.00    +0.049 C 
ATOM      7  C   UNL     1      -1.314   3.225   0.019  0.00  0.00    -0.018 A 
ATOM      8  C   UNL     1      -0.142   3.970   0.008  0.00  0.00    +0.034 A 
ATOM      9  C   UNL     1       1.087   3.342  -0.013  0.00  0.00    +0.106 A 
ATOM     10  C   UNL     1       1.164   1.961  -0.024  0.00  0.00    +0.030 A 
ATOM     11  C   UNL     1       0.005   1.211  -0.012  0.00  0.00    +0.025 A 
ATOM     12  C   UNL     1      -1.232   1.845   0.005  0.00  0.00    +0.031 A 
ATOM     13  N   UNL     1      -2.396   1.067   0.020  0.00  0.00    -0.336 N 
ATOM     14  H   UNL     1      -2.388   0.147  -0.288  0.00  0.00    +0.147 HD
ENDROOT
BRANCH   1  20
ATOM     15  C   UNL     1      -4.663   2.127   2.757  0.00  0.00    +0.125 A 
ATOM     16  C   UNL     1      -4.562   2.313   4.129  0.00  0.00    +0.046 A 
ATOM     17  C   UNL     1      -3.323   2.282   4.739  0.00  0.00    +0.004 A 
ATOM     18  C   UNL     1      -2.185   2.060   3.986  0.00  0.00    +0.001 A 
ATOM     19  C   UNL     1      -2.284   1.869   2.620  0.00  0.00    +0.009 A 
ATOM     20  C   UNL     1      -3.521   1.899   2.005  0.00  0.00    +0.015 A 
BRANCH  15  22
ATOM     21  C   UNL     1      -7.013   2.402   2.991  0.00  0.00    +0.277 C 
ATOM     22  O   UNL     1      -5.880   2.163   2.154  0.00  0.00    -0.495 OA
ENDBRANCH  15  22
ENDBRANCH   1  20
BRANCH   9  23
ATOM     23  S   UNL     1       2.564   4.303  -0.026  0.00  0.00    +0.059 S 
ATOM     24  O   UNL     1       2.232   5.564   0.538  0.00  0.00    -0.153 OA
ATOM     25  O   UNL     1       3.591   3.477   0.505  0.00  0.00    -0.153 OA
BRANCH  23  26
ATOM     26  N   UNL     1       2.953   4.581  -1.611  0.00  0.00    -0.186 NA
ATOM     27  H   UNL     1       3.768   4.209  -1.983  0.00  0.00    +0.148 HD
BRANCH  26  28
ATOM     28  C   UNL     1       2.067   5.390  -2.452  0.00  0.00    +0.141 C 
BRANCH  28  29
ATOM     29  C   UNL     1       2.798   5.799  -3.704  0.00  0.00    -0.032 A 
ATOM     30  C   UNL     1       3.513   6.982  -3.732  0.00  0.00    +0.005 A 
ATOM     31  C   UNL     1       4.188   7.355  -4.879  0.00  0.00    +0.000 A 
ATOM     32  C   UNL     1       4.139   6.551  -6.002  0.00  0.00    +0.000 A 
ATOM     33  C   UNL     1       3.420   5.371  -5.976  0.00  0.00    +0.000 A 
ATOM     34  C   UNL     1       2.749   4.995  -4.828  0.00  0.00    +0.005 A 
ENDBRANCH  28  29
ENDBRANCH  26  28
ENDBRANCH  23  26
ENDBRANCH   9  23
TORSDOF 6
