REMARK  Name = ZINC63295564
REMARK  6 active torsions:
REMARK  status: ('A' for Active; 'I' for Inactive)
REMARK    1  A    between atoms: C_6  and  C_11
REMARK    2  A    between atoms: N_13  and  C_14
REMARK    3  A    between atoms: C_14  and  C_15
REMARK    4  A    between atoms: C_15  and  C_16
REMARK    5  A    between atoms: C_16  and  C_17
REMARK    6  A    between atoms: N_19  and  C_20
REMARK                            x       y       z     vdW  Elec       q    Type
REMARK                         _______ _______ _______ _____ _____    ______ ____
ROOT
ATOM      1  C   UNL     1       3.391  -6.211   2.553  0.00  0.00    +0.028 C 
ENDROOT
BRANCH   1   2
ATOM      2  C   UNL     1       3.862  -4.756   2.573  0.00  0.00    +0.104 C 
BRANCH   2   5
ATOM      3  C   UNL     1       3.656  -2.764   1.185  0.00  0.00    +0.239 C 
ATOM      4  O   UNL     1       4.332  -2.165   1.995  0.00  0.00    -0.273 OA
ATOM      5  N   UNL     1       3.363  -4.065   1.381  0.00  0.00    -0.313 N 
ATOM      6  H   UNL     1       2.823  -4.543   0.734  0.00  0.00    +0.149 HD
BRANCH   3  12
ATOM      7  C   UNL     1      -0.016   1.348   0.009  0.00  0.00    +0.001 A 
ATOM      8  C   UNL     1       1.166   2.101   0.002  0.00  0.00    +0.002 A 
ATOM      9  C   UNL     1       2.391   1.535  -0.013  0.00  0.00    +0.026 A 
ATOM     10  C   UNL     1       2.529   0.120  -0.022  0.00  0.00    +0.043 A 
ATOM     11  N   UNL     1       3.587  -0.654  -0.037  0.00  0.00    -0.370 N 
ATOM     12  C   UNL     1       3.143  -2.053  -0.041  0.00  0.00    +0.190 C 
ATOM     13  C   UNL     1       1.631  -2.008  -0.025  0.00  0.00    +0.016 C 
ATOM     14  C   UNL     1       1.295  -0.698  -0.014  0.00  0.00    -0.004 A 
ATOM     15  C   UNL     1       0.002  -0.004   0.002  0.00  0.00    +0.010 A 
ATOM     16  H   UNL     1       4.509  -0.353  -0.045  0.00  0.00    +0.161 HD
ENDBRANCH   3  12
ENDBRANCH   2   5
ENDBRANCH   1   2
BRANCH   1  17
ATOM     17  C   UNL     1       3.911  -6.933   3.797  0.00  0.00    +0.097 C 
BRANCH  17  18
ATOM     18  C   UNL     1       3.447  -8.367   3.778  0.00  0.00    +0.215 C 
ATOM     19  O   UNL     1       2.767  -8.771   2.859  0.00  0.00    -0.276 OA
ATOM     20  N   UNL     1       3.788  -9.199   4.781  0.00  0.00    -0.288 N 
ATOM     21  H   UNL     1       4.332  -8.876   5.516  0.00  0.00    +0.151 HD
BRANCH  20  22
ATOM     22  C   UNL     1       3.336 -10.593   4.762  0.00  0.00    +0.224 C 
ATOM     23  N   UNL     1       3.576 -11.244   6.057  0.00  0.00    -0.316 N 
ATOM     24  C   UNL     1       4.441 -12.337   6.078  0.00  0.00    +0.043 A 
ATOM     25  C   UNL     1       4.790 -13.082   7.219  0.00  0.00    +0.024 A 
ATOM     26  C   UNL     1       5.657 -14.148   7.136  0.00  0.00    +0.002 A 
ATOM     27  C   UNL     1       6.214 -14.522   5.927  0.00  0.00    +0.001 A 
ATOM     28  C   UNL     1       5.888 -13.806   4.787  0.00  0.00    +0.016 A 
ATOM     29  C   UNL     1       5.022 -12.740   4.872  0.00  0.00    +0.032 A 
ATOM     30  S   UNL     1       4.386 -11.613   3.651  0.00  0.00    -0.082 S 
ATOM     31  H   UNL     1       3.149 -10.925   6.867  0.00  0.00    +0.149 HD
ENDBRANCH  20  22
ENDBRANCH  17  18
ENDBRANCH   1  17
TORSDOF 6
