REMARK  Name = ZINC04091108
REMARK  8 active torsions:
REMARK  status: ('A' for Active; 'I' for Inactive)
REMARK    1  A    between atoms: C_1  and  C_2
REMARK    2  A    between atoms: C_2  and  O_3
REMARK    3  A    between atoms: O_3  and  C_4
REMARK    4  A    between atoms: C_14  and  O_28
REMARK    5  A    between atoms: C_16  and  C_19
REMARK    6  A    between atoms: C_22  and  N_25
REMARK    7  A    between atoms: N_25  and  C_26
REMARK    8  A    between atoms: N_25  and  C_27
REMARK                            x       y       z     vdW  Elec       q    Type
REMARK                         _______ _______ _______ _____ _____    ______ ____
ROOT
ATOM      1  C   UNL     1       0.776  -1.798  -1.335  0.00  0.00    +0.403 C 
ATOM      2  O   UNL     1       0.312  -2.549  -0.500  0.00  0.00    -0.226 OA
ATOM      3  N   UNL     1       1.395  -2.298  -2.422  0.00  0.00    -0.262 N 
ATOM      4  C   UNL     1       1.520  -3.749  -2.628  0.00  0.00    +0.116 C 
ATOM      5  C   UNL     1       0.736  -4.159  -3.877  0.00  0.00    +0.056 C 
ATOM      6  C   UNL     1       1.081  -3.213  -5.017  0.00  0.00    -0.020 A 
ATOM      7  C   UNL     1       1.628  -1.998  -4.785  0.00  0.00    +0.013 A 
ATOM      8  S   UNL     1       1.840  -1.278  -6.389  0.00  0.00    -0.076 S 
ATOM      9  C   UNL     1       1.239  -2.510  -7.322  0.00  0.00    +0.080 A 
ATOM     10  C   UNL     1       0.863  -3.513  -6.421  0.00  0.00    +0.068 A 
ATOM     11  C   UNL     1       0.295  -4.764  -6.987  0.00  0.00    +0.220 C 
ATOM     12  N   UNL     1      -0.049  -4.758  -8.246  0.00  0.00    -0.223 NA
ATOM     13  C   UNL     1       0.026  -3.592  -9.118  0.00  0.00    +0.224 C 
ATOM     14  N   UNL     1       1.077  -2.655  -8.682  0.00  0.00    -0.313 N 
ATOM     15  C   UNL     1       1.968  -1.411  -3.453  0.00  0.00    +0.153 C 
ATOM     16  H   UNL     1       1.624  -2.167  -9.318  0.00  0.00    +0.149 HD
ENDROOT
BRANCH  13  17
ATOM     17  C   UNL     1      -1.302  -2.881  -9.104  0.00  0.00    -0.005 A 
ATOM     18  C   UNL     1      -1.354  -1.513  -9.300  0.00  0.00    +0.009 A 
ATOM     19  C   UNL     1      -2.570  -0.858  -9.288  0.00  0.00    +0.023 A 
ATOM     20  C   UNL     1      -3.741  -1.574  -9.077  0.00  0.00    +0.029 A 
ATOM     21  C   UNL     1      -3.685  -2.948  -8.880  0.00  0.00    +0.023 A 
ATOM     22  C   UNL     1      -2.467  -3.598  -8.899  0.00  0.00    +0.009 A 
BRANCH  20  23
ATOM     23  N   UNL     1      -4.973  -0.915  -9.064  0.00  0.00    -0.336 N 
ATOM     24  C   UNL     1      -5.029   0.534  -9.271  0.00  0.00    +0.129 C 
ATOM     25  C   UNL     1      -6.207  -1.672  -8.841  0.00  0.00    +0.129 C 
ENDBRANCH  20  23
ENDBRANCH  13  17
BRANCH  11  26
ATOM     26  O   UNL     1       0.139  -5.870  -6.223  0.00  0.00    -0.492 OA
ATOM     27  H   UNL     1      -0.240  -6.624  -6.696  0.00  0.00    +0.294 HD
ENDBRANCH  11  26
BRANCH   1  28
ATOM     28  O   UNL     1       0.671  -0.465  -1.174  0.00  0.00    -0.451 OA
BRANCH  28  30
ATOM     29  C   UNL     1      -0.019   1.526   0.010  0.00  0.00    +0.048 C 
ATOM     30  C   UNL     1       0.002  -0.004   0.002  0.00  0.00    +0.230 C 
ENDBRANCH  28  30
ENDBRANCH   1  28
TORSDOF 5
