REMARK  Name = ZINC39272137
REMARK  8 active torsions:
REMARK  status: ('A' for Active; 'I' for Inactive)
REMARK    1  A    between atoms: C_1  and  C_2
REMARK    2  A    between atoms: C_2  and  C_3
REMARK    3  A    between atoms: C_5  and  O_34
REMARK    4  A    between atoms: C_8  and  S_19
REMARK    5  A    between atoms: N_10  and  C_13
REMARK    6  A    between atoms: S_19  and  C_20
REMARK    7  A    between atoms: C_20  and  C_21
REMARK    8  A    between atoms: C_21  and  N_23
REMARK                            x       y       z     vdW  Elec       q    Type
REMARK                         _______ _______ _______ _____ _____    ______ ____
ROOT
ATOM      1  C   UNL     1      -1.640  -0.600   0.096  0.00  0.00    +0.119 C 
ATOM      2  C   UNL     1      -1.393  -2.111   0.099  0.00  0.00    +0.197 C 
ATOM      3  N   UNL     1      -0.773  -2.484  -1.182  0.00  0.00    -0.264 NA
ATOM      4  C   UNL     1      -1.734  -2.334  -2.281  0.00  0.00    +0.211 C 
ATOM      5  N   UNL     1      -2.328  -1.002  -2.264  0.00  0.00    -0.246 N 
ATOM      6  C   UNL     1      -2.312  -0.205  -1.190  0.00  0.00    +0.229 C 
ATOM      7  O   UNL     1      -2.860   0.875  -1.256  0.00  0.00    -0.275 OA
ATOM      8  H   UNL     1       0.059  -1.940  -1.353  0.00  0.00    +0.127 HD
ENDROOT
BRANCH   5   9
ATOM      9  C   UNL     1      -2.945  -0.535  -3.430  0.00  0.00    +0.039 A 
ATOM     10  C   UNL     1      -2.412   0.550  -4.112  0.00  0.00    +0.023 A 
ATOM     11  C   UNL     1      -3.023   1.009  -5.263  0.00  0.00    +0.002 A 
ATOM     12  C   UNL     1      -4.165   0.389  -5.735  0.00  0.00    +0.000 A 
ATOM     13  C   UNL     1      -4.699  -0.692  -5.057  0.00  0.00    +0.002 A 
ATOM     14  C   UNL     1      -4.089  -1.159  -3.910  0.00  0.00    +0.023 A 
ENDBRANCH   5   9
BRANCH   1  16
ATOM     15  C   UNL     1      -0.559   1.639   0.342  0.00  0.00    +0.005 C 
ATOM     16  C   UNL     1      -0.304   0.136   0.220  0.00  0.00    +0.013 C 
ENDBRANCH   1  16
BRANCH   2  17
ATOM     17  O   UNL     1      -0.521  -2.453   1.178  0.00  0.00    -0.377 OA
ATOM     18  H   UNL     1      -0.322  -3.397   1.239  0.00  0.00    +0.211 HD
ENDBRANCH   2  17
BRANCH   4  19
ATOM     19  S   UNL     1      -0.881  -2.588  -3.861  0.00  0.00    -0.113 S 
BRANCH  19  20
ATOM     20  C   UNL     1       0.394  -1.297  -3.884  0.00  0.00    +0.170 C 
BRANCH  20  21
ATOM     21  C   UNL     1       1.187  -1.397  -5.161  0.00  0.00    +0.248 C 
ATOM     22  O   UNL     1       0.918  -2.256  -5.979  0.00  0.00    -0.273 OA
BRANCH  21  23
ATOM     23  N   UNL     1       2.180  -0.545  -5.395  0.00  0.00    -0.156 NA
ATOM     24  C   UNL     1       2.881  -0.633  -6.523  0.00  0.00    +0.164 A 
ATOM     25  N   UNL     1       3.922   0.142  -6.919  0.00  0.00    -0.335 N 
ATOM     26  H   UNL     1       4.235   0.863  -6.350  0.00  0.00    +0.168 HD
ATOM     27  C   UNL     1       4.534  -0.097  -8.135  0.00  0.00    +0.055 A 
ATOM     28  C   UNL     1       5.611   0.573  -8.731  0.00  0.00    +0.027 A 
ATOM     29  C   UNL     1       6.084   0.183  -9.962  0.00  0.00    +0.002 A 
ATOM     30  C   UNL     1       5.514  -0.878 -10.646  0.00  0.00    +0.001 A 
ATOM     31  C   UNL     1       4.450  -1.557 -10.079  0.00  0.00    +0.017 A 
ATOM     32  C   UNL     1       3.976  -1.168  -8.848  0.00  0.00    +0.039 A 
ATOM     33  S   UNL     1       2.681  -1.734  -7.777  0.00  0.00    -0.052 S 
ENDBRANCH  21  23
ENDBRANCH  20  21
ENDBRANCH  19  20
ENDBRANCH   4  19
TORSDOF 7
