REMARK  Name = ZINC35383083
REMARK  4 active torsions:
REMARK  status: ('A' for Active; 'I' for Inactive)
REMARK    1  A    between atoms: C_1  and  C_2
REMARK    2  A    between atoms: C_8  and  N_10
REMARK    3  A    between atoms: N_10  and  C_11
REMARK    4  A    between atoms: C_16  and  N_17
REMARK                            x       y       z     vdW  Elec       q    Type
REMARK                         _______ _______ _______ _____ _____    ______ ____
ROOT
ATOM      1  C   UNL     1       2.818   0.132   2.428  0.00  0.00    +0.050 A 
ATOM      2  C   UNL     1       2.213  -0.219   3.621  0.00  0.00    +0.053 A 
ATOM      3  C   UNL     1       2.914  -0.083   4.818  0.00  0.00    +0.080 A 
ATOM      4  C   UNL     1       4.238   0.412   4.798  0.00  0.00    +0.067 A 
ATOM      5  C   UNL     1       4.839   0.763   3.588  0.00  0.00    +0.040 A 
ATOM      6  C   UNL     1       4.133   0.618   2.411  0.00  0.00    +0.047 A 
ATOM      7  C   UNL     1       4.945   0.541   6.078  0.00  0.00    +0.259 A 
ATOM      8  O   UNL     1       6.087   0.962   6.130  0.00  0.00    -0.267 OA
ATOM      9  N   UNL     1       4.280   0.176   7.198  0.00  0.00    -0.313 N 
ATOM     10  H   UNL     1       4.716   0.248   8.062  0.00  0.00    +0.170 HD
ATOM     11  C   UNL     1       3.005  -0.291   7.126  0.00  0.00    +0.199 A 
ATOM     12  N   UNL     1       2.354  -0.417   6.010  0.00  0.00    -0.237 NA
ENDROOT
BRANCH   6  13
ATOM     13  N   UNL     1       4.732   0.963   1.193  0.00  0.00    -0.357 N 
ATOM     14  H   UNL     1       4.238   0.866   0.364  0.00  0.00    +0.142 HD
ATOM     15  H   UNL     1       5.642   1.300   1.178  0.00  0.00    +0.142 HD
ENDBRANCH   6  13
BRANCH   1  16
ATOM     16  N   UNL     1       2.116  -0.004   1.231  0.00  0.00    -0.339 N 
ATOM     17  H   UNL     1       2.538   0.237   0.392  0.00  0.00    +0.146 HD
BRANCH  16  24
ATOM     18  C   UNL     1      -0.019   1.526   0.010  0.00  0.00    +0.009 C 
ATOM     19  C   UNL     1       0.002  -0.004   0.002  0.00  0.00    +0.006 C 
ATOM     20  C   UNL     1      -1.433  -0.534   0.013  0.00  0.00    +0.005 C 
ATOM     21  C   UNL     1      -1.413  -2.063   0.004  0.00  0.00    +0.000 C 
ATOM     22  C   UNL     1      -0.673  -2.570   1.244  0.00  0.00    +0.002 C 
ATOM     23  C   UNL     1       0.763  -2.041   1.233  0.00  0.00    +0.022 C 
ATOM     24  C   UNL     1       0.742  -0.511   1.242  0.00  0.00    +0.073 C 
ENDBRANCH  16  24
ENDBRANCH   1  16
TORSDOF 3
