REMARK  Name = ZINC05763988
REMARK  3 active torsions:
REMARK  status: ('A' for Active; 'I' for Inactive)
REMARK    1  A    between atoms: C_6  and  C_7
REMARK    2  A    between atoms: C_10  and  O_26
REMARK    3  A    between atoms: N_12  and  C_19
REMARK                            x       y       z     vdW  Elec       q    Type
REMARK                         _______ _______ _______ _____ _____    ______ ____
ROOT
ATOM      1  C   UNL     1      -1.294  -0.774   0.010  0.00  0.00    +0.115 C 
ATOM      2  C   UNL     1      -2.060  -0.437  -1.230  0.00  0.00    +0.072 A 
ATOM      3  C   UNL     1      -1.420   0.018  -2.407  0.00  0.00    +0.238 A 
ATOM      4  N   UNL     1      -2.327   0.234  -3.320  0.00  0.00    -0.131 NA
ATOM      5  N   UNL     1      -3.574  -0.068  -2.773  0.00  0.00    -0.244 N 
ATOM      6  C   UNL     1      -3.387  -0.485  -1.476  0.00  0.00    +0.132 A 
ATOM      7  N   UNL     1      -4.452  -0.859  -0.691  0.00  0.00    -0.270 N 
ATOM      8  C   UNL     1      -4.594  -1.239   0.543  0.00  0.00    +0.228 C 
ATOM      9  O   UNL     1      -5.743  -1.385   0.903  0.00  0.00    -0.275 OA
ATOM     10  C   UNL     1      -3.577  -1.522   1.579  0.00  0.00    +0.166 C 
ATOM     11  S   UNL     1      -2.184  -0.386   1.519  0.00  0.00    -0.138 S 
ATOM     12  H   UNL     1      -5.295  -0.833  -1.171  0.00  0.00    +0.156 HD
ENDROOT
BRANCH   1  18
ATOM     13  C   UNL     1      -0.017   1.378   0.010  0.00  0.00    +0.009 A 
ATOM     14  C   UNL     1       1.170   2.088   0.002  0.00  0.00    +0.050 A 
ATOM     15  C   UNL     1       2.380   1.416  -0.013  0.00  0.00    +0.166 A 
ATOM     16  C   UNL     1       2.399   0.023  -0.021  0.00  0.00    +0.167 A 
ATOM     17  C   UNL     1       1.207  -0.682  -0.014  0.00  0.00    +0.054 A 
ATOM     18  C   UNL     1       0.002  -0.004   0.002  0.00  0.00    -0.026 A 
ATOM     19  O   UNL     1       3.698  -0.395  -0.036  0.00  0.00    -0.453 OA
ATOM     20  C   UNL     1       4.466   0.750  -0.450  0.00  0.00    +0.466 C 
ATOM     21  O   UNL     1       3.668   1.870  -0.024  0.00  0.00    -0.453 OA
ENDBRANCH   1  18
BRANCH   5  22
ATOM     22  C   UNL     1      -4.862   0.041  -3.462  0.00  0.00    +0.109 C 
ATOM     23  C   UNL     1      -4.873  -0.936  -4.656  0.00  0.00    +0.027 C 
ATOM     24  C   UNL     1      -6.303  -1.207  -5.038  0.00  0.00    +0.002 C 
ATOM     25  C   UNL     1      -6.799  -0.278  -6.162  0.00  0.00    +0.000 C 
ATOM     26  C   UNL     1      -6.334   1.180  -5.981  0.00  0.00    +0.000 C 
ATOM     27  C   UNL     1      -6.429   1.642  -4.552  0.00  0.00    +0.002 C 
ATOM     28  C   UNL     1      -5.061   1.422  -3.873  0.00  0.00    +0.027 C 
ENDBRANCH   5  22
BRANCH   3  29
ATOM     29  O   UNL     1      -0.081   0.199  -2.562  0.00  0.00    -0.491 OA
ATOM     30  H   UNL     1       0.387  -0.584  -2.885  0.00  0.00    +0.294 HD
ENDBRANCH   3  29
TORSDOF 3
