REMARK  Name = ZINC14720430
REMARK  11 active torsions:
REMARK  status: ('A' for Active; 'I' for Inactive)
REMARK    1  A    between atoms: C_1  and  C_2
REMARK    2  A    between atoms: C_2  and  C_3
REMARK    3  A    between atoms: C_3  and  C_4
REMARK    4  A    between atoms: C_4  and  N_5
REMARK    5  A    between atoms: N_5  and  C_6
REMARK    6  A    between atoms: C_7  and  N_19
REMARK    7  A    between atoms: N_8  and  C_15
REMARK    8  A    between atoms: C_15  and  C_16
REMARK    9  A    between atoms: C_16  and  C_17
REMARK   10  A    between atoms: C_16  and  C_18
REMARK   11  A    between atoms: C_20  and  C_22
REMARK                            x       y       z     vdW  Elec       q    Type
REMARK                         _______ _______ _______ _____ _____    ______ ____
ROOT
ATOM      1  N   UNL     1      -1.032  -1.639   1.444  0.00  0.00    -0.260 N 
ATOM      2  C   UNL     1      -1.233  -1.121   2.672  0.00  0.00    +0.251 C 
ATOM      3  O   UNL     1      -2.148  -1.530   3.362  0.00  0.00    -0.270 OA
ENDROOT
BRANCH   1   4
ATOM      4  C   UNL     1       0.075  -1.222   0.676  0.00  0.00    +0.140 A 
ATOM      5  C   UNL     1       1.362  -1.425   1.131  0.00  0.00    +0.127 A 
ATOM      6  N   UNL     1       2.421  -1.008   0.359  0.00  0.00    -0.280 N 
ATOM      7  C   UNL     1       2.204  -0.403  -0.824  0.00  0.00    +0.331 A 
ATOM      8  O   UNL     1       3.154  -0.036  -1.489  0.00  0.00    -0.246 OA
ATOM      9  N   UNL     1       0.958  -0.201  -1.286  0.00  0.00    -0.273 N 
ATOM     10  H   UNL     1       0.825   0.243  -2.171  0.00  0.00    +0.173 HD
ATOM     11  C   UNL     1      -0.114  -0.591  -0.568  0.00  0.00    +0.277 A 
ATOM     12  O   UNL     1      -1.241  -0.399  -0.994  0.00  0.00    -0.266 OA
BRANCH   5  13
ATOM     13  N   UNL     1       1.583  -2.037   2.341  0.00  0.00    -0.343 N 
ATOM     14  H   UNL     1       2.457  -1.987   2.758  0.00  0.00    +0.144 HD
ATOM     15  H   UNL     1       0.864  -2.520   2.779  0.00  0.00    +0.144 HD
ENDBRANCH   5  13
BRANCH   6  16
ATOM     16  C   UNL     1       3.792  -1.217   0.829  0.00  0.00    +0.131 C 
BRANCH  16  17
ATOM     17  C   UNL     1       4.298  -2.575   0.337  0.00  0.00    +0.003 C 
ATOM     18  C   UNL     1       4.392  -2.562  -1.190  0.00  0.00    +0.009 C 
ATOM     19  C   UNL     1       5.682  -2.849   0.931  0.00  0.00    +0.009 C 
ENDBRANCH  16  17
ENDBRANCH   6  16
ENDBRANCH   1   4
BRANCH   2  20
ATOM     20  C   UNL     1      -0.343  -0.060   3.181  0.00  0.00    +0.038 A 
ATOM     21  C   UNL     1       0.349   0.774   2.291  0.00  0.00    +0.015 A 
ATOM     22  C   UNL     1       1.169   1.759   2.735  0.00  0.00    +0.029 A 
ATOM     23  C   UNL     1       1.363   1.973   4.120  0.00  0.00    +0.078 A 
ATOM     24  C   UNL     1       0.659   1.117   5.001  0.00  0.00    +0.040 A 
ATOM     25  C   UNL     1      -0.174   0.124   4.556  0.00  0.00    +0.030 A 
ATOM     26  S   UNL     1       1.174   1.714   6.591  0.00  0.00    -0.075 S 
ATOM     27  C   UNL     1       2.223   2.979   6.032  0.00  0.00    +0.157 A 
ATOM     28  N   UNL     1       2.135   2.891   4.734  0.00  0.00    -0.247 NA
ENDBRANCH   2  20
BRANCH   1  29
ATOM     29  C   UNL     1      -1.963  -2.635   0.907  0.00  0.00    +0.114 C 
BRANCH  29  30
ATOM     30  C   UNL     1      -1.558  -4.027   1.397  0.00  0.00    +0.019 C 
BRANCH  30  32
ATOM     31  C   UNL     1      -2.126  -6.459   1.325  0.00  0.00    +0.004 C 
ATOM     32  C   UNL     1      -2.531  -5.067   0.836  0.00  0.00    -0.002 C 
ENDBRANCH  30  32
ENDBRANCH  29  30
ENDBRANCH   1  29
TORSDOF 8
