REMARK  Name = ZINC36576231
REMARK  10 active torsions:
REMARK  status: ('A' for Active; 'I' for Inactive)
REMARK    1  A    between atoms: C_1  and  C_2
REMARK    2  A    between atoms: C_2  and  C_3
REMARK    3  A    between atoms: C_2  and  C_4
REMARK    4  A    between atoms: C_2  and  O_5
REMARK    5  A    between atoms: O_5  and  C_6
REMARK    6  A    between atoms: N_8  and  C_9
REMARK    7  A    between atoms: C_9  and  C_10
REMARK    8  A    between atoms: C_13  and  C_16
REMARK    9  A    between atoms: N_18  and  C_19
REMARK   10  A    between atoms: C_19  and  C_20
REMARK                            x       y       z     vdW  Elec       q    Type
REMARK                         _______ _______ _______ _____ _____    ______ ____
ROOT
ATOM      1  C   UNL     1       4.579  -0.657  -3.906  0.00  0.00    +0.006 C 
ATOM      2  C   UNL     1       3.823  -0.051  -5.091  0.00  0.00    +0.006 C 
ATOM      3  C   UNL     1       4.367  -0.637  -6.396  0.00  0.00    +0.013 C 
ATOM      4  C   UNL     1       5.856  -0.310  -6.520  0.00  0.00    +0.075 C 
ATOM      5  C   UNL     1       6.612  -0.916  -5.335  0.00  0.00    +0.013 C 
ATOM      6  C   UNL     1       6.068  -0.330  -4.030  0.00  0.00    +0.006 C 
ENDROOT
BRANCH   4   7
ATOM      7  C   UNL     1       6.392  -0.887  -7.805  0.00  0.00    +0.216 C 
ATOM      8  O   UNL     1       5.654  -1.499  -8.548  0.00  0.00    -0.276 OA
ATOM      9  N   UNL     1       7.690  -0.722  -8.128  0.00  0.00    -0.315 N 
ATOM     10  H   UNL     1       8.279  -0.233  -7.534  0.00  0.00    +0.149 HD
BRANCH   9  11
ATOM     11  C   UNL     1       8.210  -1.283  -9.377  0.00  0.00    +0.106 C 
BRANCH  11  12
ATOM     12  C   UNL     1       9.700  -0.956  -9.502  0.00  0.00    -0.008 C 
ATOM     13  C   UNL     1      10.470  -1.663  -8.385  0.00  0.00    +0.002 C 
ATOM     14  C   UNL     1      11.965  -1.375  -8.563  0.00  0.00    -0.018 C 
ATOM     15  C   UNL     1      12.399  -1.856  -9.947  0.00  0.00    -0.078 C 
ATOM     16  N   UNL     1      11.646  -1.143 -10.990  0.00  0.00    +0.382 N 
ATOM     17  C   UNL     1      10.213  -1.431 -10.865  0.00  0.00    -0.064 C 
ATOM     18  C   UNL     1       9.433  -0.687 -11.954  0.00  0.00    -0.015 C 
ATOM     19  C   UNL     1       9.931  -1.118 -13.334  0.00  0.00    -0.003 C 
ATOM     20  C   UNL     1      11.436  -0.840 -13.421  0.00  0.00    -0.019 C 
ATOM     21  C   UNL     1      12.142  -1.595 -12.299  0.00  0.00    -0.078 C 
ATOM     22  H   UNL     1      11.800  -0.150 -10.897  0.00  0.00    -0.081 HD
ENDBRANCH  11  12
ENDBRANCH   9  11
ENDBRANCH   4   7
BRANCH   1  23
ATOM     23  C   UNL     1       4.035  -0.071  -2.601  0.00  0.00    +0.111 C 
BRANCH  23  26
ATOM     24  C   UNL     1       1.952  -0.085  -1.337  0.00  0.00    +0.401 C 
ATOM     25  O   UNL     1       2.488   0.619  -0.503  0.00  0.00    -0.226 OA
ATOM     26  N   UNL     1       2.641  -0.485  -2.424  0.00  0.00    -0.281 N 
ATOM     27  H   UNL     1       2.213  -1.047  -3.089  0.00  0.00    +0.152 HD
BRANCH  24  28
ATOM     28  O   UNL     1       0.671  -0.465  -1.174  0.00  0.00    -0.445 OA
BRANCH  28  30
ATOM     29  C   UNL     1      -0.019   1.526   0.010  0.00  0.00    +0.055 C 
ATOM     30  C   UNL     1       0.002  -0.004   0.002  0.00  0.00    +0.107 C 
ATOM     31  C   UNL     1       0.742  -0.511   1.242  0.00  0.00    +0.055 C 
ATOM     32  C   UNL     1      -1.433  -0.534   0.013  0.00  0.00    +0.055 C 
ENDBRANCH  28  30
ENDBRANCH  24  28
ENDBRANCH  23  26
ENDBRANCH   1  23
TORSDOF 7
