REMARK  Name = ZINC59400240
REMARK  8 active torsions:
REMARK  status: ('A' for Active; 'I' for Inactive)
REMARK    1  A    between atoms: C_3  and  C_8
REMARK    2  A    between atoms: C_11  and  C_13
REMARK    3  A    between atoms: N_15  and  C_16
REMARK    4  A    between atoms: C_16  and  C_17
REMARK    5  A    between atoms: C_17  and  C_18
REMARK    6  A    between atoms: C_18  and  N_19
REMARK    7  A    between atoms: N_19  and  C_20
REMARK    8  A    between atoms: C_23  and  N_27
REMARK                            x       y       z     vdW  Elec       q    Type
REMARK                         _______ _______ _______ _____ _____    ______ ____
ROOT
ATOM      1  C   UNL     1       5.619   5.197  -0.018  0.00  0.00    +0.279 C 
ATOM      2  O   UNL     1       6.823   5.376  -0.031  0.00  0.00    -0.267 OA
ATOM      3  N   UNL     1       4.782   6.253   0.002  0.00  0.00    -0.309 N 
ATOM      4  H   UNL     1       3.822   6.111   0.013  0.00  0.00    +0.149 HD
ENDROOT
BRANCH   1   8
ATOM      5  C   UNL     1       3.656   2.161  -0.022  0.00  0.00    +0.136 A 
ATOM      6  C   UNL     1       4.906   1.613  -0.042  0.00  0.00    +0.050 A 
ATOM      7  C   UNL     1       5.819   2.672  -0.043  0.00  0.00    +0.055 A 
ATOM      8  C   UNL     1       5.080   3.835  -0.024  0.00  0.00    +0.190 A 
ATOM      9  O   UNL     1       3.773   3.500  -0.017  0.00  0.00    -0.450 OA
BRANCH   5  12
ATOM     10  C   UNL     1      -0.017   1.379   0.010  0.00  0.00    +0.002 A 
ATOM     11  C   UNL     1       1.167   2.088   0.002  0.00  0.00    +0.011 A 
ATOM     12  C   UNL     1       2.385   1.408  -0.013  0.00  0.00    +0.019 A 
ATOM     13  C   UNL     1       2.398   0.011  -0.021  0.00  0.00    +0.031 A 
ATOM     14  C   UNL     1       1.207  -0.686  -0.013  0.00  0.00    +0.042 A 
ATOM     15  C   UNL     1       0.002  -0.004   0.002  0.00  0.00    +0.020 A 
ATOM     16 CL   UNL     1       1.220  -2.422  -0.023  0.00  0.00    -0.084 Cl
ENDBRANCH   5  12
ENDBRANCH   1   8
BRANCH   3  17
ATOM     17  C   UNL     1       5.321   7.615   0.008  0.00  0.00    +0.106 C 
BRANCH  17  18
ATOM     18  C   UNL     1       4.167   8.620   0.032  0.00  0.00    +0.037 C 
BRANCH  18  19
ATOM     19  C   UNL     1       4.729  10.043   0.038  0.00  0.00    +0.103 C 
BRANCH  19  20
ATOM     20  N   UNL     1       3.625  11.005   0.060  0.00  0.00    -0.343 N 
ATOM     21  H   UNL     1       2.708  10.690   0.069  0.00  0.00    +0.146 HD
BRANCH  20  22
ATOM     22  C   UNL     1       3.893  12.376   0.070  0.00  0.00    +0.046 A 
ATOM     23  C   UNL     1       5.206  12.829   0.052  0.00  0.00    +0.026 A 
ATOM     24  C   UNL     1       5.467  14.185   0.061  0.00  0.00    +0.034 A 
ATOM     25  C   UNL     1       4.424  15.093   0.088  0.00  0.00    +0.128 A 
ATOM     26  C   UNL     1       3.115  14.646   0.105  0.00  0.00    +0.054 A 
ATOM     27  C   UNL     1       2.846  13.290   0.091  0.00  0.00    +0.064 A 
ATOM     28 CL   UNL     1       1.203  12.730   0.106  0.00  0.00    -0.082 Cl
BRANCH  25  29
ATOM     29  N   UNL     1       4.708  16.545   0.098  0.00  0.00    +0.056 N 
ATOM     30  O   UNL     1       5.852  16.937   0.083  0.00  0.00    -0.126 OA
ATOM     31  O   UNL     1       3.797  17.339   0.122  0.00  0.00    -0.126 OA
ENDBRANCH  25  29
ENDBRANCH  20  22
ENDBRANCH  19  20
ENDBRANCH  18  19
ENDBRANCH  17  18
ENDBRANCH   3  17
TORSDOF 8
