REMARK  Name = ZINC39024547
REMARK  4 active torsions:
REMARK  status: ('A' for Active; 'I' for Inactive)
REMARK    1  A    between atoms: C_4  and  C_7
REMARK    2  A    between atoms: C_7  and  N_8
REMARK    3  A    between atoms: C_15  and  O_33
REMARK    4  A    between atoms: C_17  and  C_21
REMARK                            x       y       z     vdW  Elec       q    Type
REMARK                         _______ _______ _______ _____ _____    ______ ____
ROOT
ATOM      1  N   UNL     1       4.090  -1.056   1.334  0.00  0.00    -0.266 N 
ATOM      2  C   UNL     1       4.826  -0.149   2.103  0.00  0.00    +0.042 A 
ATOM      3  C   UNL     1       4.873   1.192   1.746  0.00  0.00    +0.024 A 
ATOM      4  C   UNL     1       5.602   2.082   2.510  0.00  0.00    +0.002 A 
ATOM      5  C   UNL     1       6.284   1.639   3.629  0.00  0.00    +0.000 A 
ATOM      6  C   UNL     1       6.239   0.304   3.986  0.00  0.00    +0.008 A 
ATOM      7  C   UNL     1       5.512  -0.590   3.226  0.00  0.00    +0.003 A 
ATOM      8  C   UNL     1       5.461  -2.046   3.613  0.00  0.00    +0.167 C 
ATOM      9  C   UNL     1       4.089  -2.621   3.257  0.00  0.00    +0.194 C 
ATOM     10  C   UNL     1       3.723  -2.244   1.847  0.00  0.00    +0.235 C 
ATOM     11  O   UNL     1       3.093  -3.023   1.163  0.00  0.00    -0.274 OA
ENDROOT
BRANCH   9  12
ATOM     12  C   UNL     1       3.054  -2.066   4.201  0.00  0.00    +0.233 C 
ATOM     13  O   UNL     1       3.381  -1.287   5.071  0.00  0.00    -0.274 OA
ATOM     14  N   UNL     1       1.763  -2.434   4.077  0.00  0.00    -0.264 N 
ATOM     15  C   UNL     1       0.811  -1.924   4.945  0.00  0.00    +0.165 A 
ATOM     16  N   UNL     1       0.969  -1.076   5.934  0.00  0.00    -0.225 NA
ATOM     17  C   UNL     1      -0.059  -0.661   6.705  0.00  0.00    +0.080 A 
ATOM     18  C   UNL     1      -0.025   0.242   7.794  0.00  0.00    +0.029 A 
ATOM     19  C   UNL     1      -1.170   0.558   8.477  0.00  0.00    +0.002 A 
ATOM     20  C   UNL     1      -2.397   0.011   8.129  0.00  0.00    +0.001 A 
ATOM     21  C   UNL     1      -2.467  -0.875   7.069  0.00  0.00    +0.017 A 
ATOM     22  C   UNL     1      -1.325  -1.198   6.380  0.00  0.00    +0.041 A 
ATOM     23  S   UNL     1      -0.946  -2.247   4.996  0.00  0.00    -0.052 S 
ATOM     24  H   UNL     1       1.501  -3.057   3.381  0.00  0.00    +0.157 HD
ENDBRANCH   9  12
BRANCH   8  25
ATOM     25  O   UNL     1       6.475  -2.762   2.906  0.00  0.00    -0.386 OA
ATOM     26  H   UNL     1       7.373  -2.451   3.085  0.00  0.00    +0.210 HD
ENDBRANCH   8  25
BRANCH   1  27
ATOM     27  C   UNL     1       3.711  -0.707  -0.038  0.00  0.00    +0.148 C 
BRANCH  27  31
ATOM     28  C   UNL     1       6.918  -1.667  -2.691  0.00  0.00    +0.000 A 
ATOM     29  C   UNL     1       5.960  -2.617  -2.393  0.00  0.00    +0.000 A 
ATOM     30  C   UNL     1       4.922  -2.307  -1.535  0.00  0.00    +0.005 A 
ATOM     31  C   UNL     1       4.843  -1.046  -0.973  0.00  0.00    -0.030 A 
ATOM     32  C   UNL     1       5.802  -0.096  -1.270  0.00  0.00    +0.005 A 
ATOM     33  C   UNL     1       6.839  -0.406  -2.130  0.00  0.00    +0.000 A 
ENDBRANCH  27  31
ENDBRANCH   1  27
TORSDOF 4
