REMARK  Name = ZINC22684485
REMARK  12 active torsions:
REMARK  status: ('A' for Active; 'I' for Inactive)
REMARK    1  A    between atoms: C_1  and  C_2
REMARK    2  A    between atoms: C_2  and  C_3
REMARK    3  A    between atoms: C_6  and  C_9
REMARK    4  A    between atoms: C_9  and  C_11
REMARK    5  A    between atoms: C_9  and  N_33
REMARK    6  A    between atoms: C_11  and  N_12
REMARK    7  A    between atoms: C_13  and  C_15
REMARK    8  A    between atoms: C_18  and  S_21
REMARK    9  A    between atoms: S_21  and  N_24
REMARK   10  A    between atoms: N_24  and  C_25
REMARK   11  A    between atoms: N_33  and  C_34
REMARK   12  A    between atoms: N_33  and  C_35
REMARK                            x       y       z     vdW  Elec       q    Type
REMARK                         _______ _______ _______ _____ _____    ______ ____
ROOT
ATOM      1  N   UNL     1       0.944   2.388   0.374  0.00  0.00    -0.313 N 
ATOM      2  C   UNL     1      -0.288   1.985   0.741  0.00  0.00    +0.244 C 
ATOM      3  O   UNL     1      -0.441   0.900   1.268  0.00  0.00    -0.270 OA
ATOM      4  H   UNL     1       1.082   3.370  -0.102  0.00  0.00    +0.149 HD
ENDROOT
BRANCH   2   5
ATOM      5  C   UNL     1      -1.456   2.859   0.497  0.00  0.00    +0.037 A 
ATOM      6  C   UNL     1      -1.283   4.107  -0.102  0.00  0.00    +0.015 A 
ATOM      7  C   UNL     1      -2.377   4.916  -0.332  0.00  0.00    +0.029 A 
ATOM      8  C   UNL     1      -3.642   4.496   0.040  0.00  0.00    +0.105 A 
ATOM      9  C   UNL     1      -3.819   3.262   0.640  0.00  0.00    +0.029 A 
ATOM     10  C   UNL     1      -2.734   2.441   0.870  0.00  0.00    +0.015 A 
BRANCH   8  11
ATOM     11  S   UNL     1      -5.033   5.537  -0.251  0.00  0.00    +0.059 S 
ATOM     12  O   UNL     1      -4.674   6.405  -1.318  0.00  0.00    -0.153 OA
ATOM     13  O   UNL     1      -6.171   4.688  -0.309  0.00  0.00    -0.153 OA
BRANCH  11  14
ATOM     14  N   UNL     1      -5.221   6.490   1.091  0.00  0.00    -0.185 NA
ATOM     15  H   UNL     1      -6.036   6.270   1.796  0.00  0.00    +0.148 HD
BRANCH  14  16
ATOM     16  C   UNL     1      -4.189   7.467   1.446  0.00  0.00    +0.099 C 
ATOM     17  C   UNL     1      -4.573   8.844   0.878  0.00  0.00    +0.044 C 
ATOM     18  C   UNL     1      -3.643   9.910   1.523  0.00  0.00    +0.167 C 
ATOM     19  S   UNL     1      -3.591   9.303   3.262  0.00  0.00    -0.029 S 
ATOM     20  O   UNL     1      -4.614   9.948   4.008  0.00  0.00    -0.174 OA
ATOM     21  O   UNL     1      -2.249   9.351   3.729  0.00  0.00    -0.174 OA
ATOM     22  C   UNL     1      -4.067   7.548   2.986  0.00  0.00    +0.186 C 
ENDBRANCH  14  16
ENDBRANCH  11  14
ENDBRANCH   8  11
ENDBRANCH   2   5
BRANCH   1  23
ATOM     23  C   UNL     1       2.100   1.520   0.611  0.00  0.00    +0.094 C 
BRANCH  23  24
ATOM     24  C   UNL     1       3.369   2.210   0.105  0.00  0.00    -0.021 C 
BRANCH  24  28
ATOM     25  C   UNL     1       6.685  -0.457   0.474  0.00  0.00    -0.048 A 
ATOM     26  C   UNL     1       5.510  -0.892  -0.111  0.00  0.00    +0.004 A 
ATOM     27  C   UNL     1       4.436  -0.029  -0.230  0.00  0.00    +0.002 A 
ATOM     28  C   UNL     1       4.538   1.269   0.236  0.00  0.00    -0.059 A 
ATOM     29  C   UNL     1       5.715   1.705   0.815  0.00  0.00    +0.002 A 
ATOM     30  C   UNL     1       6.787   0.840   0.939  0.00  0.00    +0.004 A 
BRANCH  25  32
ATOM     31  C   UNL     1       8.735  -1.291  -0.644  0.00  0.00    +0.009 C 
ATOM     32  C   UNL     1       7.855  -1.398   0.603  0.00  0.00    +0.032 C 
ENDBRANCH  25  32
ENDBRANCH  24  28
BRANCH  24  33
ATOM     33  N   UNL     1       3.195   2.583  -1.305  0.00  0.00    +0.382 N 
ATOM     34  C   UNL     1       4.316   3.408  -1.773  0.00  0.00    -0.096 C 
ATOM     35  C   UNL     1       3.030   1.391  -2.148  0.00  0.00    -0.096 C 
ATOM     36  H   UNL     1       2.276   3.183  -1.385  0.00  0.00    -0.082 HD
ENDBRANCH  24  33
ENDBRANCH  23  24
ENDBRANCH   1  23
TORSDOF 9
