REMARK  Name = ZINC09610613
REMARK  8 active torsions:
REMARK  status: ('A' for Active; 'I' for Inactive)
REMARK    1  A    between atoms: C_1  and  C_2
REMARK    2  A    between atoms: C_7  and  N_12
REMARK    3  A    between atoms: C_9  and  C_11
REMARK    4  A    between atoms: C_13  and  C_15
REMARK    5  A    between atoms: C_15  and  C_17
REMARK    6  A    between atoms: C_15  and  N_23
REMARK    7  A    between atoms: N_23  and  S_24
REMARK    8  A    between atoms: S_24  and  C_27
REMARK                            x       y       z     vdW  Elec       q    Type
REMARK                         _______ _______ _______ _____ _____    ______ ____
ROOT
ATOM      1  C   UNL     1      -1.768  -4.763   1.950  0.00  0.00    +0.192 C 
ENDROOT
BRANCH   1   2
ATOM      2  C   UNL     1      -1.776  -3.497   2.766  0.00  0.00    -0.020 A 
ATOM      3  C   UNL     1      -0.745  -3.237   3.649  0.00  0.00    +0.006 A 
ATOM      4  C   UNL     1      -0.750  -2.073   4.395  0.00  0.00    +0.000 A 
ATOM      5  C   UNL     1      -1.792  -1.174   4.265  0.00  0.00    +0.000 A 
ATOM      6  C   UNL     1      -2.826  -1.436   3.386  0.00  0.00    +0.000 A 
ATOM      7  C   UNL     1      -2.818  -2.598   2.636  0.00  0.00    +0.006 A 
ENDBRANCH   1   2
BRANCH   1   9
ATOM      8  N   UNL     1      -3.483  -5.881   3.338  0.00  0.00    -0.311 N 
ATOM      9  C   UNL     1      -2.248  -5.912   2.799  0.00  0.00    +0.236 C 
ATOM     10  O   UNL     1      -1.524  -6.864   2.997  0.00  0.00    -0.274 OA
ATOM     11  H   UNL     1      -4.062  -5.119   3.180  0.00  0.00    +0.149 HD
BRANCH   8  17
ATOM     12  C   UNL     1      -6.599  -7.174   6.952  0.00  0.00    +0.008 C 
ATOM     13  C   UNL     1      -5.518  -7.669   5.989  0.00  0.00    -0.009 C 
ATOM     14  C   UNL     1      -6.099  -8.761   5.089  0.00  0.00    +0.003 C 
ATOM     15  C   UNL     1      -5.018  -9.256   4.126  0.00  0.00    +0.002 C 
ATOM     16  C   UNL     1      -4.530  -8.090   3.264  0.00  0.00    +0.022 C 
ATOM     17  C   UNL     1      -3.950  -6.997   4.164  0.00  0.00    +0.076 C 
ATOM     18  C   UNL     1      -5.030  -6.503   5.127  0.00  0.00    +0.009 C 
ATOM     19  C   UNL     1      -4.450  -5.410   6.028  0.00  0.00    +0.009 C 
ENDBRANCH   8  17
ENDBRANCH   1   9
BRANCH   1  20
ATOM     20  N   UNL     1      -0.405  -5.036   1.485  0.00  0.00    -0.174 NA
ATOM     21  H   UNL     1       0.216  -5.511   2.058  0.00  0.00    +0.149 HD
BRANCH  20  22
ATOM     22  S   UNL     1       0.073  -4.532  -0.018  0.00  0.00    +0.059 S 
ATOM     23  O   UNL     1      -0.936  -4.950  -0.927  0.00  0.00    -0.153 OA
ATOM     24  O   UNL     1       1.434  -4.916  -0.161  0.00  0.00    -0.153 OA
BRANCH  22  25
ATOM     25  C   UNL     1       0.046  -2.770  -0.010  0.00  0.00    +0.106 A 
ATOM     26  C   UNL     1      -1.105  -2.096  -0.375  0.00  0.00    +0.030 A 
ATOM     27  C   UNL     1      -1.131  -0.716  -0.371  0.00  0.00    +0.025 A 
ATOM     28  C   UNL     1       0.002  -0.004   0.002  0.00  0.00    +0.037 A 
ATOM     29  C   UNL     1       1.156  -0.684   0.369  0.00  0.00    -0.024 A 
ATOM     30  C   UNL     1       1.175  -2.064   0.361  0.00  0.00    +0.034 A 
ATOM     31  C   UNL     1       2.384   0.089   0.774  0.00  0.00    +0.046 C 
ATOM     32  C   UNL     1       2.462   1.385  -0.033  0.00  0.00    +0.101 C 
ATOM     33  C   UNL     1       1.134   2.092   0.003  0.00  0.00    +0.218 C 
ATOM     34  O   UNL     1       1.100   3.304   0.025  0.00  0.00    -0.275 OA
ATOM     35  N   UNL     1      -0.017   1.394   0.010  0.00  0.00    -0.285 N 
ATOM     36  H   UNL     1      -0.865   1.864   0.016  0.00  0.00    +0.155 HD
ENDBRANCH  22  25
ENDBRANCH  20  22
ENDBRANCH   1  20
TORSDOF 6
