REMARK  Name = ZINC39890900
REMARK  8 active torsions:
REMARK  status: ('A' for Active; 'I' for Inactive)
REMARK    1  A    between atoms: C_1  and  C_2
REMARK    2  A    between atoms: C_7  and  C_8
REMARK    3  A    between atoms: C_8  and  N_9
REMARK    4  A    between atoms: C_24  and  C_37
REMARK    5  A    between atoms: C_25  and  C_36
REMARK    6  A    between atoms: N_32  and  C_33
REMARK    7  A    between atoms: C_33  and  C_34
REMARK    8  A    between atoms: C_34  and  O_35
REMARK                            x       y       z     vdW  Elec       q    Type
REMARK                         _______ _______ _______ _____ _____    ______ ____
ROOT
ATOM      1  N   UNL     1      -1.389   0.091   3.019  0.00  0.00    -0.264 N 
ATOM      2  C   UNL     1      -2.123   1.206   2.658  0.00  0.00    +0.043 A 
ATOM      3  C   UNL     1      -1.750   2.295   1.868  0.00  0.00    +0.024 A 
ATOM      4  C   UNL     1      -2.698   3.287   1.667  0.00  0.00    +0.002 A 
ATOM      5  C   UNL     1      -3.961   3.213   2.219  0.00  0.00    +0.000 A 
ATOM      6  C   UNL     1      -4.346   2.133   3.005  0.00  0.00    +0.008 A 
ATOM      7  C   UNL     1      -3.409   1.142   3.210  0.00  0.00    +0.011 A 
ATOM      8  C   UNL     1      -3.469  -0.138   3.979  0.00  0.00    +0.174 C 
ATOM      9  C   UNL     1      -2.100  -0.755   3.793  0.00  0.00    +0.253 C 
ATOM     10  O   UNL     1      -1.715  -1.808   4.255  0.00  0.00    -0.272 OA
ATOM     11  C   UNL     1      -3.789   0.072   5.418  0.00  0.00    +0.084 A 
ATOM     12  C   UNL     1      -3.123   0.864   6.458  0.00  0.00    +0.199 A 
ATOM     13  O   UNL     1      -2.226   1.654   6.222  0.00  0.00    -0.287 OA
ATOM     14  C   UNL     1      -3.646   0.614   7.824  0.00  0.00    +0.065 A 
ATOM     15  C   UNL     1      -2.994   1.142   8.938  0.00  0.00    +0.019 A 
ATOM     16  C   UNL     1      -3.485   0.896  10.191  0.00  0.00    -0.047 A 
ATOM     17  C   UNL     1      -4.626   0.124  10.355  0.00  0.00    -0.044 A 
ATOM     18  C   UNL     1      -5.284  -0.403   9.266  0.00  0.00    +0.050 A 
ATOM     19  C   UNL     1      -4.806  -0.163   7.978  0.00  0.00    +0.140 A 
ATOM     20  O   UNL     1      -5.476  -0.678   6.922  0.00  0.00    -0.450 OA
ATOM     21  C   UNL     1      -4.915  -0.651   5.698  0.00  0.00    +0.200 A 
ATOM     22  C   UNL     1      -5.345  -1.334   4.464  0.00  0.00    +0.284 C 
ATOM     23  O   UNL     1      -6.314  -2.060   4.372  0.00  0.00    -0.267 OA
ATOM     24  N   UNL     1      -4.503  -1.034   3.451  0.00  0.00    -0.271 N 
ATOM     25  C   UNL     1      -5.152  -0.142  11.742  0.00  0.00    +0.044 C 
ATOM     26  C   UNL     1      -2.784   1.466  11.397  0.00  0.00    +0.044 C 
ENDROOT
BRANCH   1  27
ATOM     27  C   UNL     1      -0.004  -0.147   2.604  0.00  0.00    +0.149 C 
BRANCH  27  34
ATOM     28  C   UNL     1       2.493  -1.028   1.448  0.00  0.00    +0.044 C 
ATOM     29  C   UNL     1       1.204  -1.222   0.693  0.00  0.00    -0.046 A 
ATOM     30  C   UNL     1       1.214  -1.827  -0.550  0.00  0.00    +0.003 A 
ATOM     31  C   UNL     1       0.031  -2.005  -1.242  0.00  0.00    +0.000 A 
ATOM     32  C   UNL     1      -1.163  -1.579  -0.691  0.00  0.00    +0.000 A 
ATOM     33  C   UNL     1      -1.174  -0.975   0.552  0.00  0.00    +0.005 A 
ATOM     34  C   UNL     1       0.009  -0.801   1.246  0.00  0.00    -0.027 A 
ENDBRANCH  27  34
ENDBRANCH   1  27
BRANCH  24  35
ATOM     35  C   UNL     1      -4.605  -1.518   2.072  0.00  0.00    +0.137 C 
BRANCH  35  36
ATOM     36  C   UNL     1      -3.825  -2.827   1.932  0.00  0.00    +0.175 C 
BRANCH  36  37
ATOM     37  O   UNL     1      -4.442  -3.837   2.733  0.00  0.00    -0.393 OA
ATOM     38  H   UNL     1      -3.999  -4.696   2.693  0.00  0.00    +0.209 HD
ENDBRANCH  36  37
ENDBRANCH  35  36
ENDBRANCH  24  35
TORSDOF 5
