REMARK  Name = ZINC39621033
REMARK  5 active torsions:
REMARK  status: ('A' for Active; 'I' for Inactive)
REMARK    1  A    between atoms: C_1  and  C_2
REMARK    2  A    between atoms: C_3  and  C_15
REMARK    3  A    between atoms: N_6  and  C_8
REMARK    4  A    between atoms: N_16  and  N_17
REMARK    5  A    between atoms: C_18  and  C_20
REMARK                            x       y       z     vdW  Elec       q    Type
REMARK                         _______ _______ _______ _____ _____    ______ ____
ROOT
ATOM      1  C   UNL     1      -2.482  -0.307   0.013  0.00  0.00    +0.138 C 
ATOM      2  N   UNL     1      -2.740   0.969   0.021  0.00  0.00    -0.188 NA
ENDROOT
BRANCH   1   5
ATOM      3  C   UNL     1      -0.018   1.503   0.010  0.00  0.00    +0.062 C 
ATOM      4  C   UNL     1       0.002  -0.004   0.002  0.00  0.00    +0.027 C 
ATOM      5  C   UNL     1      -1.097  -0.773   0.003  0.00  0.00    +0.027 C 
ATOM      6  C   UNL     1      -0.632  -2.213  -0.007  0.00  0.00    +0.218 C 
ATOM      7  N   UNL     1       0.838  -2.126  -0.013  0.00  0.00    -0.231 N 
ATOM      8  N   UNL     1       1.147  -0.760  -0.013  0.00  0.00    -0.266 N 
ATOM      9 CL   UNL     1      -1.208  -3.070   1.471  0.00  0.00    -0.094 Cl
ATOM     10  H   UNL     1       2.047  -0.398  -0.021  0.00  0.00    +0.170 HD
BRANCH   7  11
ATOM     11  C   UNL     1       1.741  -3.191  -0.023  0.00  0.00    +0.050 A 
ATOM     12  C   UNL     1       1.275  -4.500  -0.033  0.00  0.00    +0.025 A 
ATOM     13  C   UNL     1       2.171  -5.550  -0.043  0.00  0.00    +0.002 A 
ATOM     14  C   UNL     1       3.531  -5.301  -0.043  0.00  0.00    +0.000 A 
ATOM     15  C   UNL     1       3.999  -4.000  -0.033  0.00  0.00    +0.002 A 
ATOM     16  C   UNL     1       3.108  -2.944  -0.028  0.00  0.00    +0.025 A 
ENDBRANCH   7  11
ENDBRANCH   1   5
BRANCH   2  17
ATOM     17  N   UNL     1      -4.069   1.415   0.030  0.00  0.00    -0.203 N 
ATOM     18  C   UNL     1      -4.336   2.736   0.038  0.00  0.00    +0.265 C 
ATOM     19  O   UNL     1      -3.423   3.541   0.038  0.00  0.00    -0.268 OA
ATOM     20  H   UNL     1      -4.796   0.773   0.030  0.00  0.00    +0.178 HD
BRANCH  18  21
ATOM     21  C   UNL     1      -5.728   3.204   0.048  0.00  0.00    +0.063 A 
ATOM     22  C   UNL     1      -6.189   4.604   0.058  0.00  0.00    +0.012 A 
ATOM     23  C   UNL     1      -5.539   5.836   0.060  0.00  0.00    +0.011 A 
ATOM     24  C   UNL     1      -6.280   6.998   0.070  0.00  0.00    +0.001 A 
ATOM     25  C   UNL     1      -7.666   6.944   0.077  0.00  0.00    +0.002 A 
ATOM     26  C   UNL     1      -8.322   5.732   0.075  0.00  0.00    +0.026 A 
ATOM     27  C   UNL     1      -7.592   4.548   0.065  0.00  0.00    +0.047 A 
ATOM     28  N   UNL     1      -7.952   3.216   0.059  0.00  0.00    -0.360 N 
ATOM     29  C   UNL     1      -6.850   2.428   0.044  0.00  0.00    +0.096 A 
ATOM     30  H   UNL     1      -8.866   2.890   0.063  0.00  0.00    +0.165 HD
ENDBRANCH  18  21
ENDBRANCH   2  17
TORSDOF 4
