REMARK  Name = ZINC28563111
REMARK  8 active torsions:
REMARK  status: ('A' for Active; 'I' for Inactive)
REMARK    1  A    between atoms: C_3  and  N_11
REMARK    2  A    between atoms: C_6  and  S_7
REMARK    3  A    between atoms: S_7  and  N_10
REMARK    4  A    between atoms: C_12  and  N_22
REMARK    5  A    between atoms: C_13  and  C_20
REMARK    6  A    between atoms: C_14  and  C_16
REMARK    7  A    between atoms: N_22  and  C_23
REMARK    8  A    between atoms: C_23  and  C_24
REMARK                            x       y       z     vdW  Elec       q    Type
REMARK                         _______ _______ _______ _____ _____    ______ ____
ROOT
ATOM      1  N   UNL     1      -1.024  -0.620  -0.053  0.00  0.00    -0.199 N 
ATOM      2  C   UNL     1      -1.352  -1.749  -0.734  0.00  0.00    +0.142 A 
ATOM      3  C   UNL     1      -2.739  -1.764  -0.851  0.00  0.00    +0.123 A 
ATOM      4  C   UNL     1      -3.222  -0.598  -0.213  0.00  0.00    +0.185 A 
ATOM      5  N   UNL     1      -2.204   0.064   0.259  0.00  0.00    -0.158 NA
ENDROOT
BRANCH   1   8
ATOM      6  C   UNL     1       1.827   1.522   0.809  0.00  0.00    +0.034 A 
ATOM      7  C   UNL     1       0.541   1.134   0.477  0.00  0.00    +0.050 A 
ATOM      8  C   UNL     1       0.270  -0.215   0.283  0.00  0.00    +0.156 A 
ATOM      9  N   UNL     1       1.228  -1.120   0.414  0.00  0.00    -0.234 NA
ATOM     10  C   UNL     1       2.462  -0.780   0.730  0.00  0.00    +0.141 A 
ATOM     11  C   UNL     1       2.802   0.543   0.937  0.00  0.00    +0.123 A 
BRANCH  11  12
ATOM     12  S   UNL     1       4.455   0.982   1.359  0.00  0.00    +0.057 S 
ATOM     13  O   UNL     1       4.385   2.231   2.032  0.00  0.00    -0.153 OA
ATOM     14  O   UNL     1       5.043  -0.170   1.949  0.00  0.00    -0.153 OA
BRANCH  12  15
ATOM     15  N   UNL     1       5.267   1.253  -0.059  0.00  0.00    -0.203 NA
ATOM     16  H   UNL     1       6.308   1.531   0.162  0.00  0.00    +0.144 HD
ATOM     17  H   UNL     1       4.779   2.070  -0.610  0.00  0.00    +0.144 HD
ENDBRANCH  12  15
ENDBRANCH  11  12
ENDBRANCH   1   8
BRANCH   4  18
ATOM     18  C   UNL     1      -4.669  -0.194  -0.092  0.00  0.00    +0.437 C 
ATOM     19  F   UNL     1      -5.206  -0.729   1.084  0.00  0.00    -0.164 F 
ATOM     20  F   UNL     1      -4.762   1.201  -0.054  0.00  0.00    -0.164 F 
ATOM     21  F   UNL     1      -5.382  -0.680  -1.193  0.00  0.00    -0.164 F 
ENDBRANCH   4  18
BRANCH   3  22
ATOM     22  C   UNL     1      -3.528  -2.771  -1.495  0.00  0.00    +0.105 C 
ATOM     23  N   UNL     1      -4.154  -3.570  -2.007  0.00  0.00    -0.191 NA
ENDBRANCH   3  22
BRANCH   2  24
ATOM     24  N   UNL     1      -0.476  -2.702  -1.216  0.00  0.00    -0.325 N 
ATOM     25  H   UNL     1       0.571  -2.885  -0.935  0.00  0.00    +0.148 HD
BRANCH  24  26
ATOM     26  C   UNL     1      -1.119  -3.537  -2.240  0.00  0.00    +0.134 C 
BRANCH  26  27
ATOM     27  C   UNL     1      -0.075  -4.460  -2.873  0.00  0.00    +0.135 C 
ATOM     28  C   UNL     1      -0.711  -5.287  -4.013  0.00  0.00    +0.035 C 
ATOM     29  C   UNL     1      -0.030  -6.669  -3.898  0.00  0.00    +0.031 C 
ATOM     30  C   UNL     1       0.936  -6.514  -2.702  0.00  0.00    +0.160 C 
ATOM     31  O   UNL     1       0.379  -5.438  -1.913  0.00  0.00    -0.375 OA
ENDBRANCH  26  27
ENDBRANCH  24  26
ENDBRANCH   2  24
TORSDOF 8
