REMARK  Name = ZINC64870889
REMARK  4 active torsions:
REMARK  status: ('A' for Active; 'I' for Inactive)
REMARK    1  A    between atoms: C_5  and  C_7
REMARK    2  A    between atoms: C_7  and  N_8
REMARK    3  A    between atoms: C_14  and  C_21
REMARK    4  A    between atoms: C_24  and  C_28
REMARK                            x       y       z     vdW  Elec       q    Type
REMARK                         _______ _______ _______ _____ _____    ______ ____
ROOT
ATOM      1  N   UNL     1       1.488  -2.679   1.333  0.00  0.00    -0.256 N 
ATOM      2  C   UNL     1       2.762  -2.880   1.732  0.00  0.00    +0.265 A 
ATOM      3  O   UNL     1       3.693  -2.657   0.982  0.00  0.00    -0.267 OA
ATOM      4  C   UNL     1       2.996  -3.376   3.100  0.00  0.00    +0.063 A 
ATOM      5  C   UNL     1       4.281  -3.607   3.586  0.00  0.00    +0.016 A 
ATOM      6  C   UNL     1       4.446  -4.071   4.874  0.00  0.00    +0.008 A 
ATOM      7  C   UNL     1       3.345  -4.307   5.682  0.00  0.00    -0.000 A 
ATOM      8  C   UNL     1       2.066  -4.081   5.213  0.00  0.00    +0.034 A 
ATOM      9  C   UNL     1       1.880  -3.614   3.921  0.00  0.00    +0.056 A 
ATOM     10  N   UNL     1       0.613  -3.374   3.410  0.00  0.00    -0.307 N 
ATOM     11  H   UNL     1      -0.167  -3.534   3.965  0.00  0.00    +0.170 HD
ATOM     12  C   UNL     1       0.455  -2.917   2.156  0.00  0.00    +0.330 A 
ATOM     13  O   UNL     1      -0.673  -2.715   1.748  0.00  0.00    -0.246 OA
ENDROOT
BRANCH   7  14
ATOM     14  C   UNL     1       3.545  -4.814   7.087  0.00  0.00    +0.242 C 
ATOM     15  N   UNL     1       4.837  -4.333   7.616  0.00  0.00    -0.265 NA
ATOM     16  C   UNL     1       5.632  -5.541   7.938  0.00  0.00    +0.180 C 
ATOM     17  N   UNL     1       4.602  -6.600   8.113  0.00  0.00    -0.177 NA
ATOM     18  O   UNL     1       3.592  -6.253   7.086  0.00  0.00    -0.274 OA
ATOM     19  H   UNL     1       5.313  -3.756   6.939  0.00  0.00    +0.127 HD
ATOM     20  H   UNL     1       4.992  -7.515   7.943  0.00  0.00    +0.156 HD
BRANCH  16  21
ATOM     21  C   UNL     1       6.412  -5.340   9.211  0.00  0.00    -0.010 A 
ATOM     22  C   UNL     1       6.831  -4.072   9.570  0.00  0.00    +0.010 A 
ATOM     23  C   UNL     1       7.547  -3.882  10.737  0.00  0.00    +0.050 A 
ATOM     24  C   UNL     1       7.846  -4.963  11.551  0.00  0.00    +0.166 A 
ATOM     25  C   UNL     1       7.424  -6.240  11.190  0.00  0.00    +0.167 A 
ATOM     26  C   UNL     1       6.702  -6.422  10.021  0.00  0.00    +0.056 A 
ATOM     27  O   UNL     1       7.838  -7.123  12.144  0.00  0.00    -0.453 OA
ATOM     28  C   UNL     1       8.867  -6.436  12.882  0.00  0.00    +0.466 C 
ATOM     29  O   UNL     1       8.525  -5.046  12.732  0.00  0.00    -0.453 OA
ENDBRANCH  16  21
ENDBRANCH   7  14
BRANCH   1  30
ATOM     30  C   UNL     1       1.228  -2.186  -0.022  0.00  0.00    +0.168 C 
BRANCH  30  35
ATOM     31  C   UNL     1      -0.017   1.378   0.010  0.00  0.00    +0.000 A 
ATOM     32  C   UNL     1       1.171   2.087   0.002  0.00  0.00    +0.003 A 
ATOM     33  C   UNL     1       2.377   1.414  -0.013  0.00  0.00    +0.039 A 
ATOM     34  C   UNL     1       2.397   0.029  -0.021  0.00  0.00    +0.128 A 
ATOM     35  C   UNL     1       1.208  -0.679  -0.013  0.00  0.00    +0.008 A 
ATOM     36  C   UNL     1       0.002  -0.004   0.002  0.00  0.00    +0.008 A 
ATOM     37  F   UNL     1       3.577  -0.630  -0.036  0.00  0.00    -0.205 F 
ENDBRANCH  30  35
ENDBRANCH   1  30
TORSDOF 4
