REMARK  Name = ZINC07854125
REMARK  6 active torsions:
REMARK  status: ('A' for Active; 'I' for Inactive)
REMARK    1  A    between atoms: C_1  and  N_2
REMARK    2  A    between atoms: C_6  and  C_7
REMARK    3  A    between atoms: C_12  and  C_13
REMARK    4  A    between atoms: C_12  and  N_53
REMARK    5  A    between atoms: N_15  and  C_16
REMARK    6  A    between atoms: C_17  and  C_25
REMARK                            x       y       z     vdW  Elec       q    Type
REMARK                         _______ _______ _______ _____ _____    ______ ____
ROOT
ATOM      1  C   UNL     1      -3.476   1.878   1.847  0.00  0.00    +0.201 C 
ATOM      2  O   UNL     1      -3.103   0.814   1.401  0.00  0.00    -0.278 OA
ATOM      3  N   UNL     1      -4.630   1.951   2.539  0.00  0.00    -0.281 N 
ATOM      4  H   UNL     1      -4.928   2.802   2.897  0.00  0.00    +0.155 HD
ENDROOT
BRANCH   3   5
ATOM      5  C   UNL     1      -5.391   0.810   2.741  0.00  0.00    +0.084 A 
ATOM      6  C   UNL     1      -6.596   0.685   3.419  0.00  0.00    +0.068 A 
ATOM      7  C   UNL     1      -7.195  -0.637   3.486  0.00  0.00    -0.023 A 
ATOM      8  C   UNL     1      -6.499  -1.616   2.868  0.00  0.00    -0.004 A 
ATOM      9  S   UNL     1      -5.074  -0.805   2.199  0.00  0.00    -0.077 S 
ATOM     10  C   UNL     1      -6.868  -3.064   2.773  0.00  0.00    +0.043 C 
ATOM     11  C   UNL     1      -7.970  -3.351   3.803  0.00  0.00    +0.005 C 
ATOM     12  C   UNL     1      -9.051  -2.273   3.682  0.00  0.00    +0.005 C 
ATOM     13  C   UNL     1      -8.512  -0.936   4.192  0.00  0.00    +0.037 C 
BRANCH   6  14
ATOM     14  C   UNL     1      -7.239   1.844   4.046  0.00  0.00    +0.244 C 
ATOM     15  O   UNL     1      -8.030   2.518   3.413  0.00  0.00    -0.270 OA
ATOM     16  N   UNL     1      -6.954   2.163   5.324  0.00  0.00    -0.325 N 
ATOM     17  H   UNL     1      -6.323   1.627   5.829  0.00  0.00    +0.145 HD
ATOM     18  H   UNL     1      -7.379   2.930   5.739  0.00  0.00    +0.145 HD
ENDBRANCH   6  14
ENDBRANCH   3   5
BRANCH   1  19
ATOM     19  C   UNL     1      -2.649   3.118   1.629  0.00  0.00    +0.020 C 
BRANCH  19  24
ATOM     20  C   UNL     1      -0.557   3.960   0.706  0.00  0.00    -0.020 C 
ATOM     21  C   UNL     1       0.880   3.417   0.549  0.00  0.00    -0.011 C 
ATOM     22  C   UNL     1       0.890   2.078   1.315  0.00  0.00    -0.020 C 
ATOM     23  C   UNL     1      -0.541   1.924   1.873  0.00  0.00    -0.077 C 
ATOM     24  N   UNL     1      -1.348   2.761   0.978  0.00  0.00    +0.391 N 
ATOM     25  H   UNL     1      -1.536   2.259   0.102  0.00  0.00    -0.080 HD
BRANCH  20  31
ATOM     26  C   UNL     1       0.864   6.313  -0.730  0.00  0.00    +0.148 C 
ATOM     27  N   UNL     1      -0.371   5.670  -1.187  0.00  0.00    -0.355 N 
ATOM     28  C   UNL     1      -1.074   6.005  -2.306  0.00  0.00    +0.085 A 
ATOM     29  C   UNL     1      -2.150   5.195  -2.386  0.00  0.00    +0.019 A 
ATOM     30  C   UNL     1      -2.106   4.325  -1.279  0.00  0.00    +0.021 A 
ATOM     31  C   UNL     1      -1.005   4.636  -0.564  0.00  0.00    +0.005 A 
ENDBRANCH  20  31
ENDBRANCH  19  24
ENDBRANCH   1  19
TORSDOF 5
