REMARK  Name = ZINC39655904
REMARK  9 active torsions:
REMARK  status: ('A' for Active; 'I' for Inactive)
REMARK    1  A    between atoms: C_1  and  C_2
REMARK    2  A    between atoms: C_2  and  C_3
REMARK    3  A    between atoms: C_3  and  C_5
REMARK    4  A    between atoms: C_3  and  C_6
REMARK    5  A    between atoms: C_10  and  C_19
REMARK    6  A    between atoms: N_21  and  C_22
REMARK    7  A    between atoms: C_22  and  C_23
REMARK    8  A    between atoms: C_23  and  C_24
REMARK    9  A    between atoms: C_27  and  C_33
REMARK                            x       y       z     vdW  Elec       q    Type
REMARK                         _______ _______ _______ _____ _____    ______ ____
ROOT
ATOM      1  C   UNL     1      -1.575  -2.278   0.304  0.00  0.00    +0.218 C 
ATOM      2  O   UNL     1      -0.582  -2.940   0.519  0.00  0.00    -0.275 OA
ATOM      3  N   UNL     1      -2.764  -2.886   0.123  0.00  0.00    -0.300 N 
ATOM      4  C   UNL     1      -4.054  -2.263  -0.255  0.00  0.00    +0.121 C 
ATOM      5  C   UNL     1      -4.699  -3.267  -1.237  0.00  0.00    +0.100 C 
ATOM      6  C   UNL     1      -4.055  -4.620  -0.894  0.00  0.00    -0.004 C 
ATOM      7  C   UNL     1      -3.075  -4.330   0.252  0.00  0.00    +0.115 C 
ATOM      8  C   UNL     1      -5.121  -5.613  -0.441  0.00  0.00    -0.010 C 
ATOM      9  C   UNL     1      -4.464  -6.968  -0.162  0.00  0.00    -0.082 C 
ATOM     10  N   UNL     1      -3.801  -7.453  -1.378  0.00  0.00    +0.379 N 
ATOM     11  C   UNL     1      -2.716  -6.539  -1.755  0.00  0.00    -0.082 C 
ATOM     12  C   UNL     1      -3.298  -5.167  -2.102  0.00  0.00    -0.010 C 
ATOM     13  H   UNL     1      -3.421  -8.373  -1.209  0.00  0.00    -0.086 HD
ATOM     14  H   UNL     1      -4.473  -7.502  -2.129  0.00  0.00    -0.086 HD
ENDROOT
BRANCH   5  15
ATOM     15  C   UNL     1      -6.190  -3.324  -1.026  0.00  0.00    +0.218 C 
ATOM     16  O   UNL     1      -6.656  -3.099   0.071  0.00  0.00    -0.275 OA
ATOM     17  N   UNL     1      -7.006  -3.625  -2.056  0.00  0.00    -0.315 N 
ATOM     18  H   UNL     1      -6.633  -3.804  -2.933  0.00  0.00    +0.149 HD
BRANCH  17  19
ATOM     19  C   UNL     1      -8.455  -3.680  -1.851  0.00  0.00    +0.109 C 
BRANCH  19  20
ATOM     20  C   UNL     1      -9.144  -4.040  -3.169  0.00  0.00    +0.056 C 
BRANCH  20  21
ATOM     21  C   UNL     1     -10.635  -4.097  -2.957  0.00  0.00    -0.021 A 
ATOM     22  C   UNL     1     -11.565  -2.967  -3.004  0.00  0.00    +0.003 A 
ATOM     23  C   UNL     1     -11.418  -1.598  -3.235  0.00  0.00    +0.013 A 
ATOM     24  C   UNL     1     -12.516  -0.784  -3.211  0.00  0.00    -0.050 A 
ATOM     25  C   UNL     1     -13.777  -1.308  -2.958  0.00  0.00    +0.005 A 
ATOM     26  C   UNL     1     -13.944  -2.656  -2.729  0.00  0.00    +0.026 A 
ATOM     27  C   UNL     1     -12.841  -3.503  -2.749  0.00  0.00    +0.047 A 
ATOM     28  N   UNL     1     -12.682  -4.858  -2.562  0.00  0.00    -0.360 N 
ATOM     29  C   UNL     1     -11.363  -5.194  -2.696  0.00  0.00    +0.087 A 
ATOM     30  C   UNL     1     -12.357   0.694  -3.459  0.00  0.00    +0.044 C 
ATOM     31  H   UNL     1     -13.399  -5.482  -2.369  0.00  0.00    +0.165 HD
ENDBRANCH  20  21
ENDBRANCH  19  20
ENDBRANCH  17  19
ENDBRANCH   5  15
BRANCH   1  32
ATOM     32  C   UNL     1      -1.479  -0.775   0.238  0.00  0.00    +0.072 C 
ATOM     33  C   UNL     1      -1.172  -0.346  -1.197  0.00  0.00    +0.017 C 
BRANCH  32  35
ATOM     34  C   UNL     1      -0.345   1.235   1.195  0.00  0.00    +0.004 C 
ATOM     35  C   UNL     1      -0.361  -0.295   1.165  0.00  0.00    +0.009 C 
ENDBRANCH  32  35
ENDBRANCH   1  32
TORSDOF 6
