REMARK  Name = ZINC41584598
REMARK  8 active torsions:
REMARK  status: ('A' for Active; 'I' for Inactive)
REMARK    1  A    between atoms: C_1  and  C_2
REMARK    2  A    between atoms: C_2  and  N_3
REMARK    3  A    between atoms: C_5  and  C_12
REMARK    4  A    between atoms: C_17  and  C_38
REMARK    5  A    between atoms: C_19  and  O_37
REMARK    6  A    between atoms: C_20  and  C_23
REMARK    7  A    between atoms: C_23  and  N_24
REMARK    8  A    between atoms: C_29  and  C_31
REMARK                            x       y       z     vdW  Elec       q    Type
REMARK                         _______ _______ _______ _____ _____    ______ ____
ROOT
ATOM      1  C   UNL     1       0.637  -1.811  -3.990  0.00  0.00    +0.060 C 
ATOM      2  C   UNL     1      -0.640  -1.783  -4.462  0.00  0.00    +0.176 C 
ATOM      3  C   UNL     1      -1.068  -2.268  -5.727  0.00  0.00    +0.232 C 
ATOM      4  O   UNL     1      -0.382  -2.784  -6.593  0.00  0.00    -0.283 OA
ATOM      5  C   UNL     1      -2.519  -2.014  -5.767  0.00  0.00    +0.071 A 
ATOM      6  C   UNL     1      -3.510  -2.254  -6.718  0.00  0.00    -0.033 A 
ATOM      7  C   UNL     1      -4.803  -1.896  -6.459  0.00  0.00    +0.050 A 
ATOM      8  C   UNL     1      -5.134  -1.292  -5.248  0.00  0.00    +0.122 A 
ATOM      9  C   UNL     1      -4.160  -1.048  -4.294  0.00  0.00    +0.020 A 
ATOM     10  C   UNL     1      -2.842  -1.407  -4.542  0.00  0.00    +0.145 A 
ATOM     11  O   UNL     1      -1.717  -1.293  -3.803  0.00  0.00    -0.451 OA
ATOM     12  C   UNL     1      -3.156  -2.906  -8.030  0.00  0.00    +0.045 C 
ENDROOT
BRANCH   1  15
ATOM     13  N   UNL     1       0.745  -0.139  -0.748  0.00  0.00    -0.346 N 
ATOM     14  C   UNL     1       0.067  -0.628  -1.815  0.00  0.00    +0.094 A 
ATOM     15  C   UNL     1       0.958  -1.178  -2.712  0.00  0.00    +0.004 A 
ATOM     16  C   UNL     1       2.300  -1.000  -2.124  0.00  0.00    +0.007 A 
ATOM     17  C   UNL     1       2.102  -0.341  -0.901  0.00  0.00    +0.050 A 
ATOM     18  C   UNL     1       3.202  -0.027  -0.110  0.00  0.00    +0.026 A 
ATOM     19  C   UNL     1       4.471  -0.362  -0.532  0.00  0.00    +0.002 A 
ATOM     20  C   UNL     1       4.664  -1.010  -1.742  0.00  0.00    +0.001 A 
ATOM     21  C   UNL     1       3.586  -1.336  -2.536  0.00  0.00    +0.010 A 
BRANCH  13  23
ATOM     22  C   UNL     1       0.210   2.037   0.234  0.00  0.00    +0.027 C 
ATOM     23  C   UNL     1       0.124   0.519   0.405  0.00  0.00    +0.118 C 
ENDBRANCH  13  23
ENDBRANCH   1  15
BRANCH   8  24
ATOM     24  O   UNL     1      -6.421  -0.940  -5.001  0.00  0.00    -0.506 OA
ATOM     25  H   UNL     1      -6.944  -1.632  -4.574  0.00  0.00    +0.292 HD
ENDBRANCH   8  24
BRANCH   9  26
ATOM     26  C   UNL     1      -4.530  -0.394  -2.988  0.00  0.00    -0.035 C 
BRANCH  26  27
ATOM     27  N   UNL     1      -4.564   1.064  -3.163  0.00  0.00    +0.387 N 
ATOM     28  C   UNL     1      -3.221   1.545  -3.509  0.00  0.00    -0.078 C 
ATOM     29  C   UNL     1      -3.267   3.052  -3.772  0.00  0.00    -0.019 C 
ATOM     30  C   UNL     1      -3.759   3.770  -2.511  0.00  0.00    -0.003 C 
ATOM     31  C   UNL     1      -5.128   3.207  -2.117  0.00  0.00    -0.011 C 
ATOM     32  C   UNL     1      -5.013   1.695  -1.916  0.00  0.00    -0.036 C 
ATOM     33  H   UNL     1      -5.205   1.298  -3.906  0.00  0.00    -0.080 HD
BRANCH  32  34
ATOM     34  C   UNL     1      -6.358   1.137  -1.527  0.00  0.00    -0.043 A 
ATOM     35  C   UNL     1      -6.599   0.731  -0.223  0.00  0.00    +0.005 A 
ATOM     36  C   UNL     1      -7.851   0.224   0.089  0.00  0.00    +0.020 A 
ATOM     37  C   UNL     1      -8.810   0.141  -0.903  0.00  0.00    +0.111 A 
ATOM     38  N   UNL     1      -8.545   0.536  -2.132  0.00  0.00    -0.263 NA
ATOM     39  C   UNL     1      -7.368   1.029  -2.464  0.00  0.00    +0.112 A 
ENDBRANCH  32  34
ENDBRANCH  26  27
ENDBRANCH   9  26
TORSDOF 6
