REMARK  Name = ZINC08988286
REMARK  4 active torsions:
REMARK  status: ('A' for Active; 'I' for Inactive)
REMARK    1  A    between atoms: C_6  and  S_7
REMARK    2  A    between atoms: S_7  and  N_10
REMARK    3  A    between atoms: C_15  and  C_16
REMARK    4  A    between atoms: C_15  and  N_47
REMARK                            x       y       z     vdW  Elec       q    Type
REMARK                         _______ _______ _______ _____ _____    ______ ____
ROOT
ATOM      1  N   UNL     1      -0.997   1.754  -1.266  0.00  0.00    -0.180 NA
ATOM      2  C   UNL     1      -1.858   0.926  -2.124  0.00  0.00    +0.091 C 
ATOM      3  C   UNL     1      -3.209   1.641  -2.283  0.00  0.00    -0.061 C 
ATOM      4  C   UNL     1      -2.215   3.798  -1.794  0.00  0.00    -0.061 C 
ATOM      5  C   UNL     1      -0.828   3.173  -1.611  0.00  0.00    +0.091 C 
ATOM      6  N   UNL     1      -2.965   3.007  -2.794  0.00  0.00    +0.386 N 
ATOM      7  H   UNL     1      -2.408   2.946  -3.654  0.00  0.00    -0.081 HD
ENDROOT
BRANCH   1   8
ATOM      8  S   UNL     1      -0.232   1.103   0.051  0.00  0.00    +0.061 S 
ATOM      9  O   UNL     1      -0.121  -0.293  -0.193  0.00  0.00    -0.153 OA
ATOM     10  O   UNL     1       0.900   1.922   0.309  0.00  0.00    -0.153 OA
BRANCH   8  16
ATOM     11  C   UNL     1      -1.245   2.425   2.213  0.00  0.00    +0.029 A 
ATOM     12  C   UNL     1      -2.097   2.575   3.290  0.00  0.00    +0.017 A 
ATOM     13  C   UNL     1      -3.014   1.583   3.589  0.00  0.00    +0.018 A 
ATOM     14  C   UNL     1      -3.080   0.444   2.807  0.00  0.00    +0.017 A 
ATOM     15  C   UNL     1      -2.230   0.298   1.726  0.00  0.00    +0.029 A 
ATOM     16  C   UNL     1      -1.315   1.290   1.428  0.00  0.00    +0.106 A 
ATOM     17 BR   UNL     1      -4.176   1.783   5.067  0.00  0.00    -0.050 Br
ENDBRANCH   8  16
ENDBRANCH   1   8
BRANCH   6  18
ATOM     18  C   UNL     1      -4.250   3.669  -3.100  0.00  0.00    -0.003 C 
BRANCH  18  19
ATOM     19  C   UNL     1      -3.970   4.953  -3.839  0.00  0.00    +0.094 A 
ATOM     20  N   UNL     1      -5.014   5.774  -4.122  0.00  0.00    -0.312 N 
ATOM     21  H   UNL     1      -5.910   5.524  -3.847  0.00  0.00    +0.170 HD
ATOM     22  C   UNL     1      -4.816   6.939  -4.783  0.00  0.00    +0.259 A 
ATOM     23  O   UNL     1      -5.742   7.684  -5.042  0.00  0.00    -0.267 OA
ATOM     24  C   UNL     1      -3.438   7.268  -5.175  0.00  0.00    +0.065 A 
ATOM     25  C   UNL     1      -3.126   8.442  -5.858  0.00  0.00    +0.017 A 
ATOM     26  C   UNL     1      -1.828   8.701  -6.200  0.00  0.00    +0.021 A 
ATOM     27  C   UNL     1      -0.816   7.807  -5.872  0.00  0.00    +0.043 A 
ATOM     28  C   UNL     1      -1.098   6.639  -5.197  0.00  0.00    +0.048 A 
ATOM     29  C   UNL     1      -2.416   6.353  -4.838  0.00  0.00    +0.079 A 
ATOM     30  N   UNL     1      -2.742   5.219  -4.168  0.00  0.00    -0.236 NA
ATOM     31 CL   UNL     1       0.823   8.165  -6.319  0.00  0.00    -0.083 Cl
ENDBRANCH  18  19
ENDBRANCH   6  18
TORSDOF 4
