REMARK  Name = ZINC12330227
REMARK  6 active torsions:
REMARK  status: ('A' for Active; 'I' for Inactive)
REMARK    1  A    between atoms: C_6  and  C_7
REMARK    2  A    between atoms: C_7  and  C_9
REMARK    3  A    between atoms: C_7  and  O_27
REMARK    4  A    between atoms: C_9  and  N_58
REMARK    5  A    between atoms: C_16  and  O_26
REMARK    6  A    between atoms: C_20  and  O_25
REMARK                            x       y       z     vdW  Elec       q    Type
REMARK                         _______ _______ _______ _____ _____    ______ ____
ROOT
ATOM      1  C   UNL     1      -1.382  -0.339   2.391  0.00  0.00    -0.075 C 
ATOM      2  C   UNL     1      -2.087   0.296   3.592  0.00  0.00    +0.029 C 
ATOM      3  C   UNL     1      -1.480  -0.253   4.884  0.00  0.00    +0.110 C 
ATOM      4  C   UNL     1       0.024   0.027   4.898  0.00  0.00    +0.029 C 
ATOM      5  C   UNL     1       0.667  -0.602   3.659  0.00  0.00    -0.075 C 
ATOM      6  C   UNL     1      -2.139   0.425   6.090  0.00  0.00    +0.084 C 
ATOM      7  C   UNL     1      -1.436  -0.061   7.359  0.00  0.00    +0.152 C 
ATOM      8  C   UNL     1      -1.309  -1.563   7.329  0.00  0.00    +0.026 A 
ATOM      9  C   UNL     1      -1.044  -2.232   8.513  0.00  0.00    +0.055 A 
ATOM     10  C   UNL     1      -0.909  -3.611   8.521  0.00  0.00    +0.117 A 
ATOM     11  C   UNL     1      -1.039  -4.324   7.338  0.00  0.00    +0.049 A 
ATOM     12  C   UNL     1      -1.305  -3.659   6.159  0.00  0.00    +0.049 A 
ATOM     13  C   UNL     1      -1.443  -2.275   6.150  0.00  0.00    +0.127 A 
ATOM     14  O   UNL     1      -1.710  -1.659   4.968  0.00  0.00    -0.485 OA
ATOM     15  N   UNL     1       0.058  -0.007   2.450  0.00  0.00    +0.382 N 
ATOM     16  H   UNL     1       0.164   1.013   2.492  0.00  0.00    -0.082 HD
ENDROOT
BRANCH  10  17
ATOM     17  O   UNL     1      -0.648  -4.263   9.685  0.00  0.00    -0.507 OA
ATOM     18  H   UNL     1      -1.440  -4.536  10.169  0.00  0.00    +0.292 HD
ENDBRANCH  10  17
BRANCH   7  19
ATOM     19  O   UNL     1      -2.200   0.329   8.503  0.00  0.00    -0.387 OA
ATOM     20  H   UNL     1      -1.811   0.057   9.346  0.00  0.00    +0.210 HD
ENDBRANCH   7  19
BRANCH  15  21
ATOM     21  C   UNL     1       0.742  -0.511   1.242  0.00  0.00    -0.042 C 
BRANCH  21  22
ATOM     22  C   UNL     1       0.019   0.020   0.002  0.00  0.00    +0.128 C 
BRANCH  22  28
ATOM     23  C   UNL     1       1.876   0.223  -1.664  0.00  0.00    +0.006 A 
ATOM     24  C   UNL     1       2.540  -0.206  -2.797  0.00  0.00    +0.004 A 
ATOM     25  C   UNL     1       2.066  -1.292  -3.514  0.00  0.00    -0.044 A 
ATOM     26  C   UNL     1       0.928  -1.952  -3.090  0.00  0.00    -0.044 A 
ATOM     27  C   UNL     1       0.267  -1.525  -1.951  0.00  0.00    +0.010 A 
ATOM     28  C   UNL     1       0.741  -0.442  -1.237  0.00  0.00    -0.021 A 
ATOM     29  C   UNL     1       0.618  -3.095  -4.034  0.00  0.00    +0.036 C 
ATOM     30  C   UNL     1       1.428  -2.792  -5.313  0.00  0.00    +0.009 C 
ATOM     31  C   UNL     1       2.599  -1.945  -4.771  0.00  0.00    +0.036 C 
ENDBRANCH  22  28
BRANCH  22  32
ATOM     32  O   UNL     1      -0.002   1.448   0.038  0.00  0.00    -0.389 OA
ATOM     33  H   UNL     1       0.876   1.854   0.051  0.00  0.00    +0.210 HD
ENDBRANCH  22  32
ENDBRANCH  21  22
ENDBRANCH  15  21
TORSDOF 6
