REMARK  Name = ZINC04548354
REMARK  6 active torsions:
REMARK  status: ('A' for Active; 'I' for Inactive)
REMARK    1  A    between atoms: C_1  and  O_2
REMARK    2  A    between atoms: O_2  and  C_3
REMARK    3  A    between atoms: C_5  and  C_10
REMARK    4  A    between atoms: C_8  and  O_9
REMARK    5  A    between atoms: N_14  and  C_18
REMARK    6  A    between atoms: C_18  and  C_19
REMARK                            x       y       z     vdW  Elec       q    Type
REMARK                         _______ _______ _______ _____ _____    ______ ____
ROOT
ATOM      1  C   UNL     1       2.393   0.341  -4.214  0.00  0.00    +0.036 C 
ATOM      2  C   UNL     1       3.083  -0.262  -5.215  0.00  0.00    +0.098 C 
ATOM      3  C   UNL     1       3.237  -1.706  -5.449  0.00  0.00    +0.269 C 
ATOM      4  O   UNL     1       2.769  -2.609  -4.781  0.00  0.00    -0.268 OA
ATOM      5  N   UNL     1       4.002  -1.828  -6.553  0.00  0.00    -0.216 N 
ATOM      6  C   UNL     1       4.329  -0.612  -7.017  0.00  0.00    +0.313 C 
ATOM      7  O   UNL     1       5.013  -0.412  -8.003  0.00  0.00    -0.252 OA
ATOM      8  N   UNL     1       3.796   0.357  -6.251  0.00  0.00    -0.265 N 
ATOM      9  H   UNL     1       3.891   1.312  -6.389  0.00  0.00    +0.157 HD
ENDROOT
BRANCH   1  12
ATOM     10  C   UNL     1       0.101  -0.910  -1.523  0.00  0.00    +0.162 A 
ATOM     11  C   UNL     1       0.601  -0.154  -2.564  0.00  0.00    +0.057 A 
ATOM     12  C   UNL     1       1.855  -0.459  -3.107  0.00  0.00    -0.019 A 
ATOM     13  C   UNL     1       2.595  -1.530  -2.590  0.00  0.00    +0.012 A 
ATOM     14  C   UNL     1       2.088  -2.279  -1.551  0.00  0.00    +0.050 A 
ATOM     15  C   UNL     1       0.846  -1.972  -1.011  0.00  0.00    +0.158 A 
BRANCH  10  17
ATOM     16  C   UNL     1      -1.825   0.484  -1.566  0.00  0.00    +0.277 C 
ATOM     17  O   UNL     1      -1.117  -0.617  -0.993  0.00  0.00    -0.491 OA
ENDBRANCH  10  17
BRANCH  15  18
ATOM     18  O   UNL     1       0.354  -2.711   0.017  0.00  0.00    -0.503 OA
ATOM     19  H   UNL     1      -0.172  -3.473  -0.263  0.00  0.00    +0.292 HD
ENDBRANCH  15  18
ENDBRANCH   1  12
BRANCH   5  20
ATOM     20  C   UNL     1       4.413  -3.098  -7.157  0.00  0.00    +0.153 C 
BRANCH  20  21
ATOM     21  C   UNL     1       3.386  -3.527  -8.173  0.00  0.00    -0.029 A 
ATOM     22  C   UNL     1       2.319  -4.316  -7.785  0.00  0.00    +0.006 A 
ATOM     23  C   UNL     1       1.377  -4.710  -8.716  0.00  0.00    +0.015 A 
ATOM     24  C   UNL     1       1.501  -4.315 -10.036  0.00  0.00    +0.018 A 
ATOM     25  C   UNL     1       2.569  -3.525 -10.423  0.00  0.00    +0.015 A 
ATOM     26  C   UNL     1       3.508  -3.127  -9.490  0.00  0.00    +0.006 A 
ATOM     27 BR   UNL     1       0.212  -4.854 -11.310  0.00  0.00    -0.050 Br
ENDBRANCH  20  21
ENDBRANCH   5  20
TORSDOF 5
