REMARK  Name = ZINC38669080
REMARK  9 active torsions:
REMARK  status: ('A' for Active; 'I' for Inactive)
REMARK    1  A    between atoms: C_1  and  C_2
REMARK    2  A    between atoms: C_2  and  C_3
REMARK    3  A    between atoms: N_9  and  C_10
REMARK    4  A    between atoms: C_10  and  C_11
REMARK    5  A    between atoms: N_13  and  C_14
REMARK    6  A    between atoms: C_18  and  C_28
REMARK    7  A    between atoms: C_22  and  C_24
REMARK    8  A    between atoms: C_24  and  O_26
REMARK    9  A    between atoms: O_26  and  C_27
REMARK                            x       y       z     vdW  Elec       q    Type
REMARK                         _______ _______ _______ _____ _____    ______ ____
ROOT
ATOM      1  C   UNL     1       6.027   3.378  -0.764  0.00  0.00    +0.053 C 
ATOM      2  C   UNL     1       6.952   4.325  -0.359  0.00  0.00    +0.018 A 
ATOM      3  C   UNL     1       6.907   5.739  -0.301  0.00  0.00    +0.012 A 
ATOM      4  C   UNL     1       7.986   6.427   0.149  0.00  0.00    +0.004 A 
ATOM      5  C   UNL     1       9.152   5.775   0.560  0.00  0.00    -0.048 A 
ATOM      6  C   UNL     1       9.265   4.425   0.531  0.00  0.00    +0.029 A 
ATOM      7  C   UNL     1       8.179   3.635   0.073  0.00  0.00    +0.045 A 
ATOM      8  N   UNL     1       8.040   2.330  -0.049  0.00  0.00    -0.367 N 
ATOM      9  C   UNL     1       6.701   2.038  -0.571  0.00  0.00    +0.234 C 
ATOM     10  C   UNL     1      10.316   6.597   1.049  0.00  0.00    +0.044 C 
ATOM     11  H   UNL     1       8.715   1.669   0.173  0.00  0.00    +0.161 HD
ENDROOT
BRANCH   1  14
ATOM     12  C   UNL     1       3.918   2.574  -1.407  0.00  0.00    +0.200 C 
ATOM     13  O   UNL     1       4.266   1.447  -1.126  0.00  0.00    -0.278 OA
ATOM     14  N   UNL     1       4.769   3.605  -1.234  0.00  0.00    -0.288 N 
ATOM     15  H   UNL     1       4.485   4.509  -1.443  0.00  0.00    +0.155 HD
BRANCH  12  16
ATOM     16  C   UNL     1       2.535   2.822  -1.951  0.00  0.00    +0.019 C 
BRANCH  16  22
ATOM     17  C   UNL     1       0.407   1.810  -2.390  0.00  0.00    -0.068 C 
ATOM     18  C   UNL     1      -0.371   0.492  -2.409  0.00  0.00    -0.015 C 
ATOM     19  C   UNL     1       0.247  -0.444  -3.452  0.00  0.00    -0.003 C 
ATOM     20  C   UNL     1       1.729  -0.650  -3.125  0.00  0.00    -0.019 C 
ATOM     21  C   UNL     1       2.429   0.710  -3.079  0.00  0.00    -0.078 C 
ATOM     22  N   UNL     1       1.810   1.548  -2.045  0.00  0.00    +0.387 N 
ATOM     23  H   UNL     1       1.853   1.072  -1.157  0.00  0.00    -0.081 HD
BRANCH  17  25
ATOM     24  C   UNL     1      -1.600   3.181  -1.812  0.00  0.00    +0.002 C 
ATOM     25  C   UNL     1      -0.207   2.748  -1.350  0.00  0.00    -0.019 C 
ENDBRANCH  17  25
ENDBRANCH  16  22
ENDBRANCH  12  16
ENDBRANCH   1  14
BRANCH   9  26
ATOM     26  C   UNL     1       6.808   1.315  -1.889  0.00  0.00    +0.335 C 
ATOM     27  O   UNL     1       7.689   1.600  -2.665  0.00  0.00    -0.248 OA
BRANCH  26  28
ATOM     28  O   UNL     1       5.923   0.354  -2.200  0.00  0.00    -0.466 OA
ATOM     29  C   UNL     1       6.084  -0.289  -3.466  0.00  0.00    +0.280 C 
ENDBRANCH  26  28
ENDBRANCH   9  26
TORSDOF 6
