REMARK  Name = ZINC39921221
REMARK  0 active torsions:
REMARK  status: ('A' for Active; 'I' for Inactive)
REMARK                            x       y       z     vdW  Elec       q    Type
REMARK                         _______ _______ _______ _____ _____    ______ ____
ROOT
ATOM      1  C   UNL     1      -0.017   1.374   0.010  0.00  0.00    +0.001 A 
ATOM      2  C   UNL     1       1.170   2.093   0.002  0.00  0.00    +0.002 A 
ATOM      3  C   UNL     1       2.386   1.443  -0.014  0.00  0.00    +0.027 A 
ATOM      4  C   UNL     1       2.426   0.055  -0.022  0.00  0.00    +0.060 A 
ATOM      5  C   UNL     1       1.223  -0.674  -0.014  0.00  0.00    +0.065 A 
ATOM      6  C   UNL     1       0.002  -0.004   0.002  0.00  0.00    +0.015 A 
ATOM      7  C   UNL     1       1.303  -2.147  -0.024  0.00  0.00    +0.282 A 
ATOM      8  O   UNL     1       0.291  -2.827  -0.006  0.00  0.00    -0.265 OA
ATOM      9  N   UNL     1       2.515  -2.721  -0.056  0.00  0.00    -0.176 NA
ATOM     10  C   UNL     1       3.617  -2.009  -0.066  0.00  0.00    +0.208 A 
ATOM     11  N   UNL     1       3.615  -0.642  -0.036  0.00  0.00    -0.276 N 
ATOM     12  C   UNL     1       4.905   0.049  -0.008  0.00  0.00    +0.247 C 
ATOM     13  C   UNL     1       5.400   0.209   1.395  0.00  0.00    +0.032 A 
ATOM     14  C   UNL     1       5.725  -0.719   2.361  0.00  0.00    +0.025 A 
ATOM     15  C   UNL     1       6.164  -0.227   3.586  0.00  0.00    +0.018 A 
ATOM     16  C   UNL     1       6.268   1.130   3.820  0.00  0.00    +0.017 A 
ATOM     17  C   UNL     1       5.944   2.068   2.852  0.00  0.00    +0.025 A 
ATOM     18  C   UNL     1       5.502   1.587   1.619  0.00  0.00    +0.041 A 
ATOM     19  N   UNL     1       5.116   2.288   0.489  0.00  0.00    -0.281 N 
ATOM     20  C   UNL     1       4.748   1.466  -0.516  0.00  0.00    +0.271 C 
ATOM     21  O   UNL     1       4.366   1.799  -1.617  0.00  0.00    -0.270 OA
ATOM     22 BR   UNL     1       6.627  -1.442   4.959  0.00  0.00    -0.050 Br
ATOM     23  N   UNL     1       5.877  -0.675  -0.829  0.00  0.00    -0.213 NA
ATOM     24  C   UNL     1       5.840  -1.985  -0.856  0.00  0.00    +0.182 C 
ATOM     25  N   UNL     1       4.853  -2.626  -0.115  0.00  0.00    -0.258 N 
ATOM     26  N   UNL     1       6.749  -2.703  -1.595  0.00  0.00    -0.331 N 
ATOM     27  H   UNL     1       5.110   3.256   0.427  0.00  0.00    +0.155 HD
ATOM     28  H   UNL     1       5.024  -3.463   0.344  0.00  0.00    +0.158 HD
ATOM     29  H   UNL     1       7.431  -2.241  -2.107  0.00  0.00    +0.145 HD
ATOM     30  H   UNL     1       6.708  -3.672  -1.605  0.00  0.00    +0.145 HD
ENDROOT
TORSDOF 0
