REMARK  Name = ZINC08990448
REMARK  3 active torsions:
REMARK  status: ('A' for Active; 'I' for Inactive)
REMARK    1  A    between atoms: C_6  and  C_7
REMARK    2  A    between atoms: C_14  and  O_26
REMARK    3  A    between atoms: C_16  and  C_18
REMARK                            x       y       z     vdW  Elec       q    Type
REMARK                         _______ _______ _______ _____ _____    ______ ____
ROOT
ATOM      1  C   UNL     1      -1.335  -1.174   0.367  0.00  0.00    +0.098 A 
ATOM      2  C   UNL     1      -1.553  -2.181  -0.569  0.00  0.00    +0.032 A 
ATOM      3  C   UNL     1      -2.809  -2.700  -0.352  0.00  0.00    +0.156 A 
ATOM      4  N   UNL     1      -3.354  -2.025   0.685  0.00  0.00    -0.260 N 
ATOM      5  H   UNL     1      -4.236  -2.170   1.061  0.00  0.00    +0.191 HD
ATOM      6  N   UNL     1      -2.413  -1.080   1.126  0.00  0.00    -0.172 NA
ATOM      7  N   UNL     1      -3.302  -3.722  -1.110  0.00  0.00    -0.198 NA
ATOM      8  C   UNL     1      -2.489  -4.406  -1.857  0.00  0.00    +0.190 C 
ATOM      9  C   UNL     1      -1.006  -4.175  -1.894  0.00  0.00    +0.108 C 
ATOM     10  C   UNL     1      -0.662  -2.698  -1.671  0.00  0.00    +0.066 C 
ENDROOT
BRANCH  10  11
ATOM     11  C   UNL     1       0.783  -2.566  -1.263  0.00  0.00    -0.004 A 
ATOM     12  C   UNL     1       1.214  -3.101  -0.064  0.00  0.00    +0.010 A 
ATOM     13  C   UNL     1       2.539  -2.981   0.310  0.00  0.00    +0.039 A 
ATOM     14  C   UNL     1       3.436  -2.324  -0.516  0.00  0.00    +0.126 A 
ATOM     15  C   UNL     1       3.005  -1.787  -1.717  0.00  0.00    +0.077 A 
ATOM     16  C   UNL     1       1.679  -1.913  -2.093  0.00  0.00    +0.130 A 
ATOM     17  F   UNL     1       1.258  -1.395  -3.268  0.00  0.00    -0.205 F 
ATOM     18  F   UNL     1       4.731  -2.205  -0.149  0.00  0.00    -0.205 F 
ENDBRANCH  10  11
BRANCH   1  24
ATOM     19  C   UNL     1       0.492   0.191  -0.640  0.00  0.00    +0.011 A 
ATOM     20  C   UNL     1       1.636   0.954  -0.517  0.00  0.00    +0.020 A 
ATOM     21  C   UNL     1       2.190   1.177   0.732  0.00  0.00    +0.041 A 
ATOM     22  C   UNL     1       1.600   0.638   1.863  0.00  0.00    +0.020 A 
ATOM     23  C   UNL     1       0.457  -0.126   1.749  0.00  0.00    +0.011 A 
ATOM     24  C   UNL     1      -0.105  -0.353   0.495  0.00  0.00    +0.003 A 
ATOM     25 CL   UNL     1       3.629   2.136   0.881  0.00  0.00    -0.084 Cl
ENDBRANCH   1  24
BRANCH   8  26
ATOM     26  O   UNL     1      -3.004  -5.375  -2.642  0.00  0.00    -0.495 OA
ATOM     27  H   UNL     1      -3.963  -5.471  -2.569  0.00  0.00    +0.293 HD
ENDBRANCH   8  26
TORSDOF 3
