REMARK  Name = ZINC36660391
REMARK  12 active torsions:
REMARK  status: ('A' for Active; 'I' for Inactive)
REMARK    1  A    between atoms: C_1  and  C_2
REMARK    2  A    between atoms: C_2  and  C_3
REMARK    3  A    between atoms: C_2  and  N_4
REMARK    4  A    between atoms: C_10  and  N_16
REMARK    5  A    between atoms: C_11  and  C_12
REMARK    6  A    between atoms: C_12  and  O_14
REMARK    7  A    between atoms: O_14  and  C_15
REMARK    8  A    between atoms: C_17  and  C_19
REMARK    9  A    between atoms: N_24  and  S_25
REMARK   10  A    between atoms: S_25  and  C_28
REMARK   11  A    between atoms: C_31  and  O_34
REMARK   12  A    between atoms: O_34  and  C_35
REMARK                            x       y       z     vdW  Elec       q    Type
REMARK                         _______ _______ _______ _____ _____    ______ ____
ROOT
ATOM      1  N   UNL     1       5.304  -0.674  -5.537  0.00  0.00    -0.278 N 
ATOM      2  C   UNL     1       6.387   0.120  -5.429  0.00  0.00    +0.236 C 
ATOM      3  O   UNL     1       6.500   0.867  -4.481  0.00  0.00    -0.274 OA
ATOM      4  H   UNL     1       5.214  -1.272  -6.296  0.00  0.00    +0.155 HD
ENDROOT
BRANCH   1  11
ATOM      5  N   UNL     1       0.639  -0.221  -1.304  0.00  0.00    +0.384 N 
ATOM      6  C   UNL     1       0.580  -1.648  -1.646  0.00  0.00    -0.073 C 
ATOM      7  C   UNL     1       0.948  -1.855  -3.119  0.00  0.00    +0.018 C 
ATOM      8  C   UNL     1       2.274  -1.151  -3.372  0.00  0.00    -0.025 A 
ATOM      9  C   UNL     1       2.731  -0.226  -2.497  0.00  0.00    -0.021 A 
ATOM     10  S   UNL     1       4.270   0.311  -3.178  0.00  0.00    -0.079 S 
ATOM     11  C   UNL     1       4.319  -0.639  -4.563  0.00  0.00    +0.086 A 
ATOM     12  C   UNL     1       3.145  -1.378  -4.508  0.00  0.00    +0.091 A 
ATOM     13  C   UNL     1       2.046   0.216  -1.243  0.00  0.00    -0.035 C 
ATOM     14  H   UNL     1       0.152   0.313  -2.008  0.00  0.00    -0.081 HD
BRANCH   5  16
ATOM     15  C   UNL     1       0.155   1.464   0.407  0.00  0.00    -0.014 C 
ATOM     16  C   UNL     1       0.002  -0.004   0.002  0.00  0.00    -0.074 C 
ATOM     17  C   UNL     1      -1.484  -0.355  -0.091  0.00  0.00    -0.014 C 
ENDBRANCH   5  16
BRANCH  12  18
ATOM     18  C   UNL     1       2.803  -2.346  -5.552  0.00  0.00    +0.342 C 
ATOM     19  O   UNL     1       2.159  -1.993  -6.522  0.00  0.00    -0.245 OA
BRANCH  18  20
ATOM     20  O   UNL     1       3.201  -3.630  -5.439  0.00  0.00    -0.464 OA
ATOM     21  C   UNL     1       2.832  -4.519  -6.495  0.00  0.00    +0.280 C 
ENDBRANCH  18  20
ENDBRANCH  12  18
ENDBRANCH   1  11
BRANCH   2  22
ATOM     22  C   UNL     1       7.458   0.081  -6.489  0.00  0.00    +0.166 C 
ATOM     23  C   UNL     1       6.867   0.506  -7.849  0.00  0.00    +0.031 C 
ATOM     24  C   UNL     1       7.249   2.007  -7.941  0.00  0.00    +0.019 C 
ATOM     25  C   UNL     1       8.638   2.017  -7.255  0.00  0.00    +0.110 C 
ATOM     26  N   UNL     1       8.526   1.036  -6.156  0.00  0.00    -0.165 NA
BRANCH  26  27
ATOM     27  S   UNL     1       9.445   1.015  -4.778  0.00  0.00    +0.062 S 
ATOM     28  O   UNL     1       9.919   2.341  -4.586  0.00  0.00    -0.153 OA
ATOM     29  O   UNL     1       8.685   0.327  -3.794  0.00  0.00    -0.153 OA
BRANCH  27  30
ATOM     30  C   UNL     1      10.859   0.018  -5.111  0.00  0.00    +0.106 A 
ATOM     31  C   UNL     1      10.817  -1.343  -4.865  0.00  0.00    +0.032 A 
ATOM     32  C   UNL     1      11.925  -2.126  -5.125  0.00  0.00    +0.047 A 
ATOM     33  C   UNL     1      13.079  -1.548  -5.632  0.00  0.00    +0.120 A 
ATOM     34  C   UNL     1      13.118  -0.183  -5.878  0.00  0.00    +0.047 A 
ATOM     35  C   UNL     1      12.006   0.596  -5.622  0.00  0.00    +0.032 A 
BRANCH  33  36
ATOM     36  O   UNL     1      14.170  -2.317  -5.888  0.00  0.00    -0.495 OA
ATOM     37  C   UNL     1      15.323  -1.654  -6.410  0.00  0.00    +0.277 C 
ENDBRANCH  33  36
ENDBRANCH  27  30
ENDBRANCH  26  27
ENDBRANCH   2  22
TORSDOF 8
