REMARK  Name = ZINC09459568
REMARK  9 active torsions:
REMARK  status: ('A' for Active; 'I' for Inactive)
REMARK    1  A    between atoms: C_1  and  C_2
REMARK    2  A    between atoms: C_9  and  C_19
REMARK    3  A    between atoms: C_12  and  C_13
REMARK    4  A    between atoms: C_19  and  O_21
REMARK    5  A    between atoms: O_21  and  C_22
REMARK    6  A    between atoms: C_22  and  C_24
REMARK    7  A    between atoms: C_22  and  C_27
REMARK    8  A    between atoms: C_24  and  C_25
REMARK    9  A    between atoms: C_24  and  C_26
REMARK                            x       y       z     vdW  Elec       q    Type
REMARK                         _______ _______ _______ _____ _____    ______ ____
ROOT
ATOM      1  C   UNL     1      -2.525   1.261  -0.519  0.00  0.00    +0.051 C 
ATOM      2  C   UNL     1      -1.222   1.964  -0.240  0.00  0.00    +0.040 A 
ATOM      3  C   UNL     1      -0.004   1.244  -0.262  0.00  0.00    +0.196 A 
ATOM      4  O   UNL     1       0.021   0.048  -0.503  0.00  0.00    -0.287 OA
ATOM      5  C   UNL     1       1.235   1.998   0.014  0.00  0.00    +0.065 A 
ATOM      6  C   UNL     1       2.480   1.371   0.008  0.00  0.00    +0.015 A 
ATOM      7  C   UNL     1       3.620   2.104   0.270  0.00  0.00    +0.002 A 
ATOM      8  C   UNL     1       3.538   3.458   0.538  0.00  0.00    +0.019 A 
ATOM      9  C   UNL     1       2.302   4.104   0.548  0.00  0.00    +0.102 A 
ATOM     10  C   UNL     1       1.135   3.370   0.284  0.00  0.00    +0.153 A 
ATOM     11  O   UNL     1      -0.072   3.968   0.287  0.00  0.00    -0.454 OA
ATOM     12  C   UNL     1      -1.207   3.296   0.038  0.00  0.00    +0.142 A 
ENDROOT
BRANCH  12  13
ATOM     13  C   UNL     1      -2.487   4.030   0.061  0.00  0.00    +0.018 A 
ATOM     14  C   UNL     1      -2.641   5.196  -0.692  0.00  0.00    +0.011 A 
ATOM     15  C   UNL     1      -3.841   5.875  -0.669  0.00  0.00    +0.001 A 
ATOM     16  C   UNL     1      -4.888   5.410   0.107  0.00  0.00    +0.000 A 
ATOM     17  C   UNL     1      -4.742   4.258   0.860  0.00  0.00    +0.001 A 
ATOM     18  C   UNL     1      -3.548   3.566   0.842  0.00  0.00    +0.011 A 
ENDBRANCH  12  13
BRANCH   9  19
ATOM     19  C   UNL     1       2.222   5.548   0.835  0.00  0.00    +0.344 C 
ATOM     20  O   UNL     1       1.143   6.106   0.844  0.00  0.00    -0.245 OA
BRANCH  19  21
ATOM     21  O   UNL     1       3.345   6.248   1.088  0.00  0.00    -0.448 OA
BRANCH  21  22
ATOM     22  C   UNL     1       3.190   7.665   1.363  0.00  0.00    +0.265 C 
BRANCH  22  23
ATOM     23  C   UNL     1       4.287   8.120   2.291  0.00  0.00    +0.261 C 
ATOM     24  O   UNL     1       5.168   7.351   2.611  0.00  0.00    -0.271 OA
ATOM     25  N   UNL     1       4.288   9.381   2.767  0.00  0.00    -0.237 N 
ATOM     26  C   UNL     1       5.269   9.787   3.597  0.00  0.00    +0.303 C 
ATOM     27  O   UNL     1       6.152   9.016   3.917  0.00  0.00    -0.253 OA
ATOM     28  N   UNL     1       5.270  11.048   4.072  0.00  0.00    -0.313 N 
ATOM     29  H   UNL     1       3.583   9.996   2.511  0.00  0.00    +0.159 HD
ATOM     30  H   UNL     1       4.565  11.664   3.816  0.00  0.00    +0.146 HD
ATOM     31  H   UNL     1       5.976  11.341   4.670  0.00  0.00    +0.146 HD
ENDBRANCH  22  23
BRANCH  22  32
ATOM     32  C   UNL     1       3.274   8.450   0.052  0.00  0.00    +0.033 C 
ATOM     33  C   UNL     1       4.581   8.107  -0.666  0.00  0.00    +0.011 C 
ATOM     34  C   UNL     1       2.088   8.079  -0.841  0.00  0.00    +0.011 C 
ENDBRANCH  22  32
ENDBRANCH  21  22
ENDBRANCH  19  21
ENDBRANCH   9  19
TORSDOF 6
