REMARK  Name = ZINC13724050
REMARK  4 active torsions:
REMARK  status: ('A' for Active; 'I' for Inactive)
REMARK    1  A    between atoms: C_1  and  C_2
REMARK    2  A    between atoms: C_2  and  N_4
REMARK    3  A    between atoms: C_11  and  C_15
REMARK    4  A    between atoms: C_15  and  N_17
REMARK                            x       y       z     vdW  Elec       q    Type
REMARK                         _______ _______ _______ _____ _____    ______ ____
ROOT
ATOM      1  N   UNL     1      -0.026  -0.665  -1.152  0.00  0.00    -0.161 NA
ATOM      2  C   UNL     1      -0.104  -1.994  -1.161  0.00  0.00    +0.164 A 
ATOM      3  N   UNL     1      -0.284  -2.824  -0.102  0.00  0.00    -0.335 N 
ATOM      4  H   UNL     1      -0.372  -2.458   0.792  0.00  0.00    +0.168 HD
ATOM      5  C   UNL     1      -0.341  -4.187  -0.299  0.00  0.00    +0.055 A 
ATOM      6  C   UNL     1      -0.518  -5.210   0.647  0.00  0.00    +0.027 A 
ATOM      7  C   UNL     1      -0.549  -6.526   0.262  0.00  0.00    +0.015 A 
ATOM      8  C   UNL     1      -0.406  -6.887  -1.081  0.00  0.00    +0.040 A 
ATOM      9  C   UNL     1      -0.230  -5.884  -2.038  0.00  0.00    +0.030 A 
ATOM     10  C   UNL     1      -0.200  -4.572  -1.642  0.00  0.00    +0.039 A 
ATOM     11  S   UNL     1      -0.011  -3.023  -2.486  0.00  0.00    -0.052 S 
ENDROOT
BRANCH   1  13
ATOM     12  C   UNL     1      -1.156   0.921   0.347  0.00  0.00    +0.106 C 
ATOM     13  C   UNL     1      -0.020  -0.007   0.002  0.00  0.00    +0.175 C 
ATOM     14  O   UNL     1       0.903  -0.154   0.781  0.00  0.00    -0.497 OA
ATOM     15  H   UNL     1       1.545  -0.824   0.508  0.00  0.00    +0.293 HD
ENDBRANCH   1  13
BRANCH   8  16
ATOM     16  C   UNL     1      -0.441  -8.310  -1.483  0.00  0.00    +0.270 C 
ATOM     17  O   UNL     1      -0.316  -8.616  -2.656  0.00  0.00    -0.268 OA
BRANCH  16  18
ATOM     18  N   UNL     1      -0.611  -9.263  -0.558  0.00  0.00    -0.143 NA
ATOM     19  C   UNL     1      -0.744 -10.531  -0.928  0.00  0.00    +0.199 A 
ATOM     20  N   UNL     1      -0.618 -10.999  -2.199  0.00  0.00    -0.326 N 
ATOM     21  H   UNL     1      -0.417 -10.465  -2.984  0.00  0.00    +0.169 HD
ATOM     22  C   UNL     1      -0.827 -12.374  -2.180  0.00  0.00    +0.065 A 
ATOM     23  C   UNL     1      -0.820 -13.346  -3.171  0.00  0.00    +0.028 A 
ATOM     24  C   UNL     1      -1.068 -14.664  -2.842  0.00  0.00    +0.002 A 
ATOM     25  C   UNL     1      -1.323 -15.020  -1.529  0.00  0.00    +0.002 A 
ATOM     26  C   UNL     1      -1.332 -14.061  -0.536  0.00  0.00    +0.028 A 
ATOM     27  C   UNL     1      -1.084 -12.733  -0.856  0.00  0.00    +0.065 A 
ATOM     28  N   UNL     1      -1.022 -11.570  -0.095  0.00  0.00    -0.326 N 
ATOM     29  H   UNL     1      -1.156 -11.510   0.864  0.00  0.00    +0.169 HD
ENDBRANCH  16  18
ENDBRANCH   8  16
TORSDOF 3
