REMARK  Name = ZINC38776399
REMARK  13 active torsions:
REMARK  status: ('A' for Active; 'I' for Inactive)
REMARK    1  A    between atoms: C_1  and  C_2
REMARK    2  A    between atoms: C_2  and  O_3
REMARK    3  A    between atoms: O_3  and  C_4
REMARK    4  A    between atoms: C_6  and  C_16
REMARK    5  A    between atoms: C_8  and  O_13
REMARK    6  A    between atoms: C_9  and  O_10
REMARK    7  A    between atoms: O_10  and  C_11
REMARK    8  A    between atoms: C_11  and  C_12
REMARK    9  A    between atoms: O_13  and  C_14
REMARK   10  A    between atoms: C_14  and  C_15
REMARK   11  A    between atoms: N_18  and  C_19
REMARK   12  A    between atoms: C_19  and  C_20
REMARK   13  A    between atoms: C_20  and  C_21
REMARK                            x       y       z     vdW  Elec       q    Type
REMARK                         _______ _______ _______ _____ _____    ______ ____
ROOT
ATOM      1  C   UNL     1      -0.673  -7.203   1.293  0.00  0.00    +0.113 C 
ENDROOT
BRANCH   1   4
ATOM      2  C   UNL     1      -0.215  -4.962   0.454  0.00  0.00    +0.244 C 
ATOM      3  O   UNL     1      -0.778  -4.512   1.433  0.00  0.00    -0.270 OA
ATOM      4  N   UNL     1      -0.109  -6.296   0.291  0.00  0.00    -0.311 N 
ATOM      5  H   UNL     1       0.340  -6.655  -0.491  0.00  0.00    +0.149 HD
BRANCH   2   8
ATOM      6  C   UNL     1       0.777  -1.811  -1.336  0.00  0.00    +0.166 A 
ATOM      7  C   UNL     1       0.244  -2.665  -0.389  0.00  0.00    +0.062 A 
ATOM      8  C   UNL     1       0.353  -4.048  -0.557  0.00  0.00    +0.044 A 
ATOM      9  C   UNL     1       1.000  -4.564  -1.682  0.00  0.00    +0.062 A 
ATOM     10  C   UNL     1       1.531  -3.705  -2.627  0.00  0.00    +0.166 A 
ATOM     11  C   UNL     1       1.417  -2.328  -2.460  0.00  0.00    +0.204 A 
BRANCH   6  12
ATOM     12  O   UNL     1       0.671  -0.465  -1.174  0.00  0.00    -0.488 OA
BRANCH  12  14
ATOM     13  C   UNL     1      -0.019   1.526   0.010  0.00  0.00    +0.048 C 
ATOM     14  C   UNL     1       0.002  -0.004   0.002  0.00  0.00    +0.226 C 
ENDBRANCH  12  14
ENDBRANCH   6  12
BRANCH  11  15
ATOM     15  O   UNL     1       1.935  -1.486  -3.392  0.00  0.00    -0.485 OA
BRANCH  15  16
ATOM     16  C   UNL     1       3.291  -1.073  -3.211  0.00  0.00    +0.226 C 
ATOM     17  C   UNL     1       3.695  -0.136  -4.351  0.00  0.00    +0.048 C 
ENDBRANCH  15  16
ENDBRANCH  11  15
BRANCH  10  18
ATOM     18  O   UNL     1       2.162  -4.207  -3.722  0.00  0.00    -0.488 OA
BRANCH  18  19
ATOM     19  C   UNL     1       2.238  -5.630  -3.832  0.00  0.00    +0.226 C 
ATOM     20  C   UNL     1       2.977  -6.003  -5.119  0.00  0.00    +0.048 C 
ENDBRANCH  18  19
ENDBRANCH  10  18
ENDBRANCH   2   8
ENDBRANCH   1   4
BRANCH   1  21
ATOM     21  C   UNL     1      -0.418  -8.651   0.871  0.00  0.00    +0.114 C 
BRANCH  21  22
ATOM     22  C   UNL     1      -0.998  -9.585   1.902  0.00  0.00    +0.217 C 
ATOM     23  O   UNL     1      -1.559  -9.136   2.879  0.00  0.00    -0.276 OA
ATOM     24  N   UNL     1      -0.892 -10.918   1.739  0.00  0.00    -0.302 N 
ATOM     25  C   UNL     1      -0.210 -11.477   0.564  0.00  0.00    +0.106 C 
ATOM     26  C   UNL     1       0.875 -12.449   1.041  0.00  0.00    +0.009 C 
ATOM     27  C   UNL     1       0.248 -13.496   1.963  0.00  0.00    -0.037 C 
ATOM     28  C   UNL     1      -0.360 -12.810   3.186  0.00  0.00    +0.009 C 
ATOM     29  C   UNL     1      -1.452 -11.841   2.736  0.00  0.00    +0.106 C 
ATOM     30  C   UNL     1       1.317 -14.494   2.409  0.00  0.00    +0.140 C 
ATOM     31  C   UNL     1       1.763 -15.215   1.140  0.00  0.00    +0.042 C 
ATOM     32  N   UNL     1       3.026 -15.053   1.066  0.00  0.00    -0.243 NA
ATOM     33  C   UNL     1       3.486 -14.246   2.054  0.00  0.00    +0.216 C 
ATOM     34  N   UNL     1       2.543 -13.848   2.881  0.00  0.00    -0.264 NA
ATOM     35  C   UNL     1       0.763 -15.834   0.196  0.00  0.00    +0.034 C 
ATOM     36  C   UNL     1      -0.316 -14.760  -0.042  0.00  0.00    -0.076 C 
ATOM     37  N   UNL     1      -0.798 -14.230   1.236  0.00  0.00    +0.385 N 
ATOM     38  H   UNL     1      -1.118 -14.996   1.809  0.00  0.00    -0.085 HD
ATOM     39  H   UNL     1      -1.573 -13.608   1.061  0.00  0.00    -0.085 HD
ENDBRANCH  21  22
ENDBRANCH   1  21
TORSDOF 10
