REMARK  Name = ZINC46016988
REMARK  9 active torsions:
REMARK  status: ('A' for Active; 'I' for Inactive)
REMARK    1  A    between atoms: C_1  and  C_2
REMARK    2  A    between atoms: C_7  and  C_8
REMARK    3  A    between atoms: C_8  and  S_9
REMARK    4  A    between atoms: S_9  and  C_10
REMARK    5  A    between atoms: N_16  and  C_17
REMARK    6  A    between atoms: C_22  and  C_24
REMARK    7  A    between atoms: C_27  and  O_30
REMARK    8  A    between atoms: O_30  and  C_31
REMARK    9  A    between atoms: C_31  and  C_32
REMARK                            x       y       z     vdW  Elec       q    Type
REMARK                         _______ _______ _______ _____ _____    ______ ____
ROOT
ATOM      1  C   UNL     1      -1.513   1.192   4.568  0.00  0.00    +0.174 A 
ATOM      2  N   UNL     1      -0.308   1.478   5.017  0.00  0.00    -0.185 NA
ATOM      3  C   UNL     1      -0.142   2.140   6.173  0.00  0.00    +0.279 A 
ATOM      4  O   UNL     1       0.981   2.399   6.579  0.00  0.00    -0.265 OA
ATOM      5  C   UNL     1      -1.274   2.535   6.915  0.00  0.00    +0.065 A 
ATOM      6  C   UNL     1      -2.514   2.236   6.442  0.00  0.00    +0.116 A 
ATOM      7  N   UNL     1      -2.630   1.562   5.255  0.00  0.00    -0.311 N 
ATOM      8  C   UNL     1      -3.957   1.235   4.726  0.00  0.00    +0.152 C 
ATOM      9  N   UNL     1      -3.640   2.611   7.145  0.00  0.00    -0.271 N 
ATOM     10  C   UNL     1      -3.575   3.571   8.086  0.00  0.00    +0.219 C 
ATOM     11  O   UNL     1      -4.574   3.878   8.701  0.00  0.00    -0.275 OA
ATOM     12  C   UNL     1      -2.272   4.265   8.382  0.00  0.00    +0.109 C 
ATOM     13  C   UNL     1      -1.115   3.278   8.214  0.00  0.00    +0.066 C 
ATOM     14  H   UNL     1      -4.488   2.177   6.960  0.00  0.00    +0.156 HD
ENDROOT
BRANCH  13  15
ATOM     15  C   UNL     1      -1.121   2.297   9.358  0.00  0.00    -0.039 A 
ATOM     16  C   UNL     1      -2.220   1.485   9.564  0.00  0.00    +0.008 A 
ATOM     17  C   UNL     1      -2.228   0.585  10.613  0.00  0.00    +0.046 A 
ATOM     18  C   UNL     1      -1.131   0.497  11.458  0.00  0.00    +0.121 A 
ATOM     19  C   UNL     1      -0.029   1.313  11.248  0.00  0.00    +0.046 A 
ATOM     20  C   UNL     1      -0.024   2.207  10.195  0.00  0.00    +0.008 A 
BRANCH  18  21
ATOM     21  O   UNL     1      -1.137  -0.387  12.490  0.00  0.00    -0.483 OA
BRANCH  21  22
ATOM     22  C   UNL     1       0.026  -0.423  13.319  0.00  0.00    +0.324 C 
BRANCH  22  23
ATOM     23  C   UNL     1      -0.161  -1.455  14.402  0.00  0.00    +0.248 C 
ATOM     24  O   UNL     1      -1.189  -2.096  14.458  0.00  0.00    -0.272 OA
ATOM     25  N   UNL     1       0.814  -1.665  15.308  0.00  0.00    -0.327 N 
ATOM     26  H   UNL     1       1.636  -1.153  15.264  0.00  0.00    +0.145 HD
ATOM     27  H   UNL     1       0.694  -2.329  16.005  0.00  0.00    +0.145 HD
ENDBRANCH  22  23
ENDBRANCH  21  22
ENDBRANCH  18  21
ENDBRANCH  13  15
BRANCH   1  28
ATOM     28  S   UNL     1      -1.684   0.321   3.046  0.00  0.00    -0.083 S 
BRANCH  28  29
ATOM     29  C   UNL     1       0.025   0.045   2.504  0.00  0.00    +0.112 C 
BRANCH  29  36
ATOM     30  C   UNL     1      -0.018   1.503   0.010  0.00  0.00    +0.044 C 
ATOM     31  C   UNL     1       0.002  -0.004   0.002  0.00  0.00    -0.046 A 
ATOM     32  C   UNL     1       0.006  -0.689  -1.199  0.00  0.00    +0.003 A 
ATOM     33  C   UNL     1       0.025  -2.071  -1.207  0.00  0.00    +0.000 A 
ATOM     34  C   UNL     1       0.040  -2.768  -0.013  0.00  0.00    +0.000 A 
ATOM     35  C   UNL     1       0.037  -2.084   1.188  0.00  0.00    +0.005 A 
ATOM     36  C   UNL     1       0.023  -0.702   1.195  0.00  0.00    -0.034 A 
ENDBRANCH  29  36
ENDBRANCH  28  29
ENDBRANCH   1  28
TORSDOF 7
