REMARK  Name = ZINC63376038
REMARK  8 active torsions:
REMARK  status: ('A' for Active; 'I' for Inactive)
REMARK    1  A    between atoms: C_1  and  C_2
REMARK    2  A    between atoms: C_2  and  C_3
REMARK    3  A    between atoms: C_3  and  C_5
REMARK    4  A    between atoms: C_3  and  N_6
REMARK    5  A    between atoms: C_7  and  C_9
REMARK    6  A    between atoms: C_12  and  N_15
REMARK    7  A    between atoms: C_31  and  C_36
REMARK    8  A    between atoms: C_39  and  C_42
REMARK                            x       y       z     vdW  Elec       q    Type
REMARK                         _______ _______ _______ _____ _____    ______ ____
ROOT
ATOM      1  N   UNL     1       8.284   1.597   2.034  0.00  0.00    -0.193 N 
ATOM      2  C   UNL     1       9.058   1.836   3.112  0.00  0.00    +0.248 C 
ATOM      3  O   UNL     1       8.726   1.786   4.277  0.00  0.00    -0.273 OA
ATOM      4  C   UNL     1      10.427   2.180   2.566  0.00  0.00    +0.169 C 
ATOM      5  C   UNL     1      10.833   3.592   3.025  0.00  0.00    +0.065 C 
ATOM      6  C   UNL     1      11.833   4.100   2.014  0.00  0.00    -0.034 C 
ATOM      7  C   UNL     1      12.386   5.300   1.869  0.00  0.00    -0.001 A 
ATOM      8  C   UNL     1      12.297   6.522   2.683  0.00  0.00    +0.010 A 
ATOM      9  C   UNL     1      12.993   7.597   2.227  0.00  0.00    +0.001 A 
ATOM     10  C   UNL     1      13.758   7.578   1.057  0.00  0.00    +0.002 A 
ATOM     11  C   UNL     1      13.902   6.496   0.252  0.00  0.00    +0.026 A 
ATOM     12  C   UNL     1      13.222   5.302   0.630  0.00  0.00    +0.043 A 
ATOM     13  N   UNL     1      13.198   4.132   0.064  0.00  0.00    -0.375 N 
ATOM     14  C   UNL     1      12.393   3.232   0.894  0.00  0.00    +0.131 C 
ATOM     15  C   UNL     1      11.196   2.670   0.116  0.00  0.00    +0.135 C 
ATOM     16  N   UNL     1      10.213   2.197   1.104  0.00  0.00    -0.264 N 
ATOM     17  C   UNL     1       8.961   1.771   0.890  0.00  0.00    +0.317 C 
ATOM     18  O   UNL     1       8.492   1.571  -0.213  0.00  0.00    -0.252 OA
ATOM     19  H   UNL     1      13.637   3.895  -0.768  0.00  0.00    +0.160 HD
ENDROOT
BRANCH  15  20
ATOM     20  C   UNL     1      10.599   3.746  -0.754  0.00  0.00    -0.025 A 
ATOM     21  C   UNL     1       9.754   4.691  -0.204  0.00  0.00    +0.006 A 
ATOM     22  C   UNL     1       9.206   5.678  -1.002  0.00  0.00    +0.004 A 
ATOM     23  C   UNL     1       9.505   5.719  -2.352  0.00  0.00    -0.050 A 
ATOM     24  C   UNL     1      10.350   4.774  -2.902  0.00  0.00    +0.004 A 
ATOM     25  C   UNL     1      10.901   3.790  -2.103  0.00  0.00    +0.006 A 
ATOM     26  C   UNL     1       8.907   6.794  -3.223  0.00  0.00    +0.044 C 
ENDBRANCH  15  20
BRANCH   1  30
ATOM     27  C   UNL     1       4.285   0.437   2.232  0.00  0.00    +0.037 A 
ATOM     28  C   UNL     1       4.872   0.719   0.996  0.00  0.00    +0.015 A 
ATOM     29  C   UNL     1       6.193   1.102   0.934  0.00  0.00    +0.025 A 
ATOM     30  C   UNL     1       6.943   1.208   2.100  0.00  0.00    +0.045 A 
ATOM     31  C   UNL     1       6.363   0.927   3.332  0.00  0.00    +0.025 A 
ATOM     32  C   UNL     1       5.041   0.549   3.402  0.00  0.00    +0.015 A 
BRANCH  27  34
ATOM     33  N   UNL     1       2.141  -0.081   1.173  0.00  0.00    -0.309 N 
ATOM     34  C   UNL     1       2.869   0.026   2.303  0.00  0.00    +0.244 C 
ATOM     35  O   UNL     1       2.358  -0.214   3.380  0.00  0.00    -0.270 OA
ATOM     36  H   UNL     1       2.548   0.111   0.314  0.00  0.00    +0.149 HD
BRANCH  33  37
ATOM     37  C   UNL     1       0.736  -0.488   1.243  0.00  0.00    +0.070 C 
ATOM     38  C   UNL     1       0.648  -2.015   1.271  0.00  0.00    +0.028 C 
BRANCH  37  40
ATOM     39  C   UNL     1      -0.030   1.573   0.056  0.00  0.00    +0.005 C 
ATOM     40  C   UNL     1      -0.011   0.043   0.018  0.00  0.00    +0.018 C 
ENDBRANCH  37  40
ENDBRANCH  33  37
ENDBRANCH  27  34
ENDBRANCH   1  30
TORSDOF 5
