REMARK  Name = ZINC19742969
REMARK  7 active torsions:
REMARK  status: ('A' for Active; 'I' for Inactive)
REMARK    1  A    between atoms: C_4  and  C_7
REMARK    2  A    between atoms: N_10  and  C_19
REMARK    3  A    between atoms: C_19  and  C_20
REMARK    4  A    between atoms: C_20  and  N_21
REMARK    5  A    between atoms: C_22  and  C_24
REMARK    6  A    between atoms: C_24  and  C_25
REMARK    7  A    between atoms: C_25  and  C_26
REMARK                            x       y       z     vdW  Elec       q    Type
REMARK                         _______ _______ _______ _____ _____    ______ ____
ROOT
ATOM      1  C   UNL     1      -2.439   0.671   0.017  0.00  0.00    +0.103 C 
ENDROOT
BRANCH   1   4
ATOM      2  C   UNL     1      -5.244   2.737   1.461  0.00  0.00    +0.217 C 
ATOM      3  C   UNL     1      -3.839   2.233   1.213  0.00  0.00    +0.134 C 
ATOM      4  N   UNL     1      -3.721   1.388   0.027  0.00  0.00    -0.293 NA
ATOM      5  C   UNL     1      -3.914   2.137  -1.220  0.00  0.00    +0.123 C 
ATOM      6  C   UNL     1      -5.400   2.234  -1.505  0.00  0.00    +0.008 A 
ATOM      7  C   UNL     1      -5.945   1.563  -2.581  0.00  0.00    +0.008 A 
ATOM      8  C   UNL     1      -7.300   1.674  -2.842  0.00  0.00    +0.001 A 
ATOM      9  C   UNL     1      -8.101   2.455  -2.030  0.00  0.00    +0.004 A 
ATOM     10  C   UNL     1      -7.556   3.122  -0.950  0.00  0.00    +0.046 A 
ATOM     11  C   UNL     1      -6.200   3.003  -0.682  0.00  0.00    +0.126 A 
ATOM     12  O   UNL     1      -5.662   3.615   0.409  0.00  0.00    -0.483 OA
BRANCH   2  16
ATOM     13  C   UNL     1      -5.347   4.843   5.176  0.00  0.00    +0.000 A 
ATOM     14  C   UNL     1      -5.670   3.500   5.134  0.00  0.00    +0.000 A 
ATOM     15  C   UNL     1      -5.637   2.818   3.932  0.00  0.00    +0.007 A 
ATOM     16  C   UNL     1      -5.281   3.480   2.771  0.00  0.00    -0.006 A 
ATOM     17  C   UNL     1      -4.952   4.822   2.814  0.00  0.00    +0.007 A 
ATOM     18  C   UNL     1      -4.990   5.505   4.016  0.00  0.00    +0.000 A 
ENDBRANCH   2  16
ENDBRANCH   1   4
BRANCH   1  19
ATOM     19  C   UNL     1      -1.290   1.681   0.017  0.00  0.00    +0.119 C 
BRANCH  19  20
ATOM     20  N   UNL     1      -0.011   0.966   0.007  0.00  0.00    -0.314 N 
ATOM     21  C   UNL     1       1.147   1.655   0.000  0.00  0.00    +0.213 C 
ATOM     22  O   UNL     1       1.130   2.868   0.007  0.00  0.00    -0.276 OA
ATOM     23  H   UNL     1       0.004  -0.134   0.006  0.00  0.00    +0.149 HD
BRANCH  21  24
ATOM     24  C   UNL     1       2.462   0.920  -0.017  0.00  0.00    +0.100 C 
BRANCH  24  25
ATOM     25  C   UNL     1       3.611   1.930  -0.022  0.00  0.00    +0.046 C 
BRANCH  25  26
ATOM     26  C   UNL     1       4.926   1.194  -0.039  0.00  0.00    -0.022 A 
ATOM     27  C   UNL     1       5.682   0.886   1.027  0.00  0.00    +0.087 A 
ATOM     28  N   UNL     1       6.804   0.214   0.625  0.00  0.00    -0.360 N 
ATOM     29  H   UNL     1       7.539  -0.125   1.369  0.00  0.00    +0.165 HD
ATOM     30  C   UNL     1       6.802   0.078  -0.746  0.00  0.00    +0.047 A 
ATOM     31  C   UNL     1       5.625   0.685  -1.221  0.00  0.00    +0.003 A 
ATOM     32  C   UNL     1       5.353   0.699  -2.590  0.00  0.00    +0.010 A 
ATOM     33  C   UNL     1       6.231   0.121  -3.463  0.00  0.00    +0.001 A 
ATOM     34  C   UNL     1       7.393  -0.480  -2.999  0.00  0.00    +0.002 A 
ATOM     35  C   UNL     1       7.682  -0.505  -1.652  0.00  0.00    +0.026 A 
ENDBRANCH  25  26
ENDBRANCH  24  25
ENDBRANCH  21  24
ENDBRANCH  19  20
ENDBRANCH   1  19
TORSDOF 7
