REMARK  Name = ZINC13063668
REMARK  13 active torsions:
REMARK  status: ('A' for Active; 'I' for Inactive)
REMARK    1  A    between atoms: C_1  and  C_2
REMARK    2  A    between atoms: C_2  and  C_3
REMARK    3  A    between atoms: C_10  and  C_15
REMARK    4  A    between atoms: C_15  and  N_76
REMARK    5  A    between atoms: C_16  and  C_17
REMARK    6  A    between atoms: C_16  and  N_76
REMARK    7  A    between atoms: C_22  and  O_23
REMARK    8  A    between atoms: O_23  and  C_24
REMARK    9  A    between atoms: C_25  and  C_27
REMARK   10  A    between atoms: C_25  and  C_29
REMARK   11  A    between atoms: C_25  and  N_76
REMARK   12  A    between atoms: C_27  and  C_28
REMARK   13  A    between atoms: N_33  and  C_34
REMARK                            x       y       z     vdW  Elec       q    Type
REMARK                         _______ _______ _______ _____ _____    ______ ____
ROOT
ATOM      1  N   UNL     1       0.527   4.419  -0.380  0.00  0.00    +0.392 N 
ATOM      2  H   UNL     1      -0.304   4.881   0.008  0.00  0.00    -0.080 HD
ENDROOT
BRANCH   1   3
ATOM      3  C   UNL     1       1.258   5.383  -1.230  0.00  0.00    -0.036 C 
BRANCH   3  11
ATOM      4  C   UNL     1      -2.705   9.672  -3.273  0.00  0.00    -0.047 A 
ATOM      5  C   UNL     1      -3.014   9.041  -4.470  0.00  0.00    +0.005 A 
ATOM      6  C   UNL     1      -2.437   7.833  -4.798  0.00  0.00    +0.026 A 
ATOM      7  C   UNL     1      -1.535   7.239  -3.922  0.00  0.00    +0.049 A 
ATOM      8  C   UNL     1      -1.224   7.882  -2.709  0.00  0.00    -0.001 A 
ATOM      9  C   UNL     1      -1.822   9.108  -2.397  0.00  0.00    +0.013 A 
ATOM     10  C   UNL     1      -0.273   7.249  -1.793  0.00  0.00    +0.017 A 
ATOM     11  C   UNL     1       0.276   6.061  -2.149  0.00  0.00    +0.001 A 
ATOM     12  C   UNL     1      -0.065   5.461  -3.380  0.00  0.00    +0.251 A 
ATOM     13  O   UNL     1       0.444   4.396  -3.683  0.00  0.00    -0.268 OA
ATOM     14  N   UNL     1      -0.942   6.032  -4.225  0.00  0.00    -0.322 N 
ATOM     15  H   UNL     1      -1.157   5.590  -5.061  0.00  0.00    +0.169 HD
BRANCH   4  17
ATOM     16  C   UNL     1      -2.482  12.134  -3.469  0.00  0.00    +0.009 C 
ATOM     17  C   UNL     1      -3.350  10.992  -2.937  0.00  0.00    +0.032 C 
ENDBRANCH   4  17
ENDBRANCH   3  11
ENDBRANCH   1   3
BRANCH   1  18
ATOM     18  C   UNL     1       0.098   3.258  -1.188  0.00  0.00    -0.038 C 
BRANCH  18  19
ATOM     19  C   UNL     1      -0.862   2.429  -0.374  0.00  0.00    -0.022 A 
ATOM     20  C   UNL     1      -0.460   1.211   0.139  0.00  0.00    +0.005 A 
ATOM     21  C   UNL     1      -1.339   0.452   0.890  0.00  0.00    +0.000 A 
ATOM     22  C   UNL     1      -2.625   0.905   1.120  0.00  0.00    +0.004 A 
ATOM     23  C   UNL     1      -3.033   2.120   0.605  0.00  0.00    +0.046 A 
ATOM     24  C   UNL     1      -2.151   2.886  -0.144  0.00  0.00    +0.121 A 
BRANCH  24  25
ATOM     25  O   UNL     1      -2.551   4.081  -0.652  0.00  0.00    -0.495 OA
ATOM     26  C   UNL     1      -3.892   4.488  -0.376  0.00  0.00    +0.277 C 
ENDBRANCH  24  25
ENDBRANCH  18  19
ENDBRANCH   1  18
BRANCH   1  27
ATOM     27  C   UNL     1       1.390   3.970   0.732  0.00  0.00    +0.003 C 
BRANCH  27  28
ATOM     28  C   UNL     1       1.330   4.997   1.834  0.00  0.00    +0.138 A 
ATOM     29  N   UNL     1       1.357   6.300   1.691  0.00  0.00    -0.115 NA
ATOM     30  N   UNL     1       1.284   6.830   2.863  0.00  0.00    -0.023 NA
ATOM     31  N   UNL     1       1.212   5.899   3.750  0.00  0.00    -0.044 NA
ATOM     32  N   UNL     1       1.237   4.755   3.154  0.00  0.00    -0.228 N 
BRANCH  32  33
ATOM     33  C   UNL     1       1.175   3.439   3.795  0.00  0.00    +0.111 C 
ATOM     34  C   UNL     1      -0.074   3.358   4.676  0.00  0.00    +0.027 C 
ATOM     35  C   UNL     1      -0.138   1.984   5.345  0.00  0.00    +0.002 C 
ATOM     36  C   UNL     1       1.108   1.778   6.208  0.00  0.00    +0.000 C 
ATOM     37  C   UNL     1       2.357   1.859   5.328  0.00  0.00    +0.002 C 
ATOM     38  C   UNL     1       2.421   3.233   4.659  0.00  0.00    +0.027 C 
ENDBRANCH  32  33
ENDBRANCH  27  28
BRANCH  27  39
ATOM     39  C   UNL     1       2.836   3.816   0.258  0.00  0.00    -0.011 C 
ATOM     40  C   UNL     1       2.919   2.682  -0.766  0.00  0.00    +0.002 C 
ENDBRANCH  27  39
ENDBRANCH   1  27
TORSDOF 10
