REMARK  Name = ZINC35004543
REMARK  12 active torsions:
REMARK  status: ('A' for Active; 'I' for Inactive)
REMARK    1  A    between atoms: C_1  and  C_2
REMARK    2  A    between atoms: C_2  and  C_3
REMARK    3  A    between atoms: C_3  and  C_4
REMARK    4  A    between atoms: C_4  and  N_5
REMARK    5  A    between atoms: C_13  and  C_15
REMARK    6  A    between atoms: C_16  and  C_18
REMARK    7  A    between atoms: C_18  and  C_20
REMARK    8  A    between atoms: C_18  and  N_25
REMARK    9  A    between atoms: C_20  and  C_22
REMARK   10  A    between atoms: C_20  and  C_23
REMARK   11  A    between atoms: C_23  and  C_24
REMARK   12  A    between atoms: N_28  and  C_29
REMARK                            x       y       z     vdW  Elec       q    Type
REMARK                         _______ _______ _______ _____ _____    ______ ____
ROOT
ATOM      1  C   UNL     1       2.626  -3.551  -8.208  0.00  0.00    +0.163 C 
ENDROOT
BRANCH   1  12
ATOM      2  N   UNL     1      -0.402  -0.995  -2.861  0.00  0.00    -0.299 N 
ATOM      3  C   UNL     1       0.178  -2.205  -2.734  0.00  0.00    +0.303 C 
ATOM      4  O   UNL     1      -0.007  -2.866  -1.730  0.00  0.00    -0.253 OA
ATOM      5  N   UNL     1       0.962  -2.683  -3.721  0.00  0.00    -0.280 N 
ATOM      6  C   UNL     1       1.286  -1.851  -4.888  0.00  0.00    +0.128 C 
ATOM      7  C   UNL     1       0.881  -2.610  -6.158  0.00  0.00    +0.127 C 
ATOM      8  N   UNL     1       1.427  -3.972  -6.086  0.00  0.00    -0.297 N 
ATOM      9  C   UNL     1       1.102  -4.804  -4.919  0.00  0.00    +0.130 C 
ATOM     10  C   UNL     1       1.512  -4.044  -3.646  0.00  0.00    +0.092 C 
ATOM     11  C   UNL     1       3.037  -3.977  -3.552  0.00  0.00    +0.030 C 
ATOM     12  C   UNL     1       2.211  -4.450  -7.072  0.00  0.00    +0.236 C 
ATOM     13  O   UNL     1       2.582  -5.605  -7.046  0.00  0.00    -0.274 OA
ATOM     14  H   UNL     1      -0.198  -0.438  -3.628  0.00  0.00    +0.150 HD
BRANCH   2  15
ATOM     15  C   UNL     1      -1.340  -0.522  -1.840  0.00  0.00    +0.106 C 
BRANCH  15  16
ATOM     16  C   UNL     1      -1.849   0.870  -2.221  0.00  0.00    +0.018 C 
BRANCH  16  18
ATOM     17  C   UNL     1      -3.338   2.756  -1.536  0.00  0.00    +0.004 C 
ATOM     18  C   UNL     1      -2.829   1.364  -1.155  0.00  0.00    -0.002 C 
ENDBRANCH  16  18
ENDBRANCH  15  16
ENDBRANCH   2  15
ENDBRANCH   1  12
BRANCH   1  19
ATOM     19  N   UNL     1       3.683  -4.203  -8.986  0.00  0.00    -0.288 N 
ATOM     20  C   UNL     1       4.691  -3.470  -9.499  0.00  0.00    +0.301 C 
ATOM     21  O   UNL     1       4.773  -2.285  -9.243  0.00  0.00    -0.253 OA
ATOM     22  N   UNL     1       5.610  -4.053 -10.295  0.00  0.00    -0.294 N 
ATOM     23  H   UNL     1       3.656  -5.161  -9.132  0.00  0.00    +0.151 HD
ATOM     24  H   UNL     1       5.545  -4.999 -10.499  0.00  0.00    +0.151 HD
BRANCH  22  25
ATOM     25  C   UNL     1       6.707  -3.257 -10.852  0.00  0.00    +0.037 C 
ATOM     26  C   UNL     1       6.133  -2.130 -11.713  0.00  0.00    +0.029 C 
ATOM     27  C   UNL     1       7.278  -1.299 -12.295  0.00  0.00    -0.008 C 
ATOM     28  C   UNL     1       8.171  -2.194 -13.156  0.00  0.00    +0.007 C 
ATOM     29  C   UNL     1       8.745  -3.321 -12.295  0.00  0.00    -0.008 C 
ATOM     30  C   UNL     1       7.600  -4.152 -11.713  0.00  0.00    +0.029 C 
ATOM     31  C   UNL     1       9.571  -2.722 -11.155  0.00  0.00    +0.007 C 
ATOM     32  C   UNL     1       8.678  -1.827 -10.294  0.00  0.00    -0.008 C 
ATOM     33  C   UNL     1       8.103  -0.700 -11.155  0.00  0.00    +0.007 C 
ATOM     34  C   UNL     1       7.532  -2.658  -9.712  0.00  0.00    +0.029 C 
ENDBRANCH  22  25
ENDBRANCH   1  19
BRANCH   1  35
ATOM     35  C   UNL     1       1.421  -3.279  -9.111  0.00  0.00    +0.015 C 
ATOM     36  C   UNL     1       1.808  -2.260 -10.184  0.00  0.00    +0.010 C 
BRANCH  35  37
ATOM     37  C   UNL     1       0.982  -4.583  -9.780  0.00  0.00    +0.002 C 
ATOM     38  C   UNL     1       0.337  -5.499  -8.738  0.00  0.00    +0.004 C 
ENDBRANCH  35  37
ENDBRANCH   1  35
TORSDOF 8
