REMARK  Name = ZINC35859809
REMARK  7 active torsions:
REMARK  status: ('A' for Active; 'I' for Inactive)
REMARK    1  A    between atoms: C_1  and  C_2
REMARK    2  A    between atoms: C_9  and  C_11
REMARK    3  A    between atoms: C_14  and  C_16
REMARK    4  A    between atoms: C_16  and  O_17
REMARK    5  A    between atoms: O_17  and  C_18
REMARK    6  A    between atoms: C_24  and  C_32
REMARK    7  A    between atoms: C_29  and  C_31
REMARK                            x       y       z     vdW  Elec       q    Type
REMARK                         _______ _______ _______ _____ _____    ______ ____
ROOT
ATOM      1  C   UNL     1       1.879  -8.628   2.298  0.00  0.00    +0.121 A 
ATOM      2  C   UNL     1       3.056  -9.008   2.927  0.00  0.00    +0.046 A 
ATOM      3  C   UNL     1       3.003  -9.678   4.130  0.00  0.00    +0.007 A 
ATOM      4  C   UNL     1       1.781  -9.973   4.724  0.00  0.00    -0.040 A 
ATOM      5  C   UNL     1       0.613  -9.588   4.105  0.00  0.00    -0.016 A 
ATOM      6  C   UNL     1       0.662  -8.915   2.892  0.00  0.00    +0.051 A 
ATOM      7  C   UNL     1      -0.744  -9.851   4.707  0.00  0.00    +0.137 C 
ATOM      8  N   UNL     1      -0.613 -10.782   5.833  0.00  0.00    -0.290 N 
ATOM      9  C   UNL     1       0.486 -10.543   6.783  0.00  0.00    +0.113 C 
ATOM     10  C   UNL     1       1.804 -10.721   6.031  0.00  0.00    +0.054 C 
ATOM     11  C   UNL     1      -1.464 -11.815   5.991  0.00  0.00    +0.213 C 
ATOM     12  O   UNL     1      -2.412 -11.940   5.244  0.00  0.00    -0.276 OA
ATOM     13  C   UNL     1      -1.240 -12.814   7.097  0.00  0.00    +0.109 C 
ENDROOT
BRANCH   7  14
ATOM     14  C   UNL     1      -1.649 -10.452   3.663  0.00  0.00    -0.020 A 
ATOM     15  C   UNL     1      -1.398 -11.724   3.182  0.00  0.00    +0.006 A 
ATOM     16  C   UNL     1      -2.227 -12.277   2.224  0.00  0.00    +0.003 A 
ATOM     17  C   UNL     1      -3.306 -11.559   1.745  0.00  0.00    +0.038 A 
ATOM     18  C   UNL     1      -3.558 -10.285   2.225  0.00  0.00    +0.124 A 
ATOM     19  C   UNL     1      -2.731  -9.735   3.190  0.00  0.00    +0.044 A 
ATOM     20  F   UNL     1      -4.612  -9.582   1.758  0.00  0.00    -0.205 F 
ENDBRANCH   7  14
BRANCH   1  21
ATOM     21  O   UNL     1       1.921  -7.972   1.108  0.00  0.00    -0.485 OA
BRANCH  21  22
ATOM     22  C   UNL     1       3.213  -7.710   0.557  0.00  0.00    +0.291 C 
BRANCH  22  26
ATOM     23  C   UNL     1       2.873  -5.253  -2.212  0.00  0.00    +0.133 A 
ATOM     24  C   UNL     1       2.795  -6.216  -3.182  0.00  0.00    +0.080 A 
ATOM     25  S   UNL     1       2.919  -7.636  -2.292  0.00  0.00    -0.076 S 
ATOM     26  C   UNL     1       3.062  -6.981  -0.753  0.00  0.00    +0.116 A 
ATOM     27  N   UNL     1       3.017  -5.693  -0.957  0.00  0.00    -0.236 NA
BRANCH  23  35
ATOM     28  C   UNL     1       1.751   0.742  -1.309  0.00  0.00    -0.012 C 
ATOM     29  C   UNL     1       1.620  -0.773  -1.140  0.00  0.00    -0.057 C 
ATOM     30  C   UNL     1       2.802  -1.468  -1.825  0.00  0.00    +0.092 C 
ATOM     31  N   UNL     1       2.725  -2.909  -1.539  0.00  0.00    -0.300 N 
ATOM     32  C   UNL     1       2.557  -3.330  -0.140  0.00  0.00    +0.089 C 
ATOM     33  C   UNL     1       1.386  -2.548   0.465  0.00  0.00    -0.063 C 
ATOM     34  N   UNL     1       1.618  -1.109   0.289  0.00  0.00    +0.383 N 
ATOM     35  C   UNL     1       2.807  -3.817  -2.531  0.00  0.00    +0.265 C 
ATOM     36  O   UNL     1       2.827  -3.451  -3.691  0.00  0.00    -0.268 OA
ATOM     37  H   UNL     1       2.508  -0.861   0.693  0.00  0.00    -0.085 HD
ATOM     38  H   UNL     1       0.885  -0.592   0.753  0.00  0.00    -0.085 HD
ENDBRANCH  23  35
ENDBRANCH  22  26
ENDBRANCH  21  22
ENDBRANCH   1  21
TORSDOF 5
