REMARK  Name = ZINC28707558
REMARK  8 active torsions:
REMARK  status: ('A' for Active; 'I' for Inactive)
REMARK    1  A    between atoms: C_3  and  O_38
REMARK    2  A    between atoms: C_6  and  C_7
REMARK    3  A    between atoms: C_9  and  C_13
REMARK    4  A    between atoms: C_13  and  N_14
REMARK    5  A    between atoms: N_23  and  C_24
REMARK    6  A    between atoms: C_24  and  C_25
REMARK    7  A    between atoms: C_29  and  C_31
REMARK    8  A    between atoms: C_34  and  O_37
REMARK                            x       y       z     vdW  Elec       q    Type
REMARK                         _______ _______ _______ _____ _____    ______ ____
ROOT
ATOM      1  N   UNL     1      -2.449  -4.852   1.399  0.00  0.00    -0.301 NA
ATOM      2  C   UNL     1      -1.195  -4.498   2.078  0.00  0.00    +0.069 C 
ATOM      3  C   UNL     1      -1.236  -5.039   3.517  0.00  0.00    -0.053 C 
ATOM      4  C   UNL     1      -2.594  -4.628   4.133  0.00  0.00    -0.016 C 
ATOM      5  C   UNL     1      -3.564  -5.759   3.735  0.00  0.00    -0.016 C 
ATOM      6  C   UNL     1      -2.701  -6.747   2.916  0.00  0.00    -0.053 C 
ATOM      7  C   UNL     1      -2.701  -6.299   1.444  0.00  0.00    +0.069 C 
ATOM      8  N   UNL     1      -1.302  -6.523   3.421  0.00  0.00    +0.388 N 
ATOM      9  H   UNL     1      -0.614  -6.869   2.769  0.00  0.00    -0.080 HD
ENDROOT
BRANCH   1  10
ATOM     10  C   UNL     1      -2.455  -4.360   0.014  0.00  0.00    +0.119 C 
BRANCH  10  13
ATOM     11  C   UNL     1      -1.271  -0.764   0.011  0.00  0.00    +0.071 A 
ATOM     12  C   UNL     1      -1.244  -2.158   0.009  0.00  0.00    +0.033 A 
ATOM     13  C   UNL     1      -2.440  -2.853   0.017  0.00  0.00    -0.030 A 
ATOM     14  C   UNL     1      -3.626  -2.132   0.026  0.00  0.00    +0.024 A 
ATOM     15  C   UNL     1      -3.579  -0.751   0.028  0.00  0.00    +0.112 A 
ATOM     16  N   UNL     1      -2.426  -0.113   0.026  0.00  0.00    -0.255 NA
BRANCH  11  22
ATOM     17  C   UNL     1      -0.017   1.390   0.010  0.00  0.00    +0.013 A 
ATOM     18  C   UNL     1       1.169   2.094   0.002  0.00  0.00    +0.046 A 
ATOM     19  C   UNL     1       2.380   1.416  -0.013  0.00  0.00    +0.117 A 
ATOM     20  C   UNL     1       2.402   0.028  -0.022  0.00  0.00    +0.046 A 
ATOM     21  C   UNL     1       1.220  -0.682  -0.014  0.00  0.00    +0.013 A 
ATOM     22  C   UNL     1       0.002  -0.004   0.002  0.00  0.00    +0.001 A 
BRANCH  19  23
ATOM     23  O   UNL     1       3.547   2.113  -0.021  0.00  0.00    -0.507 OA
ATOM     24  H   UNL     1       3.893   2.310   0.860  0.00  0.00    +0.292 HD
ENDBRANCH  19  23
ENDBRANCH  11  22
ENDBRANCH  10  13
ENDBRANCH   1  10
BRANCH   8  25
ATOM     25  C   UNL     1      -1.123  -7.138   4.743  0.00  0.00    -0.042 C 
BRANCH  25  26
ATOM     26  C   UNL     1      -1.072  -8.637   4.598  0.00  0.00    -0.060 A 
ATOM     27  C   UNL     1      -2.232  -9.396   4.658  0.00  0.00    +0.021 A 
ATOM     28  C   UNL     1      -2.152 -10.769   4.521  0.00  0.00    +0.111 A 
ATOM     29  N   UNL     1      -0.991 -11.364   4.334  0.00  0.00    -0.255 NA
ATOM     30  C   UNL     1       0.141 -10.675   4.270  0.00  0.00    +0.071 A 
ATOM     31  C   UNL     1       0.133  -9.287   4.395  0.00  0.00    +0.030 A 
BRANCH  30  32
ATOM     32  C   UNL     1       1.424 -11.387   4.059  0.00  0.00    +0.001 A 
ATOM     33  C   UNL     1       2.619 -10.671   3.996  0.00  0.00    +0.013 A 
ATOM     34  C   UNL     1       3.810 -11.336   3.800  0.00  0.00    +0.046 A 
ATOM     35  C   UNL     1       3.822 -12.717   3.664  0.00  0.00    +0.117 A 
ATOM     36  C   UNL     1       2.634 -13.434   3.726  0.00  0.00    +0.046 A 
ATOM     37  C   UNL     1       1.439 -12.775   3.928  0.00  0.00    +0.013 A 
BRANCH  35  38
ATOM     38  O   UNL     1       4.997 -13.370   3.471  0.00  0.00    -0.507 OA
ATOM     39  H   UNL     1       5.435 -13.644   4.289  0.00  0.00    +0.292 HD
ENDBRANCH  35  38
ENDBRANCH  30  32
ENDBRANCH  25  26
ENDBRANCH   8  25
TORSDOF 8
