REMARK  Name = ZINC36637286
REMARK  16 active torsions:
REMARK  status: ('A' for Active; 'I' for Inactive)
REMARK    1  A    between atoms: C_1  and  C_2
REMARK    2  A    between atoms: C_2  and  C_3
REMARK    3  A    between atoms: C_3  and  N_4
REMARK    4  A    between atoms: N_4  and  C_5
REMARK    5  A    between atoms: N_4  and  S_8
REMARK    6  A    between atoms: C_5  and  C_6
REMARK    7  A    between atoms: C_6  and  C_7
REMARK    8  A    between atoms: S_8  and  C_11
REMARK    9  A    between atoms: C_14  and  C_17
REMARK   10  A    between atoms: N_19  and  C_20
REMARK   11  A    between atoms: C_20  and  C_21
REMARK   12  A    between atoms: C_21  and  N_22
REMARK   13  A    between atoms: N_22  and  C_23
REMARK   14  A    between atoms: N_22  and  C_24
REMARK   15  A    between atoms: C_30  and  O_34
REMARK   16  A    between atoms: O_34  and  C_35
REMARK                            x       y       z     vdW  Elec       q    Type
REMARK                         _______ _______ _______ _____ _____    ______ ____
ROOT
ATOM      1  C   UNL     1       1.127  -3.628   5.087  0.00  0.00    +0.252 C 
ATOM      2  O   UNL     1       1.600  -2.864   5.906  0.00  0.00    -0.270 OA
ATOM      3  N   UNL     1       0.468  -4.730   5.496  0.00  0.00    -0.248 N 
ATOM      4  C   UNL     1       0.210  -4.923   6.843  0.00  0.00    +0.168 A 
ATOM      5  N   UNL     1      -0.405  -5.924   7.428  0.00  0.00    -0.224 NA
ATOM      6  C   UNL     1      -0.588  -5.982   8.766  0.00  0.00    +0.081 A 
ATOM      7  C   UNL     1      -1.229  -6.995   9.516  0.00  0.00    +0.032 A 
ATOM      8  C   UNL     1      -1.331  -6.901  10.879  0.00  0.00    +0.048 A 
ATOM      9  C   UNL     1      -0.812  -5.812  11.572  0.00  0.00    +0.121 A 
ATOM     10  C   UNL     1      -0.177  -4.801  10.867  0.00  0.00    +0.063 A 
ATOM     11  C   UNL     1      -0.071  -4.891   9.502  0.00  0.00    +0.044 A 
ATOM     12  S   UNL     1       0.637  -3.876   8.227  0.00  0.00    -0.052 S 
ENDROOT
BRANCH   1  16
ATOM     13  C   UNL     1       1.552  -2.824   0.938  0.00  0.00    +0.106 A 
ATOM     14  C   UNL     1       1.444  -1.776   1.835  0.00  0.00    +0.029 A 
ATOM     15  C   UNL     1       1.306  -2.030   3.184  0.00  0.00    +0.015 A 
ATOM     16  C   UNL     1       1.274  -3.348   3.643  0.00  0.00    +0.037 A 
ATOM     17  C   UNL     1       1.383  -4.401   2.733  0.00  0.00    +0.015 A 
ATOM     18  C   UNL     1       1.516  -4.133   1.386  0.00  0.00    +0.029 A 
BRANCH  13  19
ATOM     19  S   UNL     1       1.729  -2.490  -0.783  0.00  0.00    +0.061 S 
ATOM     20  O   UNL     1       2.352  -3.632  -1.356  0.00  0.00    -0.153 OA
ATOM     21  O   UNL     1       2.283  -1.186  -0.889  0.00  0.00    -0.153 OA
BRANCH  19  22
ATOM     22  N   UNL     1       0.205  -2.410  -1.425  0.00  0.00    -0.177 NA
BRANCH  22  23
ATOM     23  C   UNL     1      -0.504  -1.129  -1.472  0.00  0.00    +0.109 C 
BRANCH  23  25
ATOM     24  C   UNL     1      -2.151   0.335  -0.293  0.00  0.00    +0.005 C 
ATOM     25  C   UNL     1      -1.410  -1.003  -0.245  0.00  0.00    +0.014 C 
ENDBRANCH  23  25
ENDBRANCH  22  23
BRANCH  22  26
ATOM     26  C   UNL     1      -0.434  -3.621  -1.947  0.00  0.00    +0.109 C 
BRANCH  26  27
ATOM     27  C   UNL     1      -0.199  -3.712  -3.456  0.00  0.00    +0.014 C 
ATOM     28  C   UNL     1      -0.866  -4.976  -4.001  0.00  0.00    +0.005 C 
ENDBRANCH  26  27
ENDBRANCH  22  26
ENDBRANCH  19  22
ENDBRANCH  13  19
ENDBRANCH   1  16
BRANCH   9  29
ATOM     29  O   UNL     1      -0.926  -5.741  12.926  0.00  0.00    -0.495 OA
ATOM     30  C   UNL     1      -1.595  -6.822  13.578  0.00  0.00    +0.277 C 
ENDBRANCH   9  29
BRANCH   3  31
ATOM     31  C   UNL     1       0.025  -5.725   4.516  0.00  0.00    +0.097 C 
BRANCH  31  32
ATOM     32  C   UNL     1       0.966  -6.931   4.551  0.00  0.00    -0.060 C 
BRANCH  32  33
ATOM     33  N   UNL     1       0.452  -7.980   3.661  0.00  0.00    +0.377 N 
ATOM     34  C   UNL     1       0.487  -7.504   2.272  0.00  0.00    -0.097 C 
ATOM     35  C   UNL     1       1.286  -9.182   3.789  0.00  0.00    -0.097 C 
ATOM     36  H   UNL     1      -0.499  -8.201   3.917  0.00  0.00    -0.083 HD
ENDBRANCH  32  33
ENDBRANCH  31  32
ENDBRANCH   3  31
TORSDOF 11
