REMARK  Name = ZINC52636758
REMARK  5 active torsions:
REMARK  status: ('A' for Active; 'I' for Inactive)
REMARK    1  A    between atoms: C_1  and  C_2
REMARK    2  A    between atoms: N_8  and  S_9
REMARK    3  A    between atoms: S_9  and  C_12
REMARK    4  A    between atoms: C_23  and  C_26
REMARK    5  A    between atoms: C_28  and  C_30
REMARK                            x       y       z     vdW  Elec       q    Type
REMARK                         _______ _______ _______ _____ _____    ______ ____
ROOT
ATOM      1  S   UNL     1       2.399  -0.070   1.548  0.00  0.00    +0.060 S 
ATOM      2  O   UNL     1       2.584  -0.980   2.623  0.00  0.00    -0.153 OA
ATOM      3  O   UNL     1       2.668  -0.421   0.198  0.00  0.00    -0.153 OA
ENDROOT
BRANCH   1   4
ATOM      4  C   UNL     1       3.389   1.343   1.908  0.00  0.00    +0.111 C 
ATOM      5  C   UNL     1       4.120   1.560   3.022  0.00  0.00    +0.027 A 
ATOM      6  C   UNL     1       4.359   0.790   4.249  0.00  0.00    +0.031 A 
ATOM      7  C   UNL     1       5.170   1.311   5.196  0.00  0.00    +0.114 A 
ATOM      8  N   UNL     1       5.769   2.492   5.079  0.00  0.00    -0.234 NA
ATOM      9  C   UNL     1       5.647   3.283   4.045  0.00  0.00    +0.179 A 
ATOM     10  C   UNL     1       4.797   2.875   2.909  0.00  0.00    +0.089 A 
ATOM     11  N   UNL     1       4.497   3.444   1.776  0.00  0.00    -0.376 N 
ATOM     12  C   UNL     1       3.597   2.557   1.029  0.00  0.00    +0.170 C 
ATOM     13  N   UNL     1       6.317   4.505   4.015  0.00  0.00    -0.200 N 
ATOM     14  C   UNL     1       6.734   5.236   5.088  0.00  0.00    +0.144 A 
ATOM     15  C   UNL     1       7.332   6.342   4.598  0.00  0.00    +0.114 A 
ATOM     16  N   UNL     1       7.291   6.303   3.265  0.00  0.00    -0.131 NA
ATOM     17  N   UNL     1       6.702   5.227   2.875  0.00  0.00    -0.059 NA
ATOM     18  H   UNL     1       4.818   4.308   1.474  0.00  0.00    +0.160 HD
BRANCH  15  19
ATOM     19  C   UNL     1       7.948   7.442   5.423  0.00  0.00    +0.272 C 
ATOM     20  F   UNL     1       9.295   7.149   5.660  0.00  0.00    -0.242 F 
ENDBRANCH  15  19
ENDBRANCH   1   4
BRANCH   1  27
ATOM     21  C   UNL     1      -0.232   2.386   0.595  0.00  0.00    +0.027 C 
ATOM     22  C   UNL     1       0.144   0.916   0.398  0.00  0.00    +0.094 C 
ATOM     23  C   UNL     1      -1.125   0.088   0.159  0.00  0.00    +0.128 C 
ATOM     24  N   UNL     1      -1.886   0.021   1.414  0.00  0.00    -0.295 N 
ATOM     25  C   UNL     1      -1.217  -0.482   2.622  0.00  0.00    +0.125 C 
ATOM     26  C   UNL     1       0.051   0.346   2.862  0.00  0.00    +0.129 C 
ATOM     27  N   UNL     1       0.816   0.414   1.605  0.00  0.00    -0.171 NA
ATOM     28  C   UNL     1      -3.174   0.415   1.457  0.00  0.00    +0.247 C 
ATOM     29  O   UNL     1      -3.814   0.291   2.483  0.00  0.00    -0.270 OA
BRANCH  28  30
ATOM     30  C   UNL     1      -3.809   0.998   0.256  0.00  0.00    +0.037 A 
ATOM     31  C   UNL     1      -3.738   0.331  -0.968  0.00  0.00    +0.013 A 
ATOM     32  C   UNL     1      -4.333   0.880  -2.085  0.00  0.00    +0.001 A 
ATOM     33  C   UNL     1      -4.999   2.090  -1.994  0.00  0.00    +0.000 A 
ATOM     34  C   UNL     1      -5.073   2.756  -0.784  0.00  0.00    +0.001 A 
ATOM     35  C   UNL     1      -4.487   2.215   0.342  0.00  0.00    +0.013 A 
ENDBRANCH  28  30
ENDBRANCH   1  27
TORSDOF 4
