REMARK  Name = ZINC36639743
REMARK  6 active torsions:
REMARK  status: ('A' for Active; 'I' for Inactive)
REMARK    1  A    between atoms: C_1  and  C_2
REMARK    2  A    between atoms: C_3  and  C_22
REMARK    3  A    between atoms: C_8  and  C_10
REMARK    4  A    between atoms: C_22  and  C_23
REMARK    5  A    between atoms: C_26  and  S_29
REMARK    6  A    between atoms: S_29  and  N_32
REMARK                            x       y       z     vdW  Elec       q    Type
REMARK                         _______ _______ _______ _____ _____    ______ ____
ROOT
ATOM      1  C   UNL     1      -0.018   1.503   0.010  0.00  0.00    +0.066 C 
ATOM      2  C   UNL     1       0.002  -0.004   0.002  0.00  0.00    +0.051 A 
ATOM      3  C   UNL     1       0.006  -0.706  -1.158  0.00  0.00    +0.018 A 
ATOM      4  S   UNL     1       0.032  -2.379  -0.535  0.00  0.00    -0.056 S 
ATOM      5  C   UNL     1       0.036  -2.015   1.108  0.00  0.00    +0.165 A 
ATOM      6  N   UNL     1       0.023  -0.700   1.124  0.00  0.00    -0.230 NA
ATOM      7  N   UNL     1       0.053  -2.891   2.187  0.00  0.00    -0.261 N 
ATOM      8  C   UNL     1       0.053  -2.410   3.446  0.00  0.00    +0.250 C 
ATOM      9  O   UNL     1       0.038  -1.213   3.638  0.00  0.00    -0.270 OA
ATOM     10  H   UNL     1       0.065  -3.849   2.034  0.00  0.00    +0.157 HD
ENDROOT
BRANCH   8  11
ATOM     11  C   UNL     1       0.071  -3.339   4.589  0.00  0.00    +0.041 C 
ATOM     12  C   UNL     1       0.065  -2.828   5.781  0.00  0.00    +0.024 C 
ATOM     13  C   UNL     1       0.078  -3.592   7.033  0.00  0.00    +0.019 A 
ATOM     14  C   UNL     1       0.884  -3.097   8.168  0.00  0.00    +0.031 A 
ATOM     15  C   UNL     1       0.891  -3.748   9.309  0.00  0.00    +0.042 A 
ATOM     16  C   UNL     1       0.093  -4.977   9.460  0.00  0.00    +0.023 A 
ATOM     17  C   UNL     1      -0.615  -5.426   8.447  0.00  0.00    +0.048 A 
ATOM     18  C   UNL     1      -0.612  -4.702   7.161  0.00  0.00    +0.135 A 
ATOM     19  O   UNL     1      -1.294  -5.228   6.109  0.00  0.00    -0.463 OA
ATOM     20  C   UNL     1      -0.587  -5.626   5.025  0.00  0.00    +0.196 C 
ATOM     21  C   UNL     1       0.089  -4.775   4.300  0.00  0.00    +0.051 C 
ATOM     22 CL   UNL     1       1.840  -3.160  10.638  0.00  0.00    -0.084 Cl
ENDBRANCH   8  11
BRANCH   3  23
ATOM     23  C   UNL     1      -0.009  -0.210  -2.581  0.00  0.00    +0.079 C 
BRANCH  23  24
ATOM     24  C   UNL     1       1.407  -0.025  -3.063  0.00  0.00    -0.042 A 
ATOM     25  C   UNL     1       2.044   1.189  -2.885  0.00  0.00    +0.006 A 
ATOM     26  C   UNL     1       3.343   1.359  -3.327  0.00  0.00    +0.029 A 
ATOM     27  C   UNL     1       4.005   0.315  -3.947  0.00  0.00    +0.105 A 
ATOM     28  C   UNL     1       3.368  -0.899  -4.124  0.00  0.00    +0.029 A 
ATOM     29  C   UNL     1       2.070  -1.070  -3.678  0.00  0.00    +0.006 A 
BRANCH  27  30
ATOM     30  S   UNL     1       5.659   0.532  -4.511  0.00  0.00    +0.056 S 
ATOM     31  O   UNL     1       5.865  -0.422  -5.544  0.00  0.00    -0.153 OA
ATOM     32  O   UNL     1       5.839   1.927  -4.716  0.00  0.00    -0.153 OA
BRANCH  30  33
ATOM     33  N   UNL     1       6.662   0.104  -3.265  0.00  0.00    -0.204 NA
ATOM     34  H   UNL     1       6.287  -0.197  -2.422  0.00  0.00    +0.144 HD
ATOM     35  H   UNL     1       7.624   0.154  -3.377  0.00  0.00    +0.144 HD
ENDBRANCH  30  33
ENDBRANCH  27  30
ENDBRANCH  23  24
ENDBRANCH   3  23
TORSDOF 5
