REMARK  Name = ZINC16875495
REMARK  12 active torsions:
REMARK  status: ('A' for Active; 'I' for Inactive)
REMARK    1  A    between atoms: C_1  and  C_2
REMARK    2  A    between atoms: C_3  and  C_16
REMARK    3  A    between atoms: C_4  and  C_15
REMARK    4  A    between atoms: N_5  and  C_7
REMARK    5  A    between atoms: C_16  and  N_62
REMARK    6  A    between atoms: C_17  and  N_62
REMARK    7  A    between atoms: C_18  and  N_19
REMARK    8  A    between atoms: C_18  and  N_62
REMARK    9  A    between atoms: C_23  and  C_25
REMARK   10  A    between atoms: C_25  and  C_26
REMARK   11  A    between atoms: C_29  and  O_32
REMARK   12  A    between atoms: O_32  and  C_33
REMARK                            x       y       z     vdW  Elec       q    Type
REMARK                         _______ _______ _______ _____ _____    ______ ____
ROOT
ATOM      1  C   UNL     1       5.141   6.044   0.213  0.00  0.00    -0.093 C 
ATOM      2  N   UNL     1       4.336   6.997  -0.579  0.00  0.00    +0.394 N 
ATOM      3  H   UNL     1       4.390   6.737  -1.570  0.00  0.00    -0.079 HD
ENDROOT
BRANCH   2   4
ATOM      4  C   UNL     1       2.924   6.948  -0.145  0.00  0.00    -0.037 C 
BRANCH   4   7
ATOM      5  C   UNL     1       1.514   6.245  -2.895  0.00  0.00    +0.068 C 
ATOM      6  C   UNL     1       1.722   5.299  -1.740  0.00  0.00    +0.062 A 
ATOM      7  C   UNL     1       2.345   5.610  -0.527  0.00  0.00    -0.021 A 
ATOM      8  C   UNL     1       2.335   4.497   0.243  0.00  0.00    +0.038 A 
ATOM      9  N   UNL     1       1.728   3.517  -0.458  0.00  0.00    -0.263 N 
ATOM     10  N   UNL     1       1.357   4.043  -1.702  0.00  0.00    -0.176 NA
ATOM     11  C   UNL     1       2.900   4.375   1.635  0.00  0.00    +0.065 C 
BRANCH   9  12
ATOM     12  C   UNL     1       1.502   2.144  -0.001  0.00  0.00    +0.130 C 
ATOM     13  C   UNL     1       2.180   1.157  -0.966  0.00  0.00    +0.051 C 
ATOM     14  C   UNL     1       1.686  -0.282  -0.682  0.00  0.00    +0.168 C 
ATOM     15  S   UNL     1       0.002  -0.004   0.002  0.00  0.00    -0.029 S 
ATOM     16  O   UNL     1      -0.036  -0.474   1.342  0.00  0.00    -0.174 OA
ATOM     17  O   UNL     1      -0.961  -0.474  -0.931  0.00  0.00    -0.174 OA
ATOM     18  C   UNL     1      -0.023   1.838   0.012  0.00  0.00    +0.192 C 
ENDBRANCH   9  12
ENDBRANCH   4   7
ENDBRANCH   2   4
BRANCH   2  19
ATOM     19  C   UNL     1       4.867   8.367  -0.413  0.00  0.00    +0.073 C 
BRANCH  19  20
ATOM     20  N   UNL     1       6.188   8.441  -1.044  0.00  0.00    -0.240 N 
ATOM     21  C   UNL     1       6.449   8.758  -2.330  0.00  0.00    +0.265 A 
ATOM     22  S   UNL     1       5.297   9.152  -3.533  0.00  0.00    +0.011 S 
ATOM     23  O   UNL     1       7.783   8.708  -2.489  0.00  0.00    -0.416 OA
ATOM     24  C   UNL     1       8.349   8.363  -1.315  0.00  0.00    +0.220 A 
ATOM     25  N   UNL     1       7.424   8.201  -0.427  0.00  0.00    -0.136 NA
BRANCH  24  26
ATOM     26  C   UNL     1       9.827   8.199  -1.075  0.00  0.00    +0.132 C 
BRANCH  26  27
ATOM     27  C   UNL     1      10.226   6.773  -1.352  0.00  0.00    -0.038 A 
ATOM     28  C   UNL     1      10.197   5.838  -0.334  0.00  0.00    +0.007 A 
ATOM     29  C   UNL     1      10.556   4.528  -0.587  0.00  0.00    +0.046 A 
ATOM     30  C   UNL     1      10.958   4.154  -1.861  0.00  0.00    +0.120 A 
ATOM     31  C   UNL     1      10.992   5.095  -2.879  0.00  0.00    +0.046 A 
ATOM     32  C   UNL     1      10.626   6.402  -2.623  0.00  0.00    +0.007 A 
BRANCH  30  33
ATOM     33  O   UNL     1      11.317   2.867  -2.111  0.00  0.00    -0.495 OA
ATOM     34  C   UNL     1      11.258   1.952  -1.015  0.00  0.00    +0.277 C 
ENDBRANCH  30  33
ENDBRANCH  26  27
ENDBRANCH  24  26
ENDBRANCH  19  20
ENDBRANCH   2  19
TORSDOF 8
