REMARK  Name = ZINC64775574
REMARK  5 active torsions:
REMARK  status: ('A' for Active; 'I' for Inactive)
REMARK    1  A    between atoms: C_1  and  C_2
REMARK    2  A    between atoms: C_11  and  C_24
REMARK    3  A    between atoms: C_14  and  C_16
REMARK    4  A    between atoms: C_21  and  O_22
REMARK    5  A    between atoms: C_29  and  O_30
REMARK                            x       y       z     vdW  Elec       q    Type
REMARK                         _______ _______ _______ _____ _____    ______ ____
ROOT
ATOM      1  C   UNL     1      -0.018   1.503   0.010  0.00  0.00    +0.109 C 
ATOM      2  C   UNL     1       0.002  -0.004   0.002  0.00  0.00    +0.212 C 
ATOM      3  O   UNL     1       0.020  -0.616   1.049  0.00  0.00    -0.276 OA
ATOM      4  N   UNL     1       0.000  -0.672  -1.169  0.00  0.00    -0.302 N 
ATOM      5  C   UNL     1      -0.016   0.055  -2.446  0.00  0.00    +0.108 C 
ATOM      6  C   UNL     1       1.149  -0.438  -3.309  0.00  0.00    +0.029 C 
ATOM      7  C   UNL     1       1.062  -1.961  -3.455  0.00  0.00    +0.032 C 
ATOM      8  C   UNL     1       1.179  -2.608  -2.071  0.00  0.00    +0.029 C 
ATOM      9  C   UNL     1       0.020  -2.141  -1.194  0.00  0.00    +0.108 C 
ATOM     10  N   UNL     1       2.170  -2.427  -4.299  0.00  0.00    +0.401 N 
ATOM     11  C   UNL     1       1.969  -1.928  -5.669  0.00  0.00    -0.028 C 
ATOM     12  C   UNL     1       0.760  -2.652  -6.271  0.00  0.00    +0.044 C 
ATOM     13  C   UNL     1      -0.377  -2.622  -5.287  0.00  0.00    +0.044 C 
ATOM     14  N   UNL     1      -0.220  -2.318  -4.052  0.00  0.00    -0.300 NA
ATOM     15  H   UNL     1       3.043  -2.075  -3.936  0.00  0.00    -0.081 HD
ATOM     16  H   UNL     1       2.188  -3.436  -4.307  0.00  0.00    -0.081 HD
ENDROOT
BRANCH  13  17
ATOM     17  C   UNL     1      -1.731  -2.955  -5.764  0.00  0.00    +0.038 A 
ATOM     18  C   UNL     1      -1.940  -3.297  -7.103  0.00  0.00    +0.033 A 
ATOM     19  C   UNL     1      -3.210  -3.608  -7.543  0.00  0.00    +0.042 A 
ATOM     20  C   UNL     1      -4.280  -3.584  -6.662  0.00  0.00    +0.023 A 
ATOM     21  C   UNL     1      -4.086  -3.248  -5.337  0.00  0.00    +0.047 A 
ATOM     22  C   UNL     1      -2.816  -2.938  -4.877  0.00  0.00    +0.126 A 
ATOM     23 CL   UNL     1      -3.468  -4.031  -9.207  0.00  0.00    -0.084 Cl
BRANCH  22  24
ATOM     24  O   UNL     1      -2.624  -2.614  -3.573  0.00  0.00    -0.506 OA
ATOM     25  H   UNL     1      -2.711  -1.669  -3.386  0.00  0.00    +0.292 HD
ENDBRANCH  22  24
ENDBRANCH  13  17
BRANCH  11  26
ATOM     26  C   UNL     1       3.195  -2.209  -6.499  0.00  0.00    -0.019 A 
ATOM     27  C   UNL     1       4.035  -3.252  -6.159  0.00  0.00    +0.005 A 
ATOM     28  C   UNL     1       5.160  -3.511  -6.919  0.00  0.00    +0.000 A 
ATOM     29  C   UNL     1       5.449  -2.727  -8.021  0.00  0.00    +0.004 A 
ATOM     30  C   UNL     1       4.612  -1.683  -8.365  0.00  0.00    +0.045 A 
ATOM     31  C   UNL     1       3.479  -1.425  -7.607  0.00  0.00    +0.118 A 
BRANCH  31  32
ATOM     32  O   UNL     1       2.651  -0.402  -7.947  0.00  0.00    -0.507 OA
ATOM     33  H   UNL     1       2.881   0.443  -7.536  0.00  0.00    +0.292 HD
ENDBRANCH  31  32
ENDBRANCH  11  26
TORSDOF 4
