REMARK  Name = ZINC39670566
REMARK  7 active torsions:
REMARK  status: ('A' for Active; 'I' for Inactive)
REMARK    1  A    between atoms: C_1  and  C_2
REMARK    2  A    between atoms: C_7  and  C_11
REMARK    3  A    between atoms: C_11  and  N_12
REMARK    4  A    between atoms: C_13  and  C_15
REMARK    5  A    between atoms: C_26  and  C_28
REMARK    6  A    between atoms: C_31  and  O_34
REMARK    7  A    between atoms: O_34  and  C_35
REMARK                            x       y       z     vdW  Elec       q    Type
REMARK                         _______ _______ _______ _____ _____    ______ ____
ROOT
ATOM      1  C   UNL     1       2.714  -7.931   2.320  0.00  0.00    +0.100 C 
ATOM      2  C   UNL     1       3.602  -8.247   1.095  0.00  0.00    +0.121 C 
ATOM      3  N   UNL     1       4.455  -9.377   1.532  0.00  0.00    -0.296 N 
ATOM      4  C   UNL     1       3.550 -10.233   2.336  0.00  0.00    +0.115 C 
ATOM      5  C   UNL     1       2.682  -9.237   3.131  0.00  0.00    -0.004 C 
ATOM      6  C   UNL     1       3.275  -9.012   4.519  0.00  0.00    -0.010 C 
ATOM      7  C   UNL     1       3.180 -10.309   5.326  0.00  0.00    -0.082 C 
ATOM      8  N   UNL     1       1.775 -10.720   5.433  0.00  0.00    +0.379 N 
ATOM      9  C   UNL     1       1.239 -11.024   4.101  0.00  0.00    -0.082 C 
ATOM     10  C   UNL     1       1.252  -9.757   3.242  0.00  0.00    -0.010 C 
ATOM     11  C   UNL     1       5.759  -9.580   1.260  0.00  0.00    +0.248 C 
ATOM     12  O   UNL     1       6.403  -8.719   0.693  0.00  0.00    -0.270 OA
ATOM     13  H   UNL     1       1.709 -11.541   6.016  0.00  0.00    -0.086 HD
ATOM     14  H   UNL     1       1.238  -9.972   5.847  0.00  0.00    -0.086 HD
ENDROOT
BRANCH  11  15
ATOM     15  C   UNL     1       6.405 -10.848   1.652  0.00  0.00    +0.055 A 
ATOM     16  C   UNL     1       5.633 -11.988   1.920  0.00  0.00    +0.020 A 
ATOM     17  C   UNL     1       6.283 -13.150   2.282  0.00  0.00    +0.068 A 
ATOM     18  C   UNL     1       7.672 -13.153   2.369  0.00  0.00    +0.220 A 
ATOM     19  N   UNL     1       8.373 -12.060   2.110  0.00  0.00    -0.220 NA
ATOM     20  C   UNL     1       7.794 -10.932   1.755  0.00  0.00    +0.127 A 
BRANCH  18  21
ATOM     21  O   UNL     1       8.316 -14.291   2.724  0.00  0.00    -0.438 OA
BRANCH  21  22
ATOM     22  C   UNL     1       9.674 -14.288   2.707  0.00  0.00    +0.130 A 
ATOM     23  C   UNL     1      10.381 -13.712   3.753  0.00  0.00    +0.046 A 
ATOM     24  C   UNL     1      11.763 -13.710   3.732  0.00  0.00    +0.004 A 
ATOM     25  C   UNL     1      12.441 -14.280   2.671  0.00  0.00    +0.000 A 
ATOM     26  C   UNL     1      11.738 -14.855   1.627  0.00  0.00    +0.004 A 
ATOM     27  C   UNL     1      10.357 -14.865   1.646  0.00  0.00    +0.046 A 
ENDBRANCH  21  22
ENDBRANCH  18  21
ENDBRANCH  11  15
BRANCH   1  29
ATOM     28  N   UNL     1       0.580  -6.719   2.629  0.00  0.00    -0.309 N 
ATOM     29  C   UNL     1       1.323  -7.555   1.877  0.00  0.00    +0.219 C 
ATOM     30  O   UNL     1       0.874  -8.003   0.843  0.00  0.00    -0.275 OA
ATOM     31  H   UNL     1       0.939  -6.361   3.455  0.00  0.00    +0.149 HD
BRANCH  28  32
ATOM     32  C   UNL     1      -0.772  -6.353   2.198  0.00  0.00    +0.159 C 
BRANCH  32  39
ATOM     33  C   UNL     1      -4.335  -2.912   7.684  0.00  0.00    +0.045 C 
ATOM     34  C   UNL     1      -3.473  -3.148   6.470  0.00  0.00    -0.034 A 
ATOM     35  C   UNL     1      -2.850  -2.062   5.833  0.00  0.00    +0.008 A 
ATOM     36  C   UNL     1      -2.072  -2.278   4.739  0.00  0.00    +0.045 A 
ATOM     37  C   UNL     1      -1.904  -3.593   4.260  0.00  0.00    +0.115 A 
ATOM     38  N   UNL     1      -1.221  -4.091   3.239  0.00  0.00    -0.342 N 
ATOM     39  C   UNL     1      -1.384  -5.416   3.207  0.00  0.00    +0.051 A 
ATOM     40  C   UNL     1      -2.190  -5.776   4.230  0.00  0.00    +0.115 A 
ATOM     41  N   UNL     1      -2.525  -4.633   4.903  0.00  0.00    -0.308 N 
ATOM     42  C   UNL     1      -3.298  -4.402   6.004  0.00  0.00    +0.096 A 
ATOM     43  H   UNL     1      -0.687  -3.576   2.615  0.00  0.00    +0.167 HD
ENDBRANCH  32  39
ENDBRANCH  28  32
ENDBRANCH   1  29
TORSDOF 6
