REMARK  Name = ZINC41153214
REMARK  4 active torsions:
REMARK  status: ('A' for Active; 'I' for Inactive)
REMARK    1  A    between atoms: C_4  and  C_7
REMARK    2  A    between atoms: C_7  and  C_8
REMARK    3  A    between atoms: C_8  and  N_9
REMARK    4  A    between atoms: N_23  and  C_26
REMARK                            x       y       z     vdW  Elec       q    Type
REMARK                         _______ _______ _______ _____ _____    ______ ____
ROOT
ATOM      1  N   UNL     1       5.448  -1.651   1.373  0.00  0.00    -0.328 N 
ATOM      2  C   UNL     1       6.056  -2.002   2.558  0.00  0.00    +0.131 A 
ATOM      3  C   UNL     1       7.291  -2.699   2.563  0.00  0.00    +0.038 A 
ATOM      4  C   UNL     1       7.945  -3.058   1.379  0.00  0.00    +0.013 A 
ATOM      5  C   UNL     1       9.132  -3.727   1.443  0.00  0.00    +0.001 A 
ATOM      6  C   UNL     1       9.701  -4.058   2.669  0.00  0.00    +0.002 A 
ATOM      7  C   UNL     1       9.089  -3.723   3.840  0.00  0.00    +0.026 A 
ATOM      8  C   UNL     1       7.869  -3.034   3.811  0.00  0.00    +0.052 A 
ATOM      9  N   UNL     1       7.227  -2.680   4.935  0.00  0.00    -0.327 N 
ATOM     10  C   UNL     1       6.079  -2.033   4.874  0.00  0.00    +0.198 A 
ATOM     11  N   UNL     1       5.505  -1.694   3.723  0.00  0.00    -0.201 NA
ATOM     12  N   UNL     1       5.449  -1.687   6.056  0.00  0.00    -0.298 N 
ATOM     13  C   UNL     1       5.990  -2.130   7.348  0.00  0.00    +0.127 C 
ATOM     14  C   UNL     1       6.214  -0.898   8.234  0.00  0.00    +0.124 C 
ATOM     15  N   UNL     1       4.992  -0.081   8.219  0.00  0.00    -0.327 N 
ATOM     16  C   UNL     1       4.452   0.362   6.926  0.00  0.00    +0.124 C 
ATOM     17  C   UNL     1       4.231  -0.865   6.041  0.00  0.00    +0.127 C 
ATOM     18  H   UNL     1       5.862  -1.883   0.527  0.00  0.00    +0.147 HD
ATOM     19  H   UNL     1       7.610  -2.902   5.799  0.00  0.00    +0.169 HD
ENDROOT
BRANCH  15  20
ATOM     20  C   UNL     1       4.356   0.268   9.413  0.00  0.00    +0.030 A 
ATOM     21  C   UNL     1       4.942  -0.047  10.632  0.00  0.00    +0.023 A 
ATOM     22  C   UNL     1       4.311   0.300  11.810  0.00  0.00    +0.002 A 
ATOM     23  C   UNL     1       3.096   0.960  11.777  0.00  0.00    +0.000 A 
ATOM     24  C   UNL     1       2.510   1.275  10.565  0.00  0.00    +0.002 A 
ATOM     25  C   UNL     1       3.139   0.936   9.383  0.00  0.00    +0.023 A 
ENDBRANCH  15  20
BRANCH   1  26
ATOM     26  C   UNL     1       4.175  -0.926   1.390  0.00  0.00    +0.107 C 
BRANCH  26  27
ATOM     27  C   UNL     1       3.720  -0.660  -0.047  0.00  0.00    +0.054 C 
BRANCH  27  31
ATOM     28  C   UNL     1       0.008   1.453   0.001  0.00  0.00    +0.000 A 
ATOM     29  C   UNL     1       1.201   2.152  -0.001  0.00  0.00    +0.000 A 
ATOM     30  C   UNL     1       2.402   1.468  -0.017  0.00  0.00    +0.004 A 
ATOM     31  C   UNL     1       2.410   0.085  -0.029  0.00  0.00    -0.046 A 
ATOM     32  C   UNL     1       1.217  -0.613  -0.026  0.00  0.00    +0.004 A 
ATOM     33  C   UNL     1       0.016   0.071  -0.012  0.00  0.00    +0.000 A 
ENDBRANCH  27  31
ENDBRANCH  26  27
ENDBRANCH   1  26
TORSDOF 4
