REMARK  Name = ZINC14720135
REMARK  14 active torsions:
REMARK  status: ('A' for Active; 'I' for Inactive)
REMARK    1  A    between atoms: C_1  and  C_2
REMARK    2  A    between atoms: C_2  and  C_3
REMARK    3  A    between atoms: C_3  and  C_4
REMARK    4  A    between atoms: C_4  and  N_5
REMARK    5  A    between atoms: N_5  and  C_6
REMARK    6  A    between atoms: C_7  and  N_19
REMARK    7  A    between atoms: N_8  and  C_15
REMARK    8  A    between atoms: C_15  and  C_16
REMARK    9  A    between atoms: C_16  and  C_17
REMARK   10  A    between atoms: C_16  and  C_18
REMARK   11  A    between atoms: C_20  and  C_22
REMARK   12  A    between atoms: C_25  and  N_28
REMARK   13  A    between atoms: C_29  and  C_34
REMARK   14  A    between atoms: C_32  and  C_33
REMARK                            x       y       z     vdW  Elec       q    Type
REMARK                         _______ _______ _______ _____ _____    ______ ____
ROOT
ATOM      1  N   UNL     1       0.820  -3.111   2.228  0.00  0.00    -0.260 N 
ATOM      2  C   UNL     1       0.686  -2.735   3.515  0.00  0.00    +0.251 C 
ATOM      3  O   UNL     1       0.784  -3.561   4.403  0.00  0.00    -0.270 OA
ENDROOT
BRANCH   1   4
ATOM      4  C   UNL     1       0.769  -2.145   1.202  0.00  0.00    +0.140 A 
ATOM      5  C   UNL     1      -0.203  -2.209   0.225  0.00  0.00    +0.127 A 
ATOM      6  N   UNL     1      -0.228  -1.252  -0.763  0.00  0.00    -0.280 N 
ATOM      7  C   UNL     1       0.689  -0.267  -0.779  0.00  0.00    +0.331 A 
ATOM      8  O   UNL     1       0.654   0.567  -1.663  0.00  0.00    -0.246 OA
ATOM      9  N   UNL     1       1.641  -0.185   0.168  0.00  0.00    -0.273 N 
ATOM     10  H   UNL     1       2.305   0.561   0.138  0.00  0.00    +0.173 HD
ATOM     11  C   UNL     1       1.709  -1.098   1.157  0.00  0.00    +0.277 A 
ATOM     12  O   UNL     1       2.579  -1.017   2.008  0.00  0.00    -0.266 OA
BRANCH   5  13
ATOM     13  N   UNL     1      -1.137  -3.217   0.238  0.00  0.00    -0.343 N 
ATOM     14  H   UNL     1      -1.750  -3.321  -0.506  0.00  0.00    +0.144 HD
ATOM     15  H   UNL     1      -1.183  -3.826   0.992  0.00  0.00    +0.144 HD
ENDBRANCH   5  13
BRANCH   6  16
ATOM     16  C   UNL     1      -1.254  -1.308  -1.806  0.00  0.00    +0.131 C 
BRANCH  16  17
ATOM     17  C   UNL     1      -2.482  -0.511  -1.357  0.00  0.00    +0.003 C 
ATOM     18  C   UNL     1      -3.503  -0.465  -2.495  0.00  0.00    +0.009 C 
ATOM     19  C   UNL     1      -3.109  -1.187  -0.136  0.00  0.00    +0.009 C 
ENDBRANCH  16  17
ENDBRANCH   6  16
ENDBRANCH   1   4
BRANCH   2  20
ATOM     20  C   UNL     1       0.421  -1.321   3.847  0.00  0.00    +0.037 A 
ATOM     21  C   UNL     1      -0.195  -0.486   2.912  0.00  0.00    +0.015 A 
ATOM     22  C   UNL     1      -0.444   0.831   3.227  0.00  0.00    +0.027 A 
ATOM     23  C   UNL     1      -0.075   1.333   4.470  0.00  0.00    +0.047 A 
ATOM     24  C   UNL     1       0.542   0.505   5.402  0.00  0.00    +0.027 A 
ATOM     25  C   UNL     1       0.791  -0.814   5.096  0.00  0.00    +0.015 A 
BRANCH  23  26
ATOM     26  N   UNL     1      -0.325   2.672   4.785  0.00  0.00    -0.318 N 
ATOM     27  C   UNL     1      -1.179   3.117   5.753  0.00  0.00    +0.021 A 
ATOM     28  C   UNL     1      -1.147   4.465   5.756  0.00  0.00    +0.023 A 
ATOM     29  C   UNL     1      -0.248   4.869   4.748  0.00  0.00    +0.023 A 
ATOM     30  C   UNL     1       0.241   3.753   4.170  0.00  0.00    +0.021 A 
ATOM     31  C   UNL     1       1.237   3.707   3.041  0.00  0.00    +0.064 C 
ATOM     32  C   UNL     1      -2.012   2.252   6.663  0.00  0.00    +0.064 C 
ENDBRANCH  23  26
ENDBRANCH   2  20
BRANCH   1  33
ATOM     33  C   UNL     1       1.018  -4.524   1.894  0.00  0.00    +0.114 C 
BRANCH  33  34
ATOM     34  C   UNL     1       2.503  -4.873   2.014  0.00  0.00    +0.019 C 
BRANCH  34  36
ATOM     35  C   UNL     1       4.195  -6.697   1.786  0.00  0.00    +0.004 C 
ATOM     36  C   UNL     1       2.710  -6.348   1.666  0.00  0.00    -0.002 C 
ENDBRANCH  34  36
ENDBRANCH  33  34
ENDBRANCH   1  33
TORSDOF 9
