REMARK  Name = ZINC12873733
REMARK  6 active torsions:
REMARK  status: ('A' for Active; 'I' for Inactive)
REMARK    1  A    between atoms: C_1  and  C_2
REMARK    2  A    between atoms: C_2  and  O_4
REMARK    3  A    between atoms: O_4  and  C_5
REMARK    4  A    between atoms: C_8  and  N_11
REMARK    5  A    between atoms: CA_16  and  C_32
REMARK    6  A    between atoms: C_32  and  O_33
REMARK                            x       y       z     vdW  Elec       q    Type
REMARK                         _______ _______ _______ _____ _____    ______ ____
ROOT
ATOM      1  N   UNL     1       1.656   3.379  -2.826  0.00  0.00    -0.210 N 
ATOM      2  C   UNL     1       2.187   3.457  -1.600  0.00  0.00    +0.228 C 
ATOM      3  O   UNL     1       3.345   3.717  -1.354  0.00  0.00    -0.275 OA
ATOM      4  C   UNL     1       1.117   3.171  -0.570  0.00  0.00    +0.075 C 
ATOM      5  CA  UNL     1       1.414   1.814   0.104  0.00  0.00    -0.031 C 
ATOM      6  C   UNL     1      -0.511   1.451  -1.171  0.00  0.00    +0.050 C 
ATOM      7  C   UNL     1      -0.151   2.918  -1.432  0.00  0.00    +0.088 C 
ATOM      8  C   UNL     1       0.352   3.080  -2.848  0.00  0.00    +0.229 C 
ATOM      9  O   UNL     1      -0.322   2.958  -3.849  0.00  0.00    -0.275 OA
ATOM     10  C   UNL     1      -0.022   0.555  -2.274  0.00  0.00    -0.028 A 
ATOM     11  C   UNL     1       1.224   0.288  -2.797  0.00  0.00    +0.004 A 
ATOM     12  C   UNL     1       1.359  -0.612  -3.839  0.00  0.00    +0.000 A 
ATOM     13  C   UNL     1       0.240  -1.242  -4.355  0.00  0.00    +0.002 A 
ATOM     14  C   UNL     1      -1.009  -0.976  -3.835  0.00  0.00    +0.023 A 
ATOM     15  C   UNL     1      -1.154  -0.072  -2.785  0.00  0.00    +0.036 A 
ATOM     16  N   UNL     1      -2.294   0.355  -2.100  0.00  0.00    -0.286 N 
ATOM     17  C   UNL     1      -2.002   1.250  -1.136  0.00  0.00    +0.211 C 
ATOM     18  O   UNL     1      -2.788   1.789  -0.387  0.00  0.00    -0.277 OA
ATOM     19  H   UNL     1      -3.192   0.044  -2.295  0.00  0.00    +0.155 HD
ATOM     20  N   UNL     1       0.121   1.125   0.096  0.00  0.00    +0.396 N 
ATOM     21  H1  UNL     1      -0.460   1.453   0.876  0.00  0.00    -0.083 HD
ATOM     22  H2  UNL     1       0.259   0.111   0.174  0.00  0.00    -0.083 HD
ENDROOT
BRANCH   1  26
ATOM     23  C   UNL     1       3.883   4.019  -6.294  0.00  0.00    +0.132 A 
ATOM     24  C   UNL     1       2.809   4.845  -5.998  0.00  0.00    +0.048 A 
ATOM     25  C   UNL     1       2.072   4.634  -4.850  0.00  0.00    +0.027 A 
ATOM     26  C   UNL     1       2.405   3.594  -3.992  0.00  0.00    +0.044 A 
ATOM     27  C   UNL     1       3.483   2.771  -4.287  0.00  0.00    +0.027 A 
ATOM     28  C   UNL     1       4.217   2.979  -5.438  0.00  0.00    +0.048 A 
BRANCH  23  29
ATOM     29  O   UNL     1       4.609   4.227  -7.425  0.00  0.00    -0.426 OA
BRANCH  29  31
ATOM     30  C   UNL     1       6.225   5.623  -8.665  0.00  0.00    +0.136 C 
ATOM     31  C   UNL     1       5.482   5.247  -7.409  0.00  0.00    +0.309 C 
ATOM     32  O   UNL     1       5.673   5.864  -6.388  0.00  0.00    -0.251 OA
ENDBRANCH  29  31
ENDBRANCH  23  29
ENDBRANCH   1  26
BRANCH   5  33
ATOM     33  C   UNL     1       1.923   2.028   1.531  0.00  0.00    +0.141 C 
BRANCH  33  34
ATOM     34  O   UNL     1       2.232   0.764   2.121  0.00  0.00    -0.397 OA
ATOM     35  H   UNL     1       2.562   0.824   3.028  0.00  0.00    +0.209 HD
ENDBRANCH  33  34
ENDBRANCH   5  33
TORSDOF 5
