REMARK  Name = ZINC35484937
REMARK  7 active torsions:
REMARK  status: ('A' for Active; 'I' for Inactive)
REMARK    1  A    between atoms: C_4  and  C_7
REMARK    2  A    between atoms: C_8  and  C_18
REMARK    3  A    between atoms: N_10  and  C_12
REMARK    4  A    between atoms: C_19  and  C_20
REMARK    5  A    between atoms: C_19  and  C_22
REMARK    6  A    between atoms: N_24  and  C_25
REMARK    7  A    between atoms: C_26  and  C_34
REMARK                            x       y       z     vdW  Elec       q    Type
REMARK                         _______ _______ _______ _____ _____    ______ ____
ROOT
ATOM      1  C   UNL     1       3.080  -2.771   1.427  0.00  0.00    +0.035 C 
ATOM      2  C   UNL     1       3.481  -4.004   1.901  0.00  0.00    +0.114 C 
ENDROOT
BRANCH   1   4
ATOM      3  C   UNL     1       3.788  -0.686   0.005  0.00  0.00    +0.100 A 
ATOM      4  C   UNL     1       4.062  -1.856   0.851  0.00  0.00    +0.022 A 
ATOM      5  C   UNL     1       5.440  -1.917   0.994  0.00  0.00    +0.123 A 
ATOM      6  N   UNL     1       5.969  -0.890   0.307  0.00  0.00    -0.239 N 
ATOM      7  N   UNL     1       4.949  -0.150  -0.297  0.00  0.00    -0.166 NA
BRANCH   3  11
ATOM      8  C   UNL     1      -0.034   0.691  -1.245  0.00  0.00    +0.000 A 
ATOM      9  C   UNL     1       0.972   1.601  -0.977  0.00  0.00    +0.001 A 
ATOM     10  C   UNL     1       2.215   1.160  -0.570  0.00  0.00    +0.010 A 
ATOM     11  C   UNL     1       2.455  -0.206  -0.430  0.00  0.00    +0.003 A 
ATOM     12  C   UNL     1       1.437  -1.119  -0.702  0.00  0.00    +0.010 A 
ATOM     13  C   UNL     1       0.198  -0.666  -1.108  0.00  0.00    +0.001 A 
ENDBRANCH   3  11
BRANCH   6  14
ATOM     14  C   UNL     1       7.337  -0.607   0.206  0.00  0.00    +0.065 A 
ATOM     15  C   UNL     1       8.265  -1.422   0.841  0.00  0.00    +0.028 A 
ATOM     16  C   UNL     1       9.613  -1.141   0.740  0.00  0.00    +0.002 A 
ATOM     17  C   UNL     1      10.040  -0.049   0.006  0.00  0.00    +0.000 A 
ATOM     18  C   UNL     1       9.118   0.765  -0.627  0.00  0.00    +0.002 A 
ATOM     19  C   UNL     1       7.769   0.485  -0.535  0.00  0.00    +0.028 A 
ENDBRANCH   6  14
ENDBRANCH   1   4
BRANCH   2  20
ATOM     20  C   UNL     1       2.525  -4.863   2.614  0.00  0.00    +0.259 C 
ATOM     21  O   UNL     1       1.381  -4.487   2.787  0.00  0.00    -0.269 OA
ATOM     22  N   UNL     1       2.916  -6.067   3.077  0.00  0.00    -0.275 N 
ATOM     23  H   UNL     1       3.828  -6.366   2.940  0.00  0.00    +0.156 HD
BRANCH  22  24
ATOM     24  C   UNL     1       2.015  -6.876   3.750  0.00  0.00    +0.085 A 
ATOM     25  C   UNL     1       2.239  -8.131   4.295  0.00  0.00    +0.068 A 
ATOM     26  C   UNL     1       1.118  -8.778   4.955  0.00  0.00    -0.023 A 
ATOM     27  C   UNL     1      -0.021  -8.052   4.948  0.00  0.00    -0.004 A 
ATOM     28  S   UNL     1       0.403  -6.560   4.097  0.00  0.00    -0.077 S 
ATOM     29  C   UNL     1      -1.340  -8.442   5.540  0.00  0.00    +0.043 C 
ATOM     30  C   UNL     1      -1.312  -9.950   5.829  0.00  0.00    +0.005 C 
ATOM     31  C   UNL     1      -0.011 -10.290   6.564  0.00  0.00    +0.005 C 
ATOM     32  C   UNL     1       1.177 -10.150   5.610  0.00  0.00    +0.037 C 
BRANCH  25  33
ATOM     33  C   UNL     1       3.552  -8.778   4.210  0.00  0.00    +0.244 C 
ATOM     34  O   UNL     1       4.376  -8.600   5.088  0.00  0.00    -0.270 OA
ATOM     35  N   UNL     1       3.846  -9.570   3.160  0.00  0.00    -0.325 N 
ATOM     36  H   UNL     1       3.189  -9.712   2.461  0.00  0.00    +0.145 HD
ATOM     37  H   UNL     1       4.714  -9.998   3.103  0.00  0.00    +0.145 HD
ENDBRANCH  25  33
ENDBRANCH  22  24
ENDBRANCH   2  20
BRANCH   2  38
ATOM     38  C   UNL     1       4.827  -4.447   1.698  0.00  0.00    +0.104 C 
ATOM     39  N   UNL     1       5.896  -4.797   1.537  0.00  0.00    -0.191 NA
ENDBRANCH   2  38
TORSDOF 7
