REMARK  Name = ZINC23762020
REMARK  12 active torsions:
REMARK  status: ('A' for Active; 'I' for Inactive)
REMARK    1  A    between atoms: C_1  and  N_2
REMARK    2  A    between atoms: N_2  and  C_3
REMARK    3  A    between atoms: N_2  and  S_4
REMARK    4  A    between atoms: S_4  and  C_7
REMARK    5  A    between atoms: C_11  and  N_13
REMARK    6  A    between atoms: C_14  and  C_16
REMARK    7  A    between atoms: C_16  and  O_17
REMARK    8  A    between atoms: O_17  and  C_18
REMARK    9  A    between atoms: C_18  and  C_20
REMARK   10  A    between atoms: C_20  and  N_21
REMARK   11  A    between atoms: C_22  and  C_24
REMARK   12  A    between atoms: C_24  and  C_25
REMARK                            x       y       z     vdW  Elec       q    Type
REMARK                         _______ _______ _______ _____ _____    ______ ____
ROOT
ATOM      1  O   UNL     1      -9.244   1.413   3.753  0.00  0.00    -0.454 OA
ENDROOT
BRANCH   1   2
ATOM      2  C   UNL     1      -8.420   1.096   2.741  0.00  0.00    +0.325 C 
ATOM      3  O   UNL     1      -8.813   0.395   1.839  0.00  0.00    -0.249 OA
BRANCH   2   4
ATOM      4  C   UNL     1      -7.006   1.616   2.732  0.00  0.00    +0.224 C 
BRANCH   4   5
ATOM      5  N   UNL     1      -6.317   1.134   1.532  0.00  0.00    -0.305 N 
ATOM      6  C   UNL     1      -5.032   1.474   1.310  0.00  0.00    +0.214 C 
ATOM      7  O   UNL     1      -4.446   2.180   2.103  0.00  0.00    -0.276 OA
ATOM      8  H   UNL     1      -6.848   0.493   0.812  0.00  0.00    +0.149 HD
BRANCH   6   9
ATOM      9  C   UNL     1      -4.323   0.978   0.076  0.00  0.00    +0.102 C 
BRANCH   9  10
ATOM     10  C   UNL     1      -2.887   1.506   0.066  0.00  0.00    -0.020 C 
ATOM     11  C   UNL     1      -2.167   1.002  -1.187  0.00  0.00    +0.011 C 
ATOM     12  C   UNL     1      -0.731   1.530  -1.197  0.00  0.00    -0.010 C 
ATOM     13  C   UNL     1       0.004   1.031   0.049  0.00  0.00    +0.007 C 
ATOM     14  C   UNL     1      -0.716   1.534   1.302  0.00  0.00    -0.010 C 
ATOM     15  C   UNL     1      -2.152   1.007   1.312  0.00  0.00    +0.011 C 
ATOM     16  C   UNL     1      -0.734   3.064   1.299  0.00  0.00    +0.007 C 
ATOM     17  C   UNL     1      -1.469   3.563   0.053  0.00  0.00    -0.010 C 
ATOM     18  C   UNL     1      -0.750   3.059  -1.199  0.00  0.00    +0.007 C 
ATOM     19  C   UNL     1      -2.905   3.036   0.063  0.00  0.00    +0.011 C 
ENDBRANCH   9  10
ENDBRANCH   6   9
ENDBRANCH   4   5
ENDBRANCH   2   4
ENDBRANCH   1   2
BRANCH   1  20
ATOM     20  C   UNL     1     -10.593   0.877   3.696  0.00  0.00    +0.328 C 
BRANCH  20  22
ATOM     21  N   UNL     1     -12.650   0.957   5.068  0.00  0.00    -0.281 N 
ATOM     22  C   UNL     1     -11.366   1.334   4.906  0.00  0.00    +0.255 C 
ATOM     23  O   UNL     1     -10.833   2.042   5.735  0.00  0.00    -0.272 OA
ATOM     24  H   UNL     1     -13.161   0.392   4.275  0.00  0.00    +0.155 HD
BRANCH  21  29
ATOM     25  C   UNL     1     -13.302   1.840   8.578  0.00  0.00    +0.107 A 
ATOM     26  C   UNL     1     -14.682   1.930   8.574  0.00  0.00    +0.030 A 
ATOM     27  C   UNL     1     -15.390   1.697   7.409  0.00  0.00    +0.024 A 
ATOM     28  C   UNL     1     -14.719   1.374   6.244  0.00  0.00    +0.062 A 
ATOM     29  C   UNL     1     -13.332   1.284   6.245  0.00  0.00    +0.054 A 
ATOM     30  C   UNL     1     -12.626   1.514   7.418  0.00  0.00    +0.053 A 
ATOM     31 CL   UNL     1     -15.608   1.082   4.782  0.00  0.00    -0.082 Cl
BRANCH  25  32
ATOM     32  S   UNL     1     -12.405   2.139  10.065  0.00  0.00    +0.060 S 
ATOM     33  O   UNL     1     -11.095   2.528   9.678  0.00  0.00    -0.153 OA
ATOM     34  O   UNL     1     -13.233   2.956  10.881  0.00  0.00    -0.153 OA
BRANCH  32  36
ATOM     35  C   UNL     1     -11.101  -0.174  10.579  0.00  0.00    +0.131 C 
ATOM     36  N   UNL     1     -12.257   0.686  10.846  0.00  0.00    -0.183 NA
ATOM     37  C   UNL     1     -13.280   0.262  11.805  0.00  0.00    +0.131 C 
ENDBRANCH  32  36
ENDBRANCH  25  32
ENDBRANCH  21  29
ENDBRANCH  20  22
ENDBRANCH   1  20
TORSDOF 10
