REMARK  Name = ZINC13129384
REMARK  12 active torsions:
REMARK  status: ('A' for Active; 'I' for Inactive)
REMARK    1  A    between atoms: C_1  and  C_2
REMARK    2  A    between atoms: C_6  and  C_35
REMARK    3  A    between atoms: C_7  and  O_8
REMARK    4  A    between atoms: O_8  and  C_9
REMARK    5  A    between atoms: C_9  and  C_10
REMARK    6  A    between atoms: N_12  and  C_13
REMARK    7  A    between atoms: C_19  and  N_21
REMARK    8  A    between atoms: C_22  and  C_24
REMARK    9  A    between atoms: C_24  and  O_25
REMARK   10  A    between atoms: O_25  and  C_26
REMARK   11  A    between atoms: C_27  and  C_34
REMARK   12  A    between atoms: C_31  and  C_32
REMARK                            x       y       z     vdW  Elec       q    Type
REMARK                         _______ _______ _______ _____ _____    ______ ____
ROOT
ATOM      1  C   UNL     1      -0.013   1.086   0.008  0.00  0.00    +0.093 C 
ATOM      2  C   UNL     1      -0.753   1.593  -1.232  0.00  0.00    +0.024 C 
ATOM      3  C   UNL     1      -0.037   1.099  -2.490  0.00  0.00    +0.002 C 
ATOM      4  C   UNL     1       1.399   1.629  -2.501  0.00  0.00    +0.002 C 
ATOM      5  C   UNL     1       2.139   1.122  -1.262  0.00  0.00    +0.024 C 
ATOM      6  C   UNL     1       1.423   1.615  -0.003  0.00  0.00    +0.093 C 
ENDROOT
BRANCH   1   9
ATOM      7  C   UNL     1      -1.741   0.865   1.711  0.00  0.00    +0.251 C 
ATOM      8  O   UNL     1      -2.112  -0.151   1.161  0.00  0.00    -0.272 OA
ATOM      9  N   UNL     1      -0.698   1.558   1.213  0.00  0.00    -0.308 N 
ATOM     10  H   UNL     1      -0.402   2.370   1.653  0.00  0.00    +0.149 HD
BRANCH   7  11
ATOM     11  C   UNL     1      -2.447   1.351   2.951  0.00  0.00    +0.324 C 
BRANCH  11  12
ATOM     12  O   UNL     1      -3.509   0.453   3.277  0.00  0.00    -0.482 OA
BRANCH  12  19
ATOM     13  C   UNL     1      -2.655  -0.616   5.749  0.00  0.00    +0.047 C 
ATOM     14  C   UNL     1      -3.881   0.251   5.619  0.00  0.00    -0.007 A 
ATOM     15  C   UNL     1      -4.633   0.557   6.736  0.00  0.00    +0.027 A 
ATOM     16  C   UNL     1      -5.761   1.349   6.617  0.00  0.00    +0.042 A 
ATOM     17  C   UNL     1      -6.135   1.841   5.378  0.00  0.00    +0.027 A 
ATOM     18  C   UNL     1      -5.382   1.542   4.259  0.00  0.00    -0.007 A 
ATOM     19  C   UNL     1      -4.251   0.748   4.377  0.00  0.00    +0.127 A 
ATOM     20  C   UNL     1      -5.790   2.079   2.911  0.00  0.00    +0.047 C 
ATOM     21 CL   UNL     1      -6.708   1.726   8.021  0.00  0.00    -0.084 Cl
ENDBRANCH  12  19
ENDBRANCH  11  12
ENDBRANCH   7  11
ENDBRANCH   1   9
BRANCH   6  22
ATOM     22  N   UNL     1       2.131   1.130   1.184  0.00  0.00    -0.308 N 
ATOM     23  C   UNL     1       3.183   1.819   1.669  0.00  0.00    +0.251 C 
ATOM     24  O   UNL     1       3.544   2.840   1.123  0.00  0.00    -0.272 OA
ATOM     25  H   UNL     1       1.843   0.313   1.621  0.00  0.00    +0.149 HD
BRANCH  23  26
ATOM     26  C   UNL     1       3.912   1.319   2.890  0.00  0.00    +0.324 C 
BRANCH  26  27
ATOM     27  O   UNL     1       4.981   2.214   3.206  0.00  0.00    -0.482 OA
BRANCH  27  28
ATOM     28  C   UNL     1       5.744   1.907   4.288  0.00  0.00    +0.127 A 
ATOM     29  C   UNL     1       5.397   2.390   5.542  0.00  0.00    -0.007 A 
ATOM     30  C   UNL     1       6.171   2.073   6.641  0.00  0.00    +0.027 A 
ATOM     31  C   UNL     1       7.296   1.282   6.492  0.00  0.00    +0.042 A 
ATOM     32  C   UNL     1       7.646   0.803   5.241  0.00  0.00    +0.027 A 
ATOM     33  C   UNL     1       6.872   1.114   4.140  0.00  0.00    -0.007 A 
ATOM     34  C   UNL     1       7.254   0.592   2.779  0.00  0.00    +0.047 C 
ATOM     35 CL   UNL     1       8.270   0.889   7.874  0.00  0.00    -0.084 Cl
ATOM     36  C   UNL     1       4.175   3.256   5.704  0.00  0.00    +0.047 C 
ENDBRANCH  27  28
ENDBRANCH  26  27
ENDBRANCH  23  26
ENDBRANCH   6  22
TORSDOF 8
