REMARK  Name = ZINC37620936
REMARK  8 active torsions:
REMARK  status: ('A' for Active; 'I' for Inactive)
REMARK    1  A    between atoms: C_1  and  C_2
REMARK    2  A    between atoms: C_2  and  C_3
REMARK    3  A    between atoms: C_3  and  C_4
REMARK    4  A    between atoms: C_4  and  C_5
REMARK    5  A    between atoms: C_4  and  C_6
REMARK    6  A    between atoms: C_4  and  N_22
REMARK    7  A    between atoms: C_9  and  C_12
REMARK    8  A    between atoms: C_16  and  N_18
REMARK                            x       y       z     vdW  Elec       q    Type
REMARK                         _______ _______ _______ _____ _____    ______ ____
ROOT
ATOM      1  C   UNL     1      -2.822  -2.584  -0.109  0.00  0.00    +0.096 A 
ATOM      2  N   UNL     1      -3.291  -3.370  -1.103  0.00  0.00    -0.343 N 
ATOM      3  H   UNL     1      -2.788  -3.697  -1.865  0.00  0.00    +0.167 HD
ATOM      4  C   UNL     1      -4.617  -3.619  -0.831  0.00  0.00    +0.066 A 
ATOM      5  C   UNL     1      -4.902  -2.967   0.330  0.00  0.00    +0.139 A 
ATOM      6  N   UNL     1      -3.786  -2.354   0.741  0.00  0.00    -0.242 NA
ENDROOT
BRANCH   4   7
ATOM      7  C   UNL     1      -5.549  -4.433  -1.640  0.00  0.00    +0.002 A 
ATOM      8  C   UNL     1      -5.106  -5.048  -2.812  0.00  0.00    +0.011 A 
ATOM      9  C   UNL     1      -5.979  -5.806  -3.563  0.00  0.00    +0.023 A 
ATOM     10  C   UNL     1      -7.294  -5.958  -3.157  0.00  0.00    +0.071 A 
ATOM     11  C   UNL     1      -7.740  -5.350  -1.996  0.00  0.00    +0.145 A 
ATOM     12  C   UNL     1      -6.874  -4.595  -1.233  0.00  0.00    +0.044 A 
ATOM     13 CL   UNL     1      -8.388  -6.913  -4.108  0.00  0.00    -0.081 Cl
BRANCH  11  14
ATOM     14  N   UNL     1      -9.147  -5.517  -1.568  0.00  0.00    +0.058 N 
ATOM     15  O   UNL     1      -9.538  -4.987  -0.554  0.00  0.00    -0.126 OA
ATOM     16  O   UNL     1      -9.906  -6.183  -2.233  0.00  0.00    -0.126 OA
ENDBRANCH  11  14
ENDBRANCH   4   7
BRANCH   1  17
ATOM     17  C   UNL     1      -1.413  -2.063   0.004  0.00  0.00    -0.014 C 
ATOM     18  C   UNL     1      -0.784  -2.572   1.303  0.00  0.00    -0.003 C 
BRANCH  17  19
ATOM     19  N   UNL     1      -0.623  -2.536  -1.140  0.00  0.00    +0.386 N 
ATOM     20  H   UNL     1       0.321  -2.187  -1.064  0.00  0.00    -0.089 HD
ATOM     21  H   UNL     1      -0.609  -3.545  -1.146  0.00  0.00    -0.089 HD
ATOM     22  H   UNL     1      -1.037  -2.201  -1.997  0.00  0.00    -0.089 HD
ENDBRANCH  17  19
BRANCH  17  23
ATOM     23  C   UNL     1      -1.433  -0.534   0.013  0.00  0.00    -0.006 C 
BRANCH  23  25
ATOM     24  C   UNL     1      -0.019   1.526   0.010  0.00  0.00    +0.004 C 
ATOM     25  C   UNL     1       0.002  -0.004   0.002  0.00  0.00    -0.004 C 
ENDBRANCH  23  25
ENDBRANCH  17  23
ENDBRANCH   1  17
TORSDOF 6
