REMARK  Name = ZINC34926987
REMARK  1 active torsions:
REMARK  status: ('A' for Active; 'I' for Inactive)
REMARK    1  A    between atoms: C_6  and  C_7
REMARK                            x       y       z     vdW  Elec       q    Type
REMARK                         _______ _______ _______ _____ _____    ______ ____
ROOT
ATOM      1  C   UNL     1      -1.293  -0.775   0.010  0.00  0.00    +0.191 C 
ATOM      2  N   UNL     1      -2.332  -0.001  -0.675  0.00  0.00    -0.304 N 
ATOM      3  C   UNL     1      -2.601  -0.190  -1.976  0.00  0.00    +0.138 C 
ATOM      4  N   UNL     1      -1.998  -1.152  -2.700  0.00  0.00    -0.271 N 
ATOM      5  C   UNL     1      -1.064  -1.976  -2.090  0.00  0.00    +0.158 C 
ATOM      6  N   UNL     1      -1.113  -2.053  -0.701  0.00  0.00    -0.297 N 
ATOM      7  N   UNL     1      -0.186  -2.646  -2.781  0.00  0.00    -0.375 N 
ATOM      8  S   UNL     1      -3.749   0.825  -2.741  0.00  0.00    -0.018 S 
ATOM      9  H   UNL     1      -2.836   0.662  -0.177  0.00  0.00    +0.150 HD
ATOM     10  H   UNL     1      -0.174  -2.576  -3.748  0.00  0.00    +0.158 HD
ATOM     11  H   UNL     1      -1.036  -2.896  -0.228  0.00  0.00    +0.151 HD
ATOM     12  H   UNL     1      -2.215  -1.267  -3.638  0.00  0.00    +0.156 HD
ATOM     13  H   UNL     1       0.456  -3.215  -2.328  0.00  0.00    +0.158 HD
ENDROOT
BRANCH   1  19
ATOM     14  C   UNL     1      -0.017   1.378   0.010  0.00  0.00    +0.008 A 
ATOM     15  C   UNL     1       1.171   2.086   0.002  0.00  0.00    +0.015 A 
ATOM     16  C   UNL     1       2.378   1.411  -0.013  0.00  0.00    +0.018 A 
ATOM     17  C   UNL     1       2.396   0.027  -0.021  0.00  0.00    +0.015 A 
ATOM     18  C   UNL     1       1.208  -0.679  -0.013  0.00  0.00    +0.008 A 
ATOM     19  C   UNL     1       0.002  -0.004   0.002  0.00  0.00    -0.009 A 
ATOM     20 BR   UNL     1       4.003   2.378  -0.024  0.00  0.00    -0.050 Br
ENDBRANCH   1  19
TORSDOF 1
