REMARK  Name = ZINC37316595
REMARK  7 active torsions:
REMARK  status: ('A' for Active; 'I' for Inactive)
REMARK    1  A    between atoms: C_1  and  C_2
REMARK    2  A    between atoms: C_2  and  C_4
REMARK    3  A    between atoms: C_2  and  N_10
REMARK    4  A    between atoms: N_10  and  C_11
REMARK    5  A    between atoms: C_15  and  N_17
REMARK    6  A    between atoms: N_17  and  S_18
REMARK    7  A    between atoms: S_18  and  N_21
REMARK                            x       y       z     vdW  Elec       q    Type
REMARK                         _______ _______ _______ _____ _____    ______ ____
ROOT
ATOM      1  C   UNL     1       0.027  -0.639   2.398  0.00  0.00    +0.029 A 
ATOM      2  C   UNL     1      -1.326  -0.333   2.474  0.00  0.00    +0.023 A 
ATOM      3  C   UNL     1      -2.003  -0.479   3.670  0.00  0.00    +0.004 A 
ATOM      4  C   UNL     1      -1.337  -0.931   4.793  0.00  0.00    +0.024 A 
ATOM      5  C   UNL     1       0.016  -1.239   4.723  0.00  0.00    +0.051 A 
ATOM      6  C   UNL     1       0.698  -1.098   3.522  0.00  0.00    +0.047 A 
ENDROOT
BRANCH   1   7
ATOM      7  N   UNL     1       0.711  -0.489   1.189  0.00  0.00    -0.337 N 
ATOM      8  H   UNL     1       1.654  -0.707   1.135  0.00  0.00    +0.147 HD
BRANCH   7  10
ATOM      9  C   UNL     1      -0.019   1.526   0.010  0.00  0.00    +0.033 C 
ATOM     10  C   UNL     1       0.002  -0.004   0.002  0.00  0.00    +0.105 C 
BRANCH  10  11
ATOM     11  C   UNL     1       0.707  -0.490  -1.238  0.00  0.00    +0.024 A 
ATOM     12  C   UNL     1       0.180  -1.028  -2.365  0.00  0.00    +0.030 A 
ATOM     13  C   UNL     1       1.029  -1.406  -3.388  0.00  0.00    +0.023 A 
ATOM     14  C   UNL     1       2.364  -1.229  -3.234  0.00  0.00    +0.046 A 
ATOM     15  S   UNL     1       2.454  -0.500  -1.607  0.00  0.00    -0.099 S 
ATOM     16 BR   UNL     1      -1.690  -1.257  -2.535  0.00  0.00    -0.049 Br
ENDBRANCH  10  11
ENDBRANCH   7  10
ENDBRANCH   1   7
BRANCH   5  17
ATOM     17  N   UNL     1       0.689  -1.695   5.859  0.00  0.00    -0.207 N 
ATOM     18  H   UNL     1       1.560  -1.333   6.085  0.00  0.00    +0.175 HD
BRANCH  17  19
ATOM     19  S   UNL     1      -0.001  -2.853   6.821  0.00  0.00    +0.107 S 
ATOM     20  O   UNL     1       0.926  -3.120   7.864  0.00  0.00    -0.138 OA
ATOM     21  O   UNL     1      -1.333  -2.429   7.076  0.00  0.00    -0.138 OA
BRANCH  19  22
ATOM     22  N   UNL     1      -0.110  -4.238   5.919  0.00  0.00    -0.191 NA
ATOM     23  H   UNL     1       0.208  -4.246   5.002  0.00  0.00    +0.146 HD
ATOM     24  H   UNL     1      -0.491  -5.041   6.307  0.00  0.00    +0.146 HD
ENDBRANCH  19  22
ENDBRANCH  17  19
ENDBRANCH   5  17
TORSDOF 6
