REMARK  Name = ZINC38964744
REMARK  14 active torsions:
REMARK  status: ('A' for Active; 'I' for Inactive)
REMARK    1  A    between atoms: C_1  and  O_2
REMARK    2  A    between atoms: O_2  and  C_3
REMARK    3  A    between atoms: C_10  and  C_15
REMARK    4  A    between atoms: C_15  and  N_16
REMARK    5  A    between atoms: N_16  and  C_17
REMARK    6  A    between atoms: C_22  and  O_23
REMARK    7  A    between atoms: O_23  and  C_24
REMARK    8  A    between atoms: C_25  and  C_27
REMARK    9  A    between atoms: C_29  and  O_37
REMARK   10  A    between atoms: C_30  and  O_35
REMARK   11  A    between atoms: C_31  and  O_33
REMARK   12  A    between atoms: O_33  and  C_34
REMARK   13  A    between atoms: O_35  and  C_36
REMARK   14  A    between atoms: O_37  and  C_38
REMARK                            x       y       z     vdW  Elec       q    Type
REMARK                         _______ _______ _______ _____ _____    ______ ____
ROOT
ATOM      1  N   UNL     1       3.559  -6.202  -4.193  0.00  0.00    -0.263 N 
ATOM      2  C   UNL     1       3.037  -7.423  -4.422  0.00  0.00    +0.251 C 
ATOM      3  O   UNL     1       2.218  -7.888  -3.653  0.00  0.00    -0.270 OA
ENDROOT
BRANCH   1   4
ATOM      4  C   UNL     1       4.557  -5.698  -5.036  0.00  0.00    +0.078 A 
ATOM      5  C   UNL     1       4.278  -5.447  -6.372  0.00  0.00    +0.027 A 
ATOM      6  C   UNL     1       5.264  -4.949  -7.202  0.00  0.00    +0.002 A 
ATOM      7  C   UNL     1       6.531  -4.700  -6.705  0.00  0.00    +0.004 A 
ATOM      8  C   UNL     1       6.816  -4.948  -5.375  0.00  0.00    +0.047 A 
ATOM      9  C   UNL     1       5.832  -5.442  -4.535  0.00  0.00    +0.141 A 
BRANCH   9  10
ATOM     10  O   UNL     1       6.110  -5.681  -3.226  0.00  0.00    -0.493 OA
ATOM     11  C   UNL     1       7.403  -5.294  -2.756  0.00  0.00    +0.277 C 
ENDBRANCH   9  10
ENDBRANCH   1   4
BRANCH   2  12
ATOM     12  C   UNL     1       3.459  -8.196  -5.607  0.00  0.00    +0.044 A 
ATOM     13  C   UNL     1       4.798  -8.190  -6.006  0.00  0.00    +0.062 A 
ATOM     14  C   UNL     1       5.190  -8.915  -7.115  0.00  0.00    +0.166 A 
ATOM     15  C   UNL     1       4.253  -9.650  -7.835  0.00  0.00    +0.204 A 
ATOM     16  C   UNL     1       2.917  -9.658  -7.440  0.00  0.00    +0.166 A 
ATOM     17  C   UNL     1       2.521  -8.939  -6.328  0.00  0.00    +0.062 A 
BRANCH  16  18
ATOM     18  O   UNL     1       2.004 -10.376  -8.146  0.00  0.00    -0.491 OA
ATOM     19  C   UNL     1       0.652 -10.338  -7.685  0.00  0.00    +0.277 C 
ENDBRANCH  16  18
BRANCH  15  20
ATOM     20  O   UNL     1       4.641 -10.362  -8.926  0.00  0.00    -0.488 OA
ATOM     21  C   UNL     1       5.051 -11.713  -8.707  0.00  0.00    +0.277 C 
ENDBRANCH  15  20
BRANCH  14  22
ATOM     22  O   UNL     1       6.494  -8.909  -7.504  0.00  0.00    -0.491 OA
ATOM     23  C   UNL     1       7.422  -8.237  -6.651  0.00  0.00    +0.277 C 
ENDBRANCH  14  22
ENDBRANCH   2  12
BRANCH   1  24
ATOM     24  C   UNL     1       3.083  -5.402  -3.062  0.00  0.00    +0.131 C 
BRANCH  24  32
ATOM     25  C   UNL     1       0.020  -0.971  -0.811  0.00  0.00    +0.121 A 
ATOM     26  C   UNL     1       0.387  -0.123  -1.862  0.00  0.00    +0.047 A 
ATOM     27  C   UNL     1       0.980  -0.577  -2.995  0.00  0.00    +0.027 A 
ATOM     28  C   UNL     1       1.255  -1.948  -3.160  0.00  0.00    +0.041 A 
ATOM     29  N   UNL     1       1.838  -2.380  -4.278  0.00  0.00    -0.284 N 
ATOM     30  C   UNL     1       2.125  -3.652  -4.498  0.00  0.00    +0.226 C 
ATOM     31  O   UNL     1       2.659  -3.986  -5.539  0.00  0.00    -0.275 OA
ATOM     32  C   UNL     1       1.787  -4.689  -3.451  0.00  0.00    +0.116 C 
ATOM     33  C   UNL     1       1.123  -4.203  -2.178  0.00  0.00    -0.003 C 
ATOM     34  C   UNL     1       0.880  -2.866  -2.070  0.00  0.00    -0.004 A 
ATOM     35  C   UNL     1       0.249  -2.313  -0.872  0.00  0.00    +0.055 A 
ATOM     36  H   UNL     1       2.063  -1.730  -4.963  0.00  0.00    +0.155 HD
BRANCH  25  38
ATOM     37  C   UNL     1      -0.787   0.967   0.305  0.00  0.00    +0.277 C 
ATOM     38  O   UNL     1      -0.571  -0.446   0.295  0.00  0.00    -0.495 OA
ENDBRANCH  25  38
ENDBRANCH  24  32
ENDBRANCH   1  24
TORSDOF 9
