REMARK  Name = ZINC54580965
REMARK  8 active torsions:
REMARK  status: ('A' for Active; 'I' for Inactive)
REMARK    1  A    between atoms: C_1  and  C_2
REMARK    2  A    between atoms: C_8  and  N_10
REMARK    3  A    between atoms: N_13  and  C_14
REMARK    4  A    between atoms: C_14  and  C_16
REMARK    5  A    between atoms: C_14  and  C_17
REMARK    6  A    between atoms: C_20  and  S_23
REMARK    7  A    between atoms: S_23  and  N_26
REMARK    8  A    between atoms: N_26  and  C_27
REMARK                            x       y       z     vdW  Elec       q    Type
REMARK                         _______ _______ _______ _____ _____    ______ ____
ROOT
ATOM      1  C   UNL     1       0.848   0.671   5.967  0.00  0.00    +0.102 C 
ATOM      2  C   UNL     1       1.536   2.037   6.000  0.00  0.00    +0.033 C 
ENDROOT
BRANCH   1   6
ATOM      3  N   UNL     1       0.056  -0.038   2.447  0.00  0.00    -0.296 N 
ATOM      4  C   UNL     1       0.738   0.093   3.602  0.00  0.00    +0.300 C 
ATOM      5  O   UNL     1       1.922  -0.180   3.644  0.00  0.00    -0.253 OA
ATOM      6  N   UNL     1       0.107   0.528   4.711  0.00  0.00    -0.293 N 
ATOM      7  H   UNL     1      -0.888   0.180   2.413  0.00  0.00    +0.151 HD
ATOM      8  H   UNL     1      -0.838   0.746   4.678  0.00  0.00    +0.151 HD
BRANCH   3  15
ATOM      9  C   UNL     1      -0.019   1.526   0.010  0.00  0.00    +0.009 C 
ATOM     10  C   UNL     1       0.002  -0.004   0.002  0.00  0.00    +0.006 C 
ATOM     11  C   UNL     1      -1.433  -0.534   0.013  0.00  0.00    +0.005 C 
ATOM     12  C   UNL     1      -1.413  -2.063   0.004  0.00  0.00    +0.000 C 
ATOM     13  C   UNL     1      -0.673  -2.570   1.244  0.00  0.00    +0.002 C 
ATOM     14  C   UNL     1       0.763  -2.041   1.233  0.00  0.00    +0.022 C 
ATOM     15  C   UNL     1       0.742  -0.511   1.242  0.00  0.00    +0.077 C 
ENDBRANCH   3  15
ENDBRANCH   1   6
BRANCH   1  16
ATOM     16  C   UNL     1      -0.106   0.560   7.128  0.00  0.00    -0.027 A 
ATOM     17  C   UNL     1      -1.355   1.147   7.055  0.00  0.00    +0.007 A 
ATOM     18  C   UNL     1      -2.230   1.045   8.120  0.00  0.00    +0.029 A 
ATOM     19  C   UNL     1      -1.856   0.357   9.259  0.00  0.00    +0.105 A 
ATOM     20  C   UNL     1      -0.607  -0.231   9.332  0.00  0.00    +0.029 A 
ATOM     21  C   UNL     1       0.267  -0.133   8.265  0.00  0.00    +0.007 A 
BRANCH  19  22
ATOM     22  S   UNL     1      -2.971   0.228  10.617  0.00  0.00    +0.058 S 
ATOM     23  O   UNL     1      -2.177  -0.001  11.774  0.00  0.00    -0.153 OA
ATOM     24  O   UNL     1      -3.866   1.327  10.513  0.00  0.00    -0.153 OA
BRANCH  22  25
ATOM     25  N   UNL     1      -3.872  -1.141  10.383  0.00  0.00    -0.193 NA
ATOM     26  C   UNL     1      -3.227  -2.456  10.405  0.00  0.00    +0.127 C 
ATOM     27  H   UNL     1      -4.828  -1.072  10.231  0.00  0.00    +0.148 HD
ENDBRANCH  22  25
ENDBRANCH  19  22
ENDBRANCH   1  16
TORSDOF 5
