REMARK  Name = ZINC14323038
REMARK  7 active torsions:
REMARK  status: ('A' for Active; 'I' for Inactive)
REMARK    1  A    between atoms: C_4  and  C_7
REMARK    2  A    between atoms: C_7  and  C_9
REMARK    3  A    between atoms: C_12  and  N_18
REMARK    4  A    between atoms: C_13  and  N_15
REMARK    5  A    between atoms: N_21  and  C_24
REMARK    6  A    between atoms: C_24  and  C_25
REMARK    7  A    between atoms: C_33  and  N_35
REMARK                            x       y       z     vdW  Elec       q    Type
REMARK                         _______ _______ _______ _____ _____    ______ ____
ROOT
ATOM      1  N   UNL     1       3.440  -6.293  -0.365  0.00  0.00    -0.326 N 
ATOM      2  C   UNL     1       3.210  -7.091   0.849  0.00  0.00    +0.120 C 
ATOM      3  C   UNL     1       4.266  -8.200   0.909  0.00  0.00    +0.104 C 
ATOM      4  N   UNL     1       4.244  -8.960  -0.348  0.00  0.00    -0.292 NA
ATOM      5  C   UNL     1       4.609  -8.112  -1.490  0.00  0.00    +0.104 C 
ATOM      6  C   UNL     1       3.562  -6.998  -1.649  0.00  0.00    +0.120 C 
ENDROOT
BRANCH   1  10
ATOM      7  C   UNL     1       3.721  -2.155  -0.173  0.00  0.00    +0.025 A 
ATOM      8  C   UNL     1       4.876  -2.941  -0.091  0.00  0.00    +0.013 A 
ATOM      9  C   UNL     1       4.780  -4.302  -0.154  0.00  0.00    +0.026 A 
ATOM     10  C   UNL     1       3.534  -4.907  -0.300  0.00  0.00    +0.060 A 
ATOM     11  C   UNL     1       2.383  -4.128  -0.382  0.00  0.00    +0.148 A 
ATOM     12  C   UNL     1       2.471  -2.767  -0.314  0.00  0.00    +0.046 A 
BRANCH  11  13
ATOM     13  N   UNL     1       1.061  -4.777  -0.539  0.00  0.00    +0.058 N 
ATOM     14  O   UNL     1       0.052  -4.112  -0.492  0.00  0.00    -0.126 OA
ATOM     15  O   UNL     1       0.990  -5.971  -0.713  0.00  0.00    -0.126 OA
ENDBRANCH  11  13
BRANCH   7  16
ATOM     16  C   UNL     1       3.821  -0.686  -0.104  0.00  0.00    +0.193 C 
ATOM     17  O   UNL     1       2.869  -0.029   0.273  0.00  0.00    -0.287 OA
BRANCH  16  21
ATOM     18  C   UNL     1       7.431   1.252  -1.222  0.00  0.00    +0.000 A 
ATOM     19  C   UNL     1       6.523   1.905  -0.407  0.00  0.00    +0.001 A 
ATOM     20  C   UNL     1       5.348   1.281  -0.041  0.00  0.00    +0.012 A 
ATOM     21  C   UNL     1       5.077  -0.011  -0.493  0.00  0.00    +0.022 A 
ATOM     22  C   UNL     1       5.998  -0.664  -1.315  0.00  0.00    +0.012 A 
ATOM     23  C   UNL     1       7.168  -0.029  -1.674  0.00  0.00    +0.001 A 
ENDBRANCH  16  21
ENDBRANCH   7  16
ENDBRANCH   1  10
BRANCH   4  24
ATOM     24  C   UNL     1       5.119 -10.138  -0.266  0.00  0.00    +0.160 C 
BRANCH  24  25
ATOM     25  C   UNL     1       4.888 -11.020  -1.465  0.00  0.00    +0.146 A 
ATOM     26  N   UNL     1       3.968 -11.952  -1.389  0.00  0.00    -0.231 NA
ATOM     27  C   UNL     1       3.730 -12.759  -2.433  0.00  0.00    +0.076 A 
ATOM     28  C   UNL     1       2.755 -13.765  -2.388  0.00  0.00    +0.028 A 
ATOM     29  C   UNL     1       2.553 -14.557  -3.479  0.00  0.00    +0.002 A 
ATOM     30  C   UNL     1       3.301 -14.383  -4.640  0.00  0.00    +0.001 A 
ATOM     31  C   UNL     1       4.258 -13.414  -4.718  0.00  0.00    +0.013 A 
ATOM     32  C   UNL     1       4.489 -12.584  -3.616  0.00  0.00    +0.040 A 
ATOM     33  C   UNL     1       5.468 -11.560  -3.637  0.00  0.00    +0.127 A 
ATOM     34  N   UNL     1       5.618 -10.815  -2.550  0.00  0.00    -0.216 NA
BRANCH  33  35
ATOM     35  N   UNL     1       6.239 -11.340  -4.758  0.00  0.00    -0.343 N 
ATOM     36  H   UNL     1       6.115 -11.891  -5.548  0.00  0.00    +0.144 HD
ATOM     37  H   UNL     1       6.905 -10.635  -4.758  0.00  0.00    +0.144 HD
ENDBRANCH  33  35
ENDBRANCH  24  25
ENDBRANCH   4  24
TORSDOF 7
