REMARK  Name = ZINC54001503
REMARK  4 active torsions:
REMARK  status: ('A' for Active; 'I' for Inactive)
REMARK    1  A    between atoms: C_8  and  C_10
REMARK    2  A    between atoms: N_12  and  C_13
REMARK    3  A    between atoms: C_13  and  C_14
REMARK    4  A    between atoms: N_16  and  C_17
REMARK                            x       y       z     vdW  Elec       q    Type
REMARK                         _______ _______ _______ _____ _____    ______ ____
ROOT
ATOM      1  C   UNL     1       3.125  -4.013  -0.049  0.00  0.00    +0.253 C 
ATOM      2  O   UNL     1       2.293  -4.901  -0.045  0.00  0.00    -0.270 OA
ATOM      3  N   UNL     1       4.437  -4.318  -0.063  0.00  0.00    -0.302 N 
ATOM      4  H   UNL     1       5.100  -3.609  -0.066  0.00  0.00    +0.150 HD
ENDROOT
BRANCH   1  12
ATOM      5  C   UNL     1      -0.016   1.354   0.009  0.00  0.00    +0.001 A 
ATOM      6  C   UNL     1       1.157   2.098   0.002  0.00  0.00    +0.001 A 
ATOM      7  C   UNL     1       2.374   1.448  -0.013  0.00  0.00    +0.016 A 
ATOM      8  C   UNL     1       2.409   0.070  -0.021  0.00  0.00    +0.021 A 
ATOM      9  C   UNL     1       1.231  -0.713  -0.013  0.00  0.00    +0.008 A 
ATOM     10  C   UNL     1       0.002  -0.004   0.002  0.00  0.00    +0.010 A 
ATOM     11  C   UNL     1       1.433  -2.106  -0.023  0.00  0.00    +0.068 A 
ATOM     12  C   UNL     1       2.697  -2.608  -0.037  0.00  0.00    +0.093 A 
ATOM     13  S   UNL     1       3.709  -1.138  -0.039  0.00  0.00    -0.082 S 
ATOM     14 CL   UNL     1       0.070  -3.183  -0.015  0.00  0.00    -0.082 Cl
ENDBRANCH   1  12
BRANCH   3  15
ATOM     15  C   UNL     1       4.864  -5.719  -0.074  0.00  0.00    +0.200 C 
BRANCH  15  16
ATOM     16  C   UNL     1       6.369  -5.786  -0.089  0.00  0.00    +0.231 C 
ATOM     17  O   UNL     1       7.022  -4.764  -0.090  0.00  0.00    -0.274 OA
ATOM     18  N   UNL     1       6.990  -6.982  -0.101  0.00  0.00    -0.303 N 
ATOM     19  H   UNL     1       6.468  -7.800  -0.100  0.00  0.00    +0.149 HD
BRANCH  18  20
ATOM     20  C   UNL     1       8.454  -7.048  -0.115  0.00  0.00    +0.159 C 
ATOM     21  C   UNL     1       8.915  -8.383   0.474  0.00  0.00    +0.032 C 
ATOM     22  C   UNL     1      10.323  -8.268   1.029  0.00  0.00    +0.004 C 
ATOM     23  C   UNL     1      11.382  -8.033  -0.033  0.00  0.00    +0.019 C 
ATOM     24  C   UNL     1      11.211  -6.657  -0.678  0.00  0.00    +0.104 C 
ATOM     25  N   UNL     1      10.251  -6.773  -1.788  0.00  0.00    -0.314 N 
ATOM     26  C   UNL     1       8.953  -6.949  -1.541  0.00  0.00    +0.233 C 
ATOM     27  O   UNL     1       8.170  -7.035  -2.463  0.00  0.00    -0.274 OA
ATOM     28  H   UNL     1      10.565  -6.718  -2.704  0.00  0.00    +0.149 HD
ENDBRANCH  18  20
ENDBRANCH  15  16
ENDBRANCH   3  15
TORSDOF 4
