REMARK  Name = ZINC37671281
REMARK  5 active torsions:
REMARK  status: ('A' for Active; 'I' for Inactive)
REMARK    1  A    between atoms: C_9  and  N_11
REMARK    2  A    between atoms: N_11  and  C_12
REMARK    3  A    between atoms: C_12  and  C_13
REMARK    4  A    between atoms: C_15  and  N_20
REMARK    5  A    between atoms: C_18  and  O_19
REMARK                            x       y       z     vdW  Elec       q    Type
REMARK                         _______ _______ _______ _____ _____    ______ ____
ROOT
ATOM      1  N   UNL     1       4.916  -2.516  -0.060  0.00  0.00    -0.325 N 
ATOM      2  H   UNL     1       5.725  -1.981  -0.065  0.00  0.00    +0.148 HD
ENDROOT
BRANCH   1  11
ATOM      3  C   UNL     1      -0.016   1.358   0.009  0.00  0.00    +0.001 A 
ATOM      4  C   UNL     1       1.169   2.088   0.002  0.00  0.00    +0.002 A 
ATOM      5  C   UNL     1       2.379   1.463  -0.013  0.00  0.00    +0.028 A 
ATOM      6  C   UNL     1       2.438   0.059  -0.021  0.00  0.00    +0.073 A 
ATOM      7  C   UNL     1       1.231  -0.681  -0.013  0.00  0.00    +0.001 A 
ATOM      8  C   UNL     1       0.002  -0.004   0.002  0.00  0.00    +0.010 A 
ATOM      9  C   UNL     1       1.290  -2.090  -0.021  0.00  0.00    +0.013 A 
ATOM     10  C   UNL     1       2.516  -2.685  -0.037  0.00  0.00    +0.044 A 
ATOM     11  C   UNL     1       3.675  -1.896  -0.044  0.00  0.00    +0.120 A 
ATOM     12  N   UNL     1       3.613  -0.580  -0.036  0.00  0.00    -0.232 NA
ENDBRANCH   1  11
BRANCH   1  13
ATOM     13  C   UNL     1       5.004  -3.978  -0.068  0.00  0.00    +0.142 C 
BRANCH  13  14
ATOM     14  C   UNL     1       6.453  -4.393  -0.085  0.00  0.00    +0.013 A 
ATOM     15  C   UNL     1       7.041  -4.893   1.061  0.00  0.00    +0.031 A 
ATOM     16  C   UNL     1       8.375  -5.276   1.045  0.00  0.00    +0.025 A 
ATOM     17  C   UNL     1       9.117  -5.157  -0.123  0.00  0.00    +0.026 A 
ATOM     18  C   UNL     1       8.528  -4.657  -1.267  0.00  0.00    +0.047 A 
ATOM     19  C   UNL     1       7.193  -4.280  -1.252  0.00  0.00    +0.122 A 
BRANCH  16  20
ATOM     20  N   UNL     1       8.972  -5.782   2.205  0.00  0.00    -0.358 N 
ATOM     21  H   UNL     1       8.453  -5.865   3.021  0.00  0.00    +0.142 HD
ATOM     22  H   UNL     1       9.904  -6.050   2.194  0.00  0.00    +0.142 HD
ENDBRANCH  16  20
BRANCH  19  23
ATOM     23  O   UNL     1       6.612  -3.792  -2.381  0.00  0.00    -0.506 OA
ATOM     24  H   UNL     1       6.682  -2.833  -2.477  0.00  0.00    +0.292 HD
ENDBRANCH  19  23
ENDBRANCH  13  14
ENDBRANCH   1  13
TORSDOF 5
