REMARK  Name = ZINC39687253
REMARK  8 active torsions:
REMARK  status: ('A' for Active; 'I' for Inactive)
REMARK    1  A    between atoms: C_1  and  O_2
REMARK    2  A    between atoms: O_2  and  C_3
REMARK    3  A    between atoms: C_8  and  C_9
REMARK    4  A    between atoms: C_13  and  C_22
REMARK    5  A    between atoms: N_24  and  C_25
REMARK    6  A    between atoms: C_25  and  C_27
REMARK    7  A    between atoms: C_25  and  C_34
REMARK    8  A    between atoms: C_27  and  C_28
REMARK                            x       y       z     vdW  Elec       q    Type
REMARK                         _______ _______ _______ _____ _____    ______ ____
ROOT
ATOM      1  C   UNL     1      -0.208  -1.911  -1.045  0.00  0.00    +0.250 C 
ATOM      2  O   UNL     1       0.814  -1.310  -1.316  0.00  0.00    -0.270 OA
ATOM      3  N   UNL     1      -0.150  -3.209  -0.684  0.00  0.00    -0.296 N 
ATOM      4  C   UNL     1      -1.282  -4.131  -0.427  0.00  0.00    +0.121 C 
ATOM      5  C   UNL     1      -0.833  -5.478  -1.036  0.00  0.00    +0.100 C 
ATOM      6  C   UNL     1       0.704  -5.410  -1.050  0.00  0.00    -0.004 C 
ATOM      7  C   UNL     1       1.059  -4.037  -0.462  0.00  0.00    +0.115 C 
ATOM      8  C   UNL     1       1.224  -5.515  -2.480  0.00  0.00    -0.010 C 
ATOM      9  C   UNL     1       2.755  -5.503  -2.464  0.00  0.00    -0.082 C 
ATOM     10  N   UNL     1       3.247  -6.628  -1.659  0.00  0.00    +0.379 N 
ATOM     11  C   UNL     1       2.819  -6.470  -0.264  0.00  0.00    -0.082 C 
ATOM     12  C   UNL     1       1.290  -6.524  -0.188  0.00  0.00    -0.010 C 
ATOM     13  H   UNL     1       2.876  -7.490  -2.028  0.00  0.00    -0.086 HD
ATOM     14  H   UNL     1       4.255  -6.653  -1.700  0.00  0.00    -0.086 HD
ENDROOT
BRANCH   1  20
ATOM     15  C   UNL     1      -1.738  -0.238  -2.084  0.00  0.00    +0.132 A 
ATOM     16  C   UNL     1      -2.968   0.400  -2.141  0.00  0.00    +0.046 A 
ATOM     17  C   UNL     1      -3.961   0.072  -1.239  0.00  0.00    +0.004 A 
ATOM     18  C   UNL     1      -3.737  -0.895  -0.272  0.00  0.00    +0.001 A 
ATOM     19  C   UNL     1      -2.521  -1.539  -0.201  0.00  0.00    +0.017 A 
ATOM     20  C   UNL     1      -1.510  -1.221  -1.112  0.00  0.00    +0.078 A 
BRANCH  15  22
ATOM     21  C   UNL     1      -1.067   1.094  -3.932  0.00  0.00    +0.277 C 
ATOM     22  O   UNL     1      -0.762   0.083  -2.970  0.00  0.00    -0.494 OA
ENDBRANCH  15  22
ENDBRANCH   1  20
BRANCH   5  23
ATOM     23  C   UNL     1      -1.367  -5.625  -2.437  0.00  0.00    +0.219 C 
ATOM     24  O   UNL     1      -1.486  -4.648  -3.146  0.00  0.00    -0.275 OA
ATOM     25  N   UNL     1      -1.712  -6.841  -2.903  0.00  0.00    -0.303 N 
ATOM     26  H   UNL     1      -1.617  -7.623  -2.336  0.00  0.00    +0.149 HD
BRANCH  25  27
ATOM     27  C   UNL     1      -2.232  -6.984  -4.266  0.00  0.00    +0.163 C 
BRANCH  27  28
ATOM     28  C   UNL     1      -3.716  -6.721  -4.268  0.00  0.00    +0.236 C 
ATOM     29  O   UNL     1      -4.361  -6.882  -3.254  0.00  0.00    -0.274 OA
ATOM     30  N   UNL     1      -4.325  -6.307  -5.396  0.00  0.00    -0.300 N 
ATOM     31  C   UNL     1      -3.580  -6.217  -6.660  0.00  0.00    +0.108 C 
ATOM     32  C   UNL     1      -4.330  -7.014  -7.732  0.00  0.00    +0.019 C 
ATOM     33  C   UNL     1      -5.774  -6.514  -7.817  0.00  0.00    +0.003 C 
ATOM     34  C   UNL     1      -6.472  -6.736  -6.473  0.00  0.00    +0.019 C 
ATOM     35  C   UNL     1      -5.748  -5.942  -5.388  0.00  0.00    +0.108 C 
ENDBRANCH  27  28
BRANCH  27  36
ATOM     36  C   UNL     1      -1.965  -8.404  -4.768  0.00  0.00    +0.067 C 
BRANCH  36  37
ATOM     37  C   UNL     1      -0.479  -8.617  -4.905  0.00  0.00    -0.045 A 
ATOM     38  C   UNL     1       0.154  -8.320  -6.097  0.00  0.00    +0.004 A 
ATOM     39  C   UNL     1       1.517  -8.515  -6.223  0.00  0.00    +0.000 A 
ATOM     40  C   UNL     1       2.246  -9.008  -5.157  0.00  0.00    +0.000 A 
ATOM     41  C   UNL     1       1.613  -9.305  -3.965  0.00  0.00    +0.000 A 
ATOM     42  C   UNL     1       0.251  -9.106  -3.837  0.00  0.00    +0.004 A 
ENDBRANCH  36  37
ENDBRANCH  27  36
ENDBRANCH  25  27
ENDBRANCH   5  23
TORSDOF 7
