REMARK  Name = ZINC12805420
REMARK  8 active torsions:
REMARK  status: ('A' for Active; 'I' for Inactive)
REMARK    1  A    between atoms: C_1  and  C_2
REMARK    2  A    between atoms: C_8  and  N_10
REMARK    3  A    between atoms: C_11  and  C_31
REMARK    4  A    between atoms: C_14  and  S_15
REMARK    5  A    between atoms: S_15  and  C_16
REMARK    6  A    between atoms: C_16  and  C_17
REMARK    7  A    between atoms: N_19  and  C_20
REMARK    8  A    between atoms: C_21  and  C_28
REMARK                            x       y       z     vdW  Elec       q    Type
REMARK                         _______ _______ _______ _____ _____    ______ ____
ROOT
ATOM      1  S   UNL     1      -3.898   4.549   7.380  0.00  0.00    -0.077 S 
ENDROOT
BRANCH   1   6
ATOM      2  N   UNL     1      -4.495   5.085  10.059  0.00  0.00    -0.299 N 
ATOM      3  C   UNL     1      -4.004   4.692  11.283  0.00  0.00    +0.167 A 
ATOM      4  N   UNL     1      -3.006   3.871  11.052  0.00  0.00    -0.128 NA
ATOM      5  N   UNL     1      -2.846   3.721   9.786  0.00  0.00    -0.122 NA
ATOM      6  C   UNL     1      -3.732   4.438   9.130  0.00  0.00    +0.193 A 
BRANCH   2  13
ATOM      7  C   UNL     1      -3.992   7.895   9.570  0.00  0.00    +0.009 C 
ATOM      8  C   UNL     1      -5.136   7.137   8.892  0.00  0.00    +0.009 C 
ATOM      9  C   UNL     1      -6.298   8.096   8.627  0.00  0.00    +0.005 C 
ATOM     10  C   UNL     1      -7.441   7.338   7.950  0.00  0.00    +0.000 C 
ATOM     11  C   UNL     1      -7.913   6.205   8.864  0.00  0.00    +0.002 C 
ATOM     12  C   UNL     1      -6.751   5.246   9.129  0.00  0.00    +0.025 C 
ATOM     13  C   UNL     1      -5.608   6.004   9.806  0.00  0.00    +0.094 C 
ENDBRANCH   2  13
BRANCH   3  14
ATOM     14  C   UNL     1      -4.501   5.120  12.608  0.00  0.00    +0.037 A 
ATOM     15  C   UNL     1      -5.854   5.430  12.794  0.00  0.00    +0.014 A 
ATOM     16  C   UNL     1      -6.268   5.825  14.054  0.00  0.00    +0.020 A 
ATOM     17  C   UNL     1      -5.342   5.899  15.079  0.00  0.00    +0.111 A 
ATOM     18  N   UNL     1      -4.074   5.601  14.874  0.00  0.00    -0.263 NA
ATOM     19  C   UNL     1      -3.632   5.215  13.695  0.00  0.00    +0.122 A 
ENDBRANCH   3  14
ENDBRANCH   1   6
BRANCH   1  20
ATOM     20  C   UNL     1      -2.560   3.443   6.866  0.00  0.00    +0.173 C 
BRANCH  20  21
ATOM     21  C   UNL     1      -2.510   3.381   5.362  0.00  0.00    +0.228 C 
ATOM     22  O   UNL     1      -3.300   4.020   4.701  0.00  0.00    -0.275 OA
ATOM     23  N   UNL     1      -1.585   2.614   4.750  0.00  0.00    -0.279 N 
ATOM     24  H   UNL     1      -0.953   2.102   5.278  0.00  0.00    +0.155 HD
BRANCH  23  25
ATOM     25  C   UNL     1      -1.539   2.556   3.365  0.00  0.00    +0.084 A 
ATOM     26  C   UNL     1      -0.673   1.833   2.562  0.00  0.00    +0.068 A 
ATOM     27  C   UNL     1      -0.837   1.946   1.115  0.00  0.00    -0.023 A 
ATOM     28  C   UNL     1      -1.833   2.760   0.714  0.00  0.00    -0.004 A 
ATOM     29  S   UNL     1      -2.551   3.370   2.220  0.00  0.00    -0.077 S 
ATOM     30  C   UNL     1      -1.938   2.828  -0.785  0.00  0.00    +0.043 C 
ATOM     31  C   UNL     1      -0.588   2.277  -1.295  0.00  0.00    +0.010 C 
ATOM     32  C   UNL     1      -0.159   1.367  -0.127  0.00  0.00    +0.037 C 
BRANCH  26  33
ATOM     33  C   UNL     1       0.371   0.984   3.144  0.00  0.00    +0.244 C 
ATOM     34  O   UNL     1       0.137  -0.183   3.397  0.00  0.00    -0.270 OA
ATOM     35  N   UNL     1       1.592   1.497   3.398  0.00  0.00    -0.325 N 
ATOM     36  H   UNL     1       1.779   2.427   3.196  0.00  0.00    +0.145 HD
ATOM     37  H   UNL     1       2.283   0.935   3.782  0.00  0.00    +0.145 HD
ENDBRANCH  26  33
ENDBRANCH  23  25
ENDBRANCH  20  21
ENDBRANCH   1  20
TORSDOF 7
