REMARK  Name = ZINC01464499
REMARK  8 active torsions:
REMARK  status: ('A' for Active; 'I' for Inactive)
REMARK    1  A    between atoms: C_1  and  O_2
REMARK    2  A    between atoms: O_2  and  C_3
REMARK    3  A    between atoms: C_6  and  C_9
REMARK    4  A    between atoms: C_9  and  C_11
REMARK    5  A    between atoms: C_13  and  C_25
REMARK    6  A    between atoms: C_19  and  C_20
REMARK    7  A    between atoms: C_19  and  O_24
REMARK    8  A    between atoms: C_28  and  O_31
REMARK                            x       y       z     vdW  Elec       q    Type
REMARK                         _______ _______ _______ _____ _____    ______ ____
ROOT
ATOM      1  C   UNL     1      -4.843  -4.358  -0.006  0.00  0.00    +0.144 C 
ATOM      2  C   UNL     1      -6.182  -4.914   0.490  0.00  0.00    +0.120 C 
ATOM      3  N   UNL     1      -6.317  -6.304   0.051  0.00  0.00    -0.292 N 
ATOM      4  C   UNL     1      -5.733  -6.739  -1.075  0.00  0.00    +0.302 C 
ATOM      5  O   UNL     1      -5.887  -7.901  -1.401  0.00  0.00    -0.253 OA
ATOM      6  N   UNL     1      -4.987  -5.945  -1.857  0.00  0.00    -0.264 N 
ATOM      7  C   UNL     1      -4.770  -4.535  -1.526  0.00  0.00    +0.243 C 
ATOM      8  H   UNL     1      -6.840  -6.922   0.585  0.00  0.00    +0.151 HD
ATOM      9  H   UNL     1      -4.580  -6.312  -2.657  0.00  0.00    +0.153 HD
ENDROOT
BRANCH   2  10
ATOM     10  C   UNL     1      -6.225  -4.854   1.996  0.00  0.00    -0.026 A 
ATOM     11  C   UNL     1      -5.580  -5.821   2.744  0.00  0.00    +0.009 A 
ATOM     12  C   UNL     1      -5.618  -5.768   4.124  0.00  0.00    +0.046 A 
ATOM     13  C   UNL     1      -6.305  -4.744   4.759  0.00  0.00    +0.117 A 
ATOM     14  C   UNL     1      -6.951  -3.774   4.006  0.00  0.00    +0.046 A 
ATOM     15  C   UNL     1      -6.905  -3.829   2.626  0.00  0.00    +0.009 A 
BRANCH  13  16
ATOM     16  O   UNL     1      -6.345  -4.690   6.116  0.00  0.00    -0.507 OA
ATOM     17  H   UNL     1      -5.622  -4.184   6.511  0.00  0.00    +0.292 HD
ENDBRANCH  13  16
ENDBRANCH   2  10
BRANCH   7  18
ATOM     18  C   UNL     1      -3.394  -4.094  -2.027  0.00  0.00    +0.436 C 
ATOM     19  F   UNL     1      -2.399  -4.783  -1.326  0.00  0.00    -0.166 F 
ATOM     20  F   UNL     1      -3.282  -4.376  -3.393  0.00  0.00    -0.166 F 
ATOM     21  F   UNL     1      -3.241  -2.718  -1.821  0.00  0.00    -0.166 F 
ENDBRANCH   7  18
BRANCH   1  22
ATOM     22  C   UNL     1      -4.743  -2.894   0.339  0.00  0.00    +0.173 C 
ATOM     23  O   UNL     1      -5.582  -2.118  -0.067  0.00  0.00    -0.292 OA
BRANCH  22  27
ATOM     24  C   UNL     1      -1.537  -1.494   2.726  0.00  0.00    +0.120 A 
ATOM     25  C   UNL     1      -2.418  -0.587   2.147  0.00  0.00    +0.046 A 
ATOM     26  C   UNL     1      -3.458  -1.035   1.373  0.00  0.00    +0.015 A 
ATOM     27  C   UNL     1      -3.631  -2.409   1.166  0.00  0.00    +0.018 A 
ATOM     28  C   UNL     1      -2.742  -3.318   1.751  0.00  0.00    +0.015 A 
ATOM     29  C   UNL     1      -1.702  -2.859   2.519  0.00  0.00    +0.046 A 
BRANCH  24  31
ATOM     30  C   UNL     1      -0.399   0.369   3.662  0.00  0.00    +0.277 C 
ATOM     31  O   UNL     1      -0.510  -1.045   3.490  0.00  0.00    -0.495 OA
ENDBRANCH  24  31
ENDBRANCH  22  27
ENDBRANCH   1  22
BRANCH   7  32
ATOM     32  O   UNL     1      -5.783  -3.741  -2.148  0.00  0.00    -0.364 OA
ATOM     33  H   UNL     1      -5.796  -3.805  -3.113  0.00  0.00    +0.212 HD
ENDBRANCH   7  32
TORSDOF 7
