REMARK  Name = ZINC10691519
REMARK  8 active torsions:
REMARK  status: ('A' for Active; 'I' for Inactive)
REMARK    1  A    between atoms: C_1  and  C_2
REMARK    2  A    between atoms: C_2  and  C_4
REMARK    3  A    between atoms: C_2  and  N_26
REMARK    4  A    between atoms: N_6  and  C_7
REMARK    5  A    between atoms: C_7  and  C_8
REMARK    6  A    between atoms: C_8  and  C_10
REMARK    7  A    between atoms: C_8  and  C_16
REMARK    8  A    between atoms: C_27  and  C_29
REMARK                            x       y       z     vdW  Elec       q    Type
REMARK                         _______ _______ _______ _____ _____    ______ ____
ROOT
ATOM      1  C   UNL     1       4.163  -0.117   2.602  0.00  0.00    +0.068 C 
ENDROOT
BRANCH   1   2
ATOM      2  C   UNL     1       4.927  -0.714   3.755  0.00  0.00    -0.013 A 
ATOM      3  C   UNL     1       4.632  -0.589   5.059  0.00  0.00    +0.088 A 
ATOM      4  N   UNL     1       5.550  -1.268   5.812  0.00  0.00    -0.360 N 
ATOM      5  H   UNL     1       5.545  -1.324   6.781  0.00  0.00    +0.165 HD
ATOM      6  C   UNL     1       6.482  -1.862   4.991  0.00  0.00    +0.047 A 
ATOM      7  C   UNL     1       6.130  -1.546   3.666  0.00  0.00    +0.003 A 
ATOM      8  C   UNL     1       6.902  -2.024   2.607  0.00  0.00    +0.010 A 
ATOM      9  C   UNL     1       7.997  -2.801   2.862  0.00  0.00    +0.001 A 
ATOM     10  C   UNL     1       8.348  -3.118   4.167  0.00  0.00    +0.002 A 
ATOM     11  C   UNL     1       7.603  -2.651   5.228  0.00  0.00    +0.026 A 
ENDBRANCH   1   2
BRANCH   1  12
ATOM     12  C   UNL     1       4.145   1.384   2.734  0.00  0.00    -0.038 A 
ATOM     13  C   UNL     1       3.575   1.973   3.847  0.00  0.00    +0.004 A 
ATOM     14  C   UNL     1       3.563   3.350   3.970  0.00  0.00    +0.000 A 
ATOM     15  C   UNL     1       4.113   4.138   2.976  0.00  0.00    +0.000 A 
ATOM     16  C   UNL     1       4.678   3.549   1.861  0.00  0.00    +0.000 A 
ATOM     17  C   UNL     1       4.694   2.172   1.739  0.00  0.00    +0.004 A 
ENDBRANCH   1  12
BRANCH   1  18
ATOM     18  C   UNL     1       2.727  -0.647   2.613  0.00  0.00    +0.117 C 
BRANCH  18  21
ATOM     19  C   UNL     1       0.731  -0.503   1.223  0.00  0.00    +0.233 C 
ATOM     20  O   UNL     1       0.159  -1.213   2.023  0.00  0.00    -0.274 OA
ATOM     21  N   UNL     1       2.019  -0.161   1.426  0.00  0.00    -0.313 N 
ATOM     22  H   UNL     1       2.476   0.406   0.786  0.00  0.00    +0.149 HD
BRANCH  19  24
ATOM     23  C   UNL     1      -0.019   1.526   0.010  0.00  0.00    +0.038 C 
ATOM     24  C   UNL     1       0.002  -0.004   0.002  0.00  0.00    +0.156 C 
BRANCH  24  25
ATOM     25  N   UNL     1      -1.372  -0.511   0.012  0.00  0.00    -0.298 N 
ATOM     26  C   UNL     1      -2.051  -0.643  -1.145  0.00  0.00    +0.280 C 
ATOM     27  O   UNL     1      -1.522  -0.340  -2.198  0.00  0.00    -0.267 OA
ATOM     28  H   UNL     1      -1.794  -0.752   0.852  0.00  0.00    +0.150 HD
BRANCH  26  29
ATOM     29  C   UNL     1      -3.427  -1.150  -1.134  0.00  0.00    +0.189 A 
ATOM     30  C   UNL     1      -4.223  -1.332  -2.228  0.00  0.00    +0.054 A 
ATOM     31  C   UNL     1      -5.448  -1.832  -1.758  0.00  0.00    +0.042 A 
ATOM     32  C   UNL     1      -5.346  -1.932  -0.414  0.00  0.00    +0.196 A 
ATOM     33  O   UNL     1      -4.125  -1.525  -0.043  0.00  0.00    -0.458 OA
ENDBRANCH  26  29
ENDBRANCH  24  25
ENDBRANCH  19  24
ENDBRANCH  18  21
ENDBRANCH   1  18
TORSDOF 7
