REMARK  Name = ZINC00925145
REMARK  8 active torsions:
REMARK  status: ('A' for Active; 'I' for Inactive)
REMARK    1  A    between atoms: C_1  and  C_2
REMARK    2  A    between atoms: C_7  and  C_13
REMARK    3  A    between atoms: C_15  and  C_26
REMARK    4  A    between atoms: C_16  and  N_25
REMARK    5  A    between atoms: C_18  and  C_24
REMARK    6  A    between atoms: C_19  and  C_20
REMARK    7  A    between atoms: C_20  and  O_22
REMARK    8  A    between atoms: O_22  and  C_23
REMARK                            x       y       z     vdW  Elec       q    Type
REMARK                         _______ _______ _______ _____ _____    ______ ____
ROOT
ATOM      1  C   UNL     1       1.245   2.127  -0.067  0.00  0.00    +0.107 C 
ATOM      2  C   UNL     1      -0.073   1.435   0.151  0.00  0.00    +0.098 C 
ATOM      3  C   UNL     1      -1.226   2.144   0.215  0.00  0.00    +0.198 C 
ATOM      4  O   UNL     1      -1.241   3.483   0.098  0.00  0.00    -0.445 OA
ATOM      5  C   UNL     1      -0.106   4.174   0.281  0.00  0.00    +0.115 C 
ATOM      6  C   UNL     1       1.101   3.597   0.217  0.00  0.00    +0.087 C 
ATOM      7  C   UNL     1      -0.192   5.651   0.570  0.00  0.00    +0.087 C 
ENDROOT
BRANCH   1  14
ATOM      8  C   UNL     1       2.760   1.537  -7.823  0.00  0.00    +0.044 C 
ATOM      9  C   UNL     1       2.275   1.757  -6.413  0.00  0.00    -0.048 A 
ATOM     10  C   UNL     1       1.060   2.406  -6.200  0.00  0.00    +0.004 A 
ATOM     11  C   UNL     1       0.594   2.620  -4.939  0.00  0.00    +0.010 A 
ATOM     12  C   UNL     1       1.346   2.182  -3.838  0.00  0.00    +0.001 A 
ATOM     13  C   UNL     1       0.897   2.380  -2.518  0.00  0.00    +0.017 A 
ATOM     14  C   UNL     1       1.683   1.933  -1.495  0.00  0.00    +0.003 A 
ATOM     15  C   UNL     1       2.889   1.290  -1.775  0.00  0.00    +0.134 A 
ATOM     16  N   UNL     1       3.302   1.104  -3.006  0.00  0.00    -0.235 NA
ATOM     17  C   UNL     1       2.582   1.522  -4.051  0.00  0.00    +0.073 A 
ATOM     18  C   UNL     1       3.029   1.320  -5.369  0.00  0.00    +0.031 A 
ATOM     19 CL   UNL     1       3.870   0.723  -0.459  0.00  0.00    -0.062 Cl
ENDBRANCH   1  14
BRANCH   3  20
ATOM     20  N   UNL     1      -2.410   1.478   0.411  0.00  0.00    -0.328 N 
ATOM     21  H   UNL     1      -2.414   0.512   0.501  0.00  0.00    +0.145 HD
ATOM     22  H   UNL     1      -3.243   1.973   0.459  0.00  0.00    +0.145 HD
ENDBRANCH   3  20
BRANCH   6  23
ATOM     23  C   UNL     1       2.261   4.385   0.419  0.00  0.00    +0.339 C 
ATOM     24  O   UNL     1       2.885   4.292   1.459  0.00  0.00    -0.245 OA
BRANCH  23  25
ATOM     25  O   UNL     1       2.673   5.238  -0.541  0.00  0.00    -0.465 OA
ATOM     26  C   UNL     1       3.851   6.000  -0.270  0.00  0.00    +0.280 C 
ENDBRANCH  23  25
ENDBRANCH   6  23
BRANCH   2  27
ATOM     27  C   UNL     1      -0.111   0.009   0.287  0.00  0.00    +0.101 C 
ATOM     28  N   UNL     1      -0.141  -1.121   0.394  0.00  0.00    -0.191 NA
ENDBRANCH   2  27
TORSDOF 5
