REMARK  Name = ZINC39841253
REMARK  11 active torsions:
REMARK  status: ('A' for Active; 'I' for Inactive)
REMARK    1  A    between atoms: C_1  and  C_2
REMARK    2  A    between atoms: C_2  and  O_3
REMARK    3  A    between atoms: O_3  and  C_4
REMARK    4  A    between atoms: C_4  and  C_6
REMARK    5  A    between atoms: C_12  and  C_14
REMARK    6  A    between atoms: N_27  and  C_30
REMARK    7  A    between atoms: C_28  and  N_29
REMARK    8  A    between atoms: C_30  and  C_31
REMARK    9  A    between atoms: C_31  and  C_32
REMARK   10  A    between atoms: C_35  and  O_38
REMARK   11  A    between atoms: O_38  and  C_39
REMARK                            x       y       z     vdW  Elec       q    Type
REMARK                         _______ _______ _______ _____ _____    ______ ____
ROOT
ATOM      1  C   UNL     1      -5.467  -6.270   1.709  0.00  0.00    +0.075 A 
ATOM      2  C   UNL     1      -4.698  -6.731   0.638  0.00  0.00    +0.033 A 
ATOM      3  C   UNL     1      -4.640  -8.105   0.419  0.00  0.00    +0.083 A 
ATOM      4  C   UNL     1      -5.352  -8.987   1.276  0.00  0.00    +0.150 A 
ATOM      5  N   UNL     1      -5.284 -10.303   1.048  0.00  0.00    -0.211 NA
ATOM      6  C   UNL     1      -4.574 -10.812   0.048  0.00  0.00    +0.143 A 
ATOM      7  C   UNL     1      -4.557 -12.214  -0.120  0.00  0.00    +0.047 A 
ATOM      8  C   UNL     1      -3.837 -12.761  -1.137  0.00  0.00    +0.005 A 
ATOM      9  C   UNL     1      -3.119 -11.926  -2.006  0.00  0.00    +0.018 A 
ATOM     10  C   UNL     1      -3.143 -10.587  -1.833  0.00  0.00    +0.096 A 
ATOM     11  N   UNL     1      -3.862 -10.026  -0.818  0.00  0.00    -0.268 N 
ATOM     12  C   UNL     1      -3.861  -8.679  -0.679  0.00  0.00    +0.268 A 
ATOM     13  O   UNL     1      -3.232  -7.969  -1.442  0.00  0.00    -0.267 OA
ATOM     14  N   UNL     1      -6.074  -8.500   2.287  0.00  0.00    -0.313 N 
ATOM     15  C   UNL     1      -6.144  -7.204   2.525  0.00  0.00    +0.110 A 
ENDROOT
BRANCH   1  22
ATOM     16  C   UNL     1      -2.349  -2.790   3.531  0.00  0.00    +0.101 C 
ATOM     17  C   UNL     1      -3.775  -2.237   3.584  0.00  0.00    +0.033 C 
ATOM     18  C   UNL     1      -4.521  -2.636   2.308  0.00  0.00    +0.109 C 
ATOM     19  N   UNL     1      -4.445  -4.096   2.152  0.00  0.00    -0.297 N 
ATOM     20  C   UNL     1      -3.126  -4.741   2.178  0.00  0.00    +0.109 C 
ATOM     21  C   UNL     1      -2.395  -4.318   3.457  0.00  0.00    +0.033 C 
ATOM     22  C   UNL     1      -5.565  -4.828   1.989  0.00  0.00    +0.250 C 
ATOM     23  O   UNL     1      -6.656  -4.298   2.073  0.00  0.00    -0.270 OA
BRANCH  16  24
ATOM     24  C   UNL     1      -1.602  -2.370   4.771  0.00  0.00    +0.310 C 
ATOM     25  O   UNL     1      -1.152  -3.207   5.517  0.00  0.00    -0.251 OA
BRANCH  24  26
ATOM     26  O   UNL     1      -1.436  -1.067   5.045  0.00  0.00    -0.465 OA
BRANCH  26  28
ATOM     27  C   UNL     1      -0.630   0.780   6.380  0.00  0.00    +0.048 C 
ATOM     28  C   UNL     1      -0.717  -0.741   6.237  0.00  0.00    +0.229 C 
ENDBRANCH  26  28
ENDBRANCH  24  26
ENDBRANCH  16  24
ENDBRANCH   1  22
BRANCH  15  29
ATOM     29  N   UNL     1      -6.899  -6.751   3.586  0.00  0.00    -0.344 N 
ATOM     30  H   UNL     1      -7.021  -5.799   3.723  0.00  0.00    +0.144 HD
ATOM     31  H   UNL     1      -7.307  -7.385   4.196  0.00  0.00    +0.144 HD
ENDBRANCH  15  29
BRANCH  14  32
ATOM     32  C   UNL     1      -6.801  -9.426   3.158  0.00  0.00    +0.129 C 
BRANCH  32  33
ATOM     33  C   UNL     1      -5.903  -9.839   4.326  0.00  0.00    +0.057 C 
BRANCH  33  34
ATOM     34  C   UNL     1      -6.651 -10.792   5.222  0.00  0.00    -0.045 A 
ATOM     35  C   UNL     1      -7.408 -10.303   6.271  0.00  0.00    +0.007 A 
ATOM     36  C   UNL     1      -8.094 -11.175   7.094  0.00  0.00    +0.046 A 
ATOM     37  C   UNL     1      -8.023 -12.542   6.868  0.00  0.00    +0.120 A 
ATOM     38  C   UNL     1      -7.264 -13.030   5.814  0.00  0.00    +0.046 A 
ATOM     39  C   UNL     1      -6.583 -12.154   4.991  0.00  0.00    +0.007 A 
BRANCH  37  40
ATOM     40  O   UNL     1      -8.697 -13.402   7.677  0.00  0.00    -0.495 OA
ATOM     41  C   UNL     1      -8.579 -14.795   7.384  0.00  0.00    +0.277 C 
ENDBRANCH  37  40
ENDBRANCH  33  34
ENDBRANCH  32  33
ENDBRANCH  14  32
TORSDOF 9
