REMARK  Name = ZINC04279795
REMARK  9 active torsions:
REMARK  status: ('A' for Active; 'I' for Inactive)
REMARK    1  A    between atoms: C_1  and  C_2
REMARK    2  A    between atoms: C_2  and  O_3
REMARK    3  A    between atoms: O_3  and  C_4
REMARK    4  A    between atoms: C_7  and  C_10
REMARK    5  A    between atoms: C_12  and  C_29
REMARK    6  A    between atoms: C_13  and  C_28
REMARK    7  A    between atoms: C_18  and  C_20
REMARK    8  A    between atoms: C_25  and  O_26
REMARK    9  A    between atoms: O_26  and  C_27
REMARK                            x       y       z     vdW  Elec       q    Type
REMARK                         _______ _______ _______ _____ _____    ______ ____
ROOT
ATOM      1  C   UNL     1       1.229  -6.085  -1.739  0.00  0.00    +0.168 C 
ATOM      2  C   UNL     1       2.666  -6.525  -1.526  0.00  0.00    +0.062 C 
ATOM      3  C   UNL     1       3.317  -7.067  -2.603  0.00  0.00    +0.052 C 
ATOM      4  N   UNL     1       2.721  -7.200  -3.776  0.00  0.00    -0.221 NA
ATOM      5  C   UNL     1       1.474  -6.840  -4.036  0.00  0.00    +0.209 C 
ATOM      6  N   UNL     1       0.687  -6.287  -3.091  0.00  0.00    -0.181 N 
ATOM      7  N   UNL     1      -0.555  -6.018  -3.669  0.00  0.00    -0.160 NA
ATOM      8  C   UNL     1      -0.511  -6.396  -4.918  0.00  0.00    +0.154 C 
ATOM      9  N   UNL     1       0.729  -6.912  -5.179  0.00  0.00    -0.269 N 
ATOM     10  C   UNL     1       4.746  -7.521  -2.447  0.00  0.00    +0.066 C 
ATOM     11  H   UNL     1       1.029  -7.265  -6.031  0.00  0.00    +0.156 HD
ENDROOT
BRANCH   1  15
ATOM     12  C   UNL     1       0.961  -1.923  -0.805  0.00  0.00    +0.121 A 
ATOM     13  C   UNL     1       0.575  -2.872   0.131  0.00  0.00    +0.046 A 
ATOM     14  C   UNL     1       0.663  -4.216  -0.174  0.00  0.00    +0.009 A 
ATOM     15  C   UNL     1       1.134  -4.617  -1.410  0.00  0.00    -0.020 A 
ATOM     16  C   UNL     1       1.520  -3.674  -2.345  0.00  0.00    +0.009 A 
ATOM     17  C   UNL     1       1.428  -2.328  -2.047  0.00  0.00    +0.046 A 
BRANCH  12  18
ATOM     18  O   UNL     1       0.875  -0.600  -0.508  0.00  0.00    -0.492 OA
BRANCH  18  20
ATOM     19  C   UNL     1       0.360   1.266   0.939  0.00  0.00    +0.048 C 
ATOM     20  C   UNL     1       0.385  -0.257   0.789  0.00  0.00    +0.225 C 
ENDBRANCH  18  20
ENDBRANCH  12  18
ENDBRANCH   1  15
BRANCH   8  21
ATOM     21  C   UNL     1      -1.620  -6.289  -5.890  0.00  0.00    +0.058 A 
ATOM     22  C   UNL     1      -1.450  -6.736  -7.201  0.00  0.00    +0.015 A 
ATOM     23  C   UNL     1      -2.488  -6.634  -8.103  0.00  0.00    +0.001 A 
ATOM     24  C   UNL     1      -3.699  -6.089  -7.714  0.00  0.00    +0.004 A 
ATOM     25  C   UNL     1      -3.880  -5.641  -6.419  0.00  0.00    +0.046 A 
ATOM     26  C   UNL     1      -2.848  -5.743  -5.499  0.00  0.00    +0.131 A 
BRANCH  26  27
ATOM     27  O   UNL     1      -3.027  -5.309  -4.225  0.00  0.00    -0.494 OA
ATOM     28  C   UNL     1      -4.306  -4.763  -3.898  0.00  0.00    +0.277 C 
ENDBRANCH  26  27
ENDBRANCH   8  21
BRANCH   2  29
ATOM     29  C   UNL     1       3.300  -6.384  -0.281  0.00  0.00    +0.241 C 
ATOM     30  O   UNL     1       3.088  -7.193   0.606  0.00  0.00    -0.271 OA
ATOM     31  N   UNL     1       4.142  -5.354  -0.066  0.00  0.00    -0.325 N 
ATOM     32  H   UNL     1       4.364  -4.750  -0.792  0.00  0.00    +0.145 HD
ATOM     33  H   UNL     1       4.526  -5.217   0.814  0.00  0.00    +0.145 HD
ENDBRANCH   2  29
TORSDOF 6
