REMARK  Name = ZINC44167975
REMARK  8 active torsions:
REMARK  status: ('A' for Active; 'I' for Inactive)
REMARK    1  A    between atoms: C_1  and  C_2
REMARK    2  A    between atoms: C_2  and  O_3
REMARK    3  A    between atoms: O_3  and  C_4
REMARK    4  A    between atoms: C_9  and  C_10
REMARK    5  A    between atoms: C_10  and  N_11
REMARK    6  A    between atoms: C_12  and  C_14
REMARK    7  A    between atoms: C_19  and  C_22
REMARK    8  A    between atoms: C_24  and  C_27
REMARK                            x       y       z     vdW  Elec       q    Type
REMARK                         _______ _______ _______ _____ _____    ______ ____
ROOT
ATOM      1  C   UNL     1      -5.551   0.325  -2.947  0.00  0.00    +0.027 C 
ATOM      2  C   UNL     1      -4.332   1.109  -3.449  0.00  0.00    +0.062 C 
ATOM      3  S   UNL     1      -4.662   1.645  -5.156  0.00  0.00    -0.163 S 
ATOM      4  C   UNL     1      -6.310   2.407  -5.023  0.00  0.00    +0.061 C 
ATOM      5  C   UNL     1      -7.233   1.429  -4.285  0.00  0.00    +0.010 C 
ATOM      6  N   UNL     1      -6.727   1.196  -2.930  0.00  0.00    +0.394 N 
ATOM      7  H   UNL     1      -7.452   0.763  -2.378  0.00  0.00    -0.084 HD
ATOM      8  H   UNL     1      -6.479   2.080  -2.512  0.00  0.00    -0.084 HD
ENDROOT
BRANCH   5   9
ATOM      9  C   UNL     1      -8.620   2.013  -4.207  0.00  0.00    +0.125 A 
ATOM     10  C   UNL     1      -9.655   1.692  -5.003  0.00  0.00    +0.074 A 
ATOM     11  C   UNL     1     -10.773   2.462  -4.600  0.00  0.00    +0.114 A 
ATOM     12  N   UNL     1     -10.399   3.214  -3.594  0.00  0.00    -0.078 NA
ATOM     13  O   UNL     1      -9.036   2.937  -3.328  0.00  0.00    -0.361 OA
BRANCH  11  14
ATOM     14  C   UNL     1     -12.126   2.424  -5.209  0.00  0.00    +0.004 A 
ATOM     15  C   UNL     1     -12.389   1.569  -6.277  0.00  0.00    +0.010 A 
ATOM     16  C   UNL     1     -13.649   1.538  -6.840  0.00  0.00    +0.001 A 
ATOM     17  C   UNL     1     -14.650   2.354  -6.345  0.00  0.00    +0.000 A 
ATOM     18  C   UNL     1     -14.395   3.205  -5.285  0.00  0.00    +0.001 A 
ATOM     19  C   UNL     1     -13.140   3.240  -4.712  0.00  0.00    +0.010 A 
ENDBRANCH  11  14
ENDBRANCH   5   9
BRANCH   1  21
ATOM     20  N   UNL     1      -4.242  -1.006  -1.324  0.00  0.00    -0.312 N 
ATOM     21  C   UNL     1      -5.282  -0.180  -1.552  0.00  0.00    +0.200 C 
ATOM     22  O   UNL     1      -6.001   0.158  -0.636  0.00  0.00    -0.278 OA
ATOM     23  H   UNL     1      -3.667  -1.276  -2.057  0.00  0.00    +0.149 HD
BRANCH  20  24
ATOM     24  C   UNL     1      -3.981  -1.497   0.032  0.00  0.00    +0.143 C 
BRANCH  24  30
ATOM     25  C   UNL     1      -1.498  -1.848   0.006  0.00  0.00    +0.125 A 
ATOM     26  C   UNL     1      -0.387  -2.679  -0.003  0.00  0.00    +0.046 A 
ATOM     27  C   UNL     1      -0.552  -4.051  -0.008  0.00  0.00    +0.004 A 
ATOM     28  C   UNL     1      -1.823  -4.596  -0.004  0.00  0.00    +0.001 A 
ATOM     29  C   UNL     1      -2.932  -3.769   0.004  0.00  0.00    +0.009 A 
ATOM     30  C   UNL     1      -2.772  -2.397   0.016  0.00  0.00    +0.011 A 
BRANCH  25  31
ATOM     31  O   UNL     1      -1.339  -0.499   0.012  0.00  0.00    -0.492 OA
BRANCH  31  33
ATOM     32  C   UNL     1      -0.019   1.526   0.010  0.00  0.00    +0.048 C 
ATOM     33  C   UNL     1       0.002  -0.004   0.002  0.00  0.00    +0.225 C 
ENDBRANCH  31  33
ENDBRANCH  25  31
ENDBRANCH  24  30
ENDBRANCH  20  24
ENDBRANCH   1  21
TORSDOF 7
