REMARK  Name = ZINC39771850
REMARK  8 active torsions:
REMARK  status: ('A' for Active; 'I' for Inactive)
REMARK    1  A    between atoms: C_1  and  C_2
REMARK    2  A    between atoms: N_5  and  C_8
REMARK    3  A    between atoms: C_8  and  C_9
REMARK    4  A    between atoms: C_11  and  N_15
REMARK    5  A    between atoms: C_16  and  C_18
REMARK    6  A    between atoms: C_18  and  C_19
REMARK    7  A    between atoms: C_19  and  C_20
REMARK    8  A    between atoms: C_22  and  C_29
REMARK                            x       y       z     vdW  Elec       q    Type
REMARK                         _______ _______ _______ _____ _____    ______ ____
ROOT
ATOM      1  N   UNL     1       1.969  -3.190   5.207  0.00  0.00    -0.285 N 
ATOM      2  C   UNL     1       2.450  -3.163   6.466  0.00  0.00    +0.215 C 
ATOM      3  O   UNL     1       1.825  -3.686   7.365  0.00  0.00    -0.276 OA
ATOM      4  H   UNL     1       2.469  -2.772   4.488  0.00  0.00    +0.152 HD
ENDROOT
BRANCH   1   7
ATOM      5  C   UNL     1      -0.233  -4.346   2.792  0.00  0.00    +0.040 C 
ATOM      6  N   UNL     1       0.177  -3.469   3.593  0.00  0.00    -0.258 NA
ATOM      7  C   UNL     1       0.693  -3.851   4.924  0.00  0.00    +0.251 C 
ATOM      8  S   UNL     1       0.917  -5.670   4.696  0.00  0.00    -0.109 S 
ATOM      9  C   UNL     1      -0.192  -5.806   3.223  0.00  0.00    +0.124 C 
BRANCH   5  10
ATOM     10  C   UNL     1      -0.760  -3.960   1.435  0.00  0.00    +0.135 C 
BRANCH  10  15
ATOM     11  C   UNL     1      -0.019   1.526   0.010  0.00  0.00    +0.007 C 
ATOM     12  C   UNL     1       0.002  -0.004   0.002  0.00  0.00    -0.012 C 
ATOM     13  C   UNL     1      -1.434  -0.535   0.021  0.00  0.00    +0.018 C 
ATOM     14  C   UNL     1      -1.406  -2.065   0.074  0.00  0.00    +0.085 C 
ATOM     15  N   UNL     1      -0.688  -2.501   1.278  0.00  0.00    -0.297 NA
ATOM     16  C   UNL     1       0.707  -2.042   1.260  0.00  0.00    +0.085 C 
ATOM     17  C   UNL     1       0.742  -0.513   1.242  0.00  0.00    +0.018 C 
ENDBRANCH  10  15
ENDBRANCH   5  10
ENDBRANCH   1   7
BRANCH   2  18
ATOM     18  C   UNL     1       3.763  -2.483   6.757  0.00  0.00    +0.101 C 
BRANCH  18  19
ATOM     19  C   UNL     1       4.075  -2.595   8.250  0.00  0.00    +0.051 C 
BRANCH  19  20
ATOM     20  C   UNL     1       5.388  -1.916   8.541  0.00  0.00    +0.036 A 
ATOM     21  H   UNL     1       6.637   0.887   9.535  0.00  0.00    +0.167 HD
ATOM     22  C   UNL     1       5.416  -0.635   8.969  0.00  0.00    +0.023 A 
ATOM     23  N   UNL     1       6.617  -0.033   9.228  0.00  0.00    -0.339 N 
ATOM     24  C   UNL     1       7.770  -0.705   9.061  0.00  0.00    +0.158 A 
ATOM     25  S   UNL     1       9.257   0.075   9.394  0.00  0.00    -0.013 S 
ATOM     26  N   UNL     1       7.772  -1.982   8.636  0.00  0.00    -0.303 N 
ATOM     27  C   UNL     1       6.609  -2.613   8.376  0.00  0.00    +0.255 A 
ATOM     28  O   UNL     1       6.609  -3.771   7.997  0.00  0.00    -0.267 OA
ATOM     29  C   UNL     1       4.130   0.128   9.158  0.00  0.00    +0.064 C 
ATOM     30  H   UNL     1       8.613  -2.452   8.521  0.00  0.00    +0.171 HD
ENDBRANCH  19  20
ENDBRANCH  18  19
ENDBRANCH   2  18
TORSDOF 6
