REMARK  Name = ZINC39965459
REMARK  13 active torsions:
REMARK  status: ('A' for Active; 'I' for Inactive)
REMARK    1  A    between atoms: C_1  and  C_2
REMARK    2  A    between atoms: C_2  and  N_3
REMARK    3  A    between atoms: N_3  and  C_4
REMARK    4  A    between atoms: C_4  and  C_5
REMARK    5  A    between atoms: C_6  and  C_8
REMARK    6  A    between atoms: C_9  and  C_35
REMARK    7  A    between atoms: C_10  and  C_33
REMARK    8  A    between atoms: C_11  and  N_13
REMARK    9  A    between atoms: C_14  and  C_16
REMARK   10  A    between atoms: C_16  and  S_17
REMARK   11  A    between atoms: S_17  and  C_18
REMARK   12  A    between atoms: C_21  and  C_24
REMARK   13  A    between atoms: N_22  and  C_23
REMARK                            x       y       z     vdW  Elec       q    Type
REMARK                         _______ _______ _______ _____ _____    ______ ____
ROOT
ATOM      1  N   UNL     1       2.955  -3.498  -6.642  0.00  0.00    -0.278 N 
ATOM      2  C   UNL     1       4.180  -3.624  -6.093  0.00  0.00    +0.228 C 
ATOM      3  O   UNL     1       4.427  -3.087  -5.034  0.00  0.00    -0.275 OA
ATOM      4  H   UNL     1       2.757  -3.927  -7.489  0.00  0.00    +0.155 HD
ENDROOT
BRANCH   1   8
ATOM      5  C   UNL     1       0.452  -1.272  -4.439  0.00  0.00    +0.080 A 
ATOM      6  C   UNL     1      -0.130  -1.738  -5.588  0.00  0.00    -0.012 A 
ATOM      7  C   UNL     1       0.670  -2.519  -6.410  0.00  0.00    +0.084 A 
ATOM      8  C   UNL     1       1.982  -2.758  -5.998  0.00  0.00    +0.090 A 
ATOM      9  S   UNL     1       2.103  -1.931  -4.541  0.00  0.00    -0.067 S 
ATOM     10  C   UNL     1      -1.561  -1.421  -5.941  0.00  0.00    +0.046 C 
BRANCH   5  12
ATOM     11  N   UNL     1       0.635   0.029  -2.388  0.00  0.00    -0.298 N 
ATOM     12  C   UNL     1      -0.136  -0.436  -3.391  0.00  0.00    +0.254 C 
ATOM     13  O   UNL     1      -1.321  -0.160  -3.425  0.00  0.00    -0.269 OA
BRANCH  11  15
ATOM     14  C   UNL     1       0.011   2.264  -1.616  0.00  0.00    +0.024 C 
ATOM     15  C   UNL     1       0.028   0.771  -1.280  0.00  0.00    +0.105 C 
ENDBRANCH  11  15
BRANCH  11  16
ATOM     16  C   UNL     1       2.081  -0.208  -2.405  0.00  0.00    +0.105 C 
ATOM     17  C   UNL     1       2.387  -1.544  -1.726  0.00  0.00    +0.024 C 
ENDBRANCH  11  16
ENDBRANCH   5  12
BRANCH   7  18
ATOM     18  C   UNL     1       0.168  -3.061  -7.636  0.00  0.00    +0.102 C 
ATOM     19  N   UNL     1      -0.231  -3.490  -8.609  0.00  0.00    -0.191 NA
ENDBRANCH   7  18
ENDBRANCH   1   8
BRANCH   2  20
ATOM     20  C   UNL     1       5.241  -4.431  -6.795  0.00  0.00    +0.173 C 
BRANCH  20  21
ATOM     21  S   UNL     1       6.766  -4.410  -5.812  0.00  0.00    -0.077 S 
BRANCH  21  22
ATOM     22  C   UNL     1       7.894  -5.383  -6.754  0.00  0.00    +0.192 A 
ATOM     23  N   UNL     1       7.647  -5.967  -7.905  0.00  0.00    -0.122 NA
ATOM     24  N   UNL     1       8.690  -6.596  -8.313  0.00  0.00    -0.128 NA
ATOM     25  C   UNL     1       9.668  -6.452  -7.449  0.00  0.00    +0.165 A 
ATOM     26  N   UNL     1       9.189  -5.666  -6.426  0.00  0.00    -0.305 N 
ATOM     27  C   UNL     1       9.917  -5.226  -5.233  0.00  0.00    +0.153 C 
BRANCH  25  28
ATOM     28  C   UNL     1      11.027  -7.022  -7.557  0.00  0.00    +0.023 A 
ATOM     29  C   UNL     1      11.491  -7.496  -8.785  0.00  0.00    +0.015 A 
ATOM     30  C   UNL     1      12.760  -8.027  -8.884  0.00  0.00    +0.050 A 
ATOM     31  C   UNL     1      13.579  -8.092  -7.766  0.00  0.00    +0.166 A 
ATOM     32  C   UNL     1      13.121  -7.620  -6.537  0.00  0.00    +0.167 A 
ATOM     33  C   UNL     1      11.852  -7.082  -6.433  0.00  0.00    +0.061 A 
ATOM     34  O   UNL     1      14.107  -7.796  -5.608  0.00  0.00    -0.453 OA
ATOM     35  C   UNL     1      15.015  -8.750  -6.188  0.00  0.00    +0.466 C 
ATOM     36  O   UNL     1      14.851  -8.562  -7.606  0.00  0.00    -0.453 OA
ENDBRANCH  25  28
ENDBRANCH  21  22
ENDBRANCH  20  21
ENDBRANCH   2  20
TORSDOF 9
