REMARK  Name = ZINC13637301
REMARK  6 active torsions:
REMARK  status: ('A' for Active; 'I' for Inactive)
REMARK    1  A    between atoms: C_4  and  C_7
REMARK    2  A    between atoms: C_7  and  N_8
REMARK    3  A    between atoms: N_8  and  S_9
REMARK    4  A    between atoms: S_9  and  C_12
REMARK    5  A    between atoms: C_25  and  C_28
REMARK    6  A    between atoms: C_31  and  O_34
REMARK                            x       y       z     vdW  Elec       q    Type
REMARK                         _______ _______ _______ _____ _____    ______ ____
ROOT
ATOM      1  C   UNL     1       3.586  -3.193  -1.118  0.00  0.00    +0.106 A 
ATOM      2  C   UNL     1       3.220  -3.967  -0.031  0.00  0.00    +0.030 A 
ATOM      3  C   UNL     1       2.221  -3.530   0.815  0.00  0.00    +0.025 A 
ATOM      4  C   UNL     1       1.586  -2.318   0.573  0.00  0.00    +0.031 A 
ATOM      5  C   UNL     1       1.945  -1.542  -0.517  0.00  0.00    -0.018 A 
ATOM      6  C   UNL     1       2.954  -1.991  -1.359  0.00  0.00    +0.034 A 
ATOM      7  C   UNL     1       1.283  -0.236  -0.823  0.00  0.00    +0.049 C 
ATOM      8  C   UNL     1       2.171   0.932  -0.467  0.00  0.00    -0.023 C 
ATOM      9  C   UNL     1       1.451   1.924  -0.002  0.00  0.00    -0.030 C 
ATOM     10  C   UNL     1      -0.019   1.553   0.011  0.00  0.00    +0.033 C 
ATOM     11  C   UNL     1       0.002  -0.004   0.002  0.00  0.00    +0.029 C 
ATOM     12  C   UNL     1       0.222  -0.465   1.446  0.00  0.00    +0.105 C 
ATOM     13  N   UNL     1       0.576  -1.888   1.441  0.00  0.00    -0.336 N 
ATOM     14  H   UNL     1       0.123  -2.515   2.026  0.00  0.00    +0.147 HD
ENDROOT
BRANCH  12  15
ATOM     15  C   UNL     1       1.341   0.332   2.065  0.00  0.00    -0.027 A 
ATOM     16  C   UNL     1       2.656  -0.004   1.801  0.00  0.00    +0.009 A 
ATOM     17  C   UNL     1       3.683   0.729   2.363  0.00  0.00    +0.046 A 
ATOM     18  C   UNL     1       3.395   1.795   3.203  0.00  0.00    +0.117 A 
ATOM     19  C   UNL     1       2.075   2.127   3.471  0.00  0.00    +0.046 A 
ATOM     20  C   UNL     1       1.051   1.394   2.902  0.00  0.00    +0.009 A 
BRANCH  18  21
ATOM     21  O   UNL     1       4.404   2.514   3.761  0.00  0.00    -0.507 OA
ATOM     22  H   UNL     1       4.700   2.177   4.617  0.00  0.00    +0.292 HD
ENDBRANCH  18  21
ENDBRANCH  12  15
BRANCH   1  23
ATOM     23  S   UNL     1       4.863  -3.746  -2.199  0.00  0.00    +0.059 S 
ATOM     24  O   UNL     1       5.393  -2.587  -2.827  0.00  0.00    -0.153 OA
ATOM     25  O   UNL     1       5.671  -4.642  -1.448  0.00  0.00    -0.153 OA
BRANCH  23  26
ATOM     26  N   UNL     1       4.142  -4.643  -3.389  0.00  0.00    -0.186 NA
ATOM     27  H   UNL     1       4.334  -5.591  -3.466  0.00  0.00    +0.148 HD
BRANCH  26  28
ATOM     28  C   UNL     1       3.216  -4.005  -4.328  0.00  0.00    +0.141 C 
BRANCH  28  32
ATOM     29  C   UNL     1       2.577  -6.584  -7.673  0.00  0.00    +0.000 A 
ATOM     30  C   UNL     1       1.756  -6.674  -6.564  0.00  0.00    +0.000 A 
ATOM     31  C   UNL     1       1.963  -5.839  -5.482  0.00  0.00    +0.005 A 
ATOM     32  C   UNL     1       2.991  -4.915  -5.508  0.00  0.00    -0.032 A 
ATOM     33  C   UNL     1       3.808  -4.822  -6.619  0.00  0.00    +0.005 A 
ATOM     34  C   UNL     1       3.604  -5.660  -7.700  0.00  0.00    +0.000 A 
ENDBRANCH  28  32
ENDBRANCH  26  28
ENDBRANCH  23  26
ENDBRANCH   1  23
TORSDOF 6
