REMARK  Name = ZINC03640917
REMARK  7 active torsions:
REMARK  status: ('A' for Active; 'I' for Inactive)
REMARK    1  A    between atoms: C_1  and  N_2
REMARK    2  A    between atoms: C_9  and  C_17
REMARK    3  A    between atoms: C_10  and  C_11
REMARK    4  A    between atoms: N_18  and  N_19
REMARK    5  A    between atoms: C_20  and  C_22
REMARK    6  A    between atoms: C_22  and  N_23
REMARK    7  A    between atoms: C_31  and  C_32
REMARK                            x       y       z     vdW  Elec       q    Type
REMARK                         _______ _______ _______ _____ _____    ______ ____
ROOT
ATOM      1  N   UNL     1       6.118  -0.387   3.349  0.00  0.00    -0.206 N 
ATOM      2  C   UNL     1       7.265  -0.537   4.042  0.00  0.00    +0.252 C 
ATOM      3  O   UNL     1       8.190   0.225   3.854  0.00  0.00    -0.272 OA
ATOM      4  H   UNL     1       5.378  -0.996   3.498  0.00  0.00    +0.177 HD
ENDROOT
BRANCH   1   6
ATOM      5  C   UNL     1       4.889   0.792   1.744  0.00  0.00    +0.141 C 
ATOM      6  N   UNL     1       5.995   0.647   2.412  0.00  0.00    -0.188 NA
BRANCH   5  15
ATOM      7  C   UNL     1       3.003   3.833  -1.781  0.00  0.00    +0.149 C 
ATOM      8  N   UNL     1       3.931   3.244  -0.814  0.00  0.00    -0.342 N 
ATOM      9  C   UNL     1       5.208   3.705  -0.564  0.00  0.00    +0.050 A 
ATOM     10  C   UNL     1       5.951   4.758  -1.089  0.00  0.00    +0.026 A 
ATOM     11  C   UNL     1       7.236   4.982  -0.644  0.00  0.00    +0.002 A 
ATOM     12  C   UNL     1       7.801   4.167   0.327  0.00  0.00    +0.001 A 
ATOM     13  C   UNL     1       7.083   3.119   0.858  0.00  0.00    +0.010 A 
ATOM     14  C   UNL     1       5.781   2.880   0.417  0.00  0.00    +0.009 A 
ATOM     15  C   UNL     1       4.761   1.876   0.762  0.00  0.00    +0.028 A 
ATOM     16  C   UNL     1       3.655   2.158  -0.022  0.00  0.00    +0.059 A 
BRANCH  16  17
ATOM     17  C   UNL     1       2.385   1.407  -0.014  0.00  0.00    -0.001 A 
ATOM     18  C   UNL     1       1.166   2.089   0.002  0.00  0.00    +0.010 A 
ATOM     19  C   UNL     1      -0.017   1.380   0.010  0.00  0.00    +0.001 A 
ATOM     20  C   UNL     1       0.002  -0.004   0.002  0.00  0.00    +0.000 A 
ATOM     21  C   UNL     1       1.206  -0.686  -0.013  0.00  0.00    +0.001 A 
ATOM     22  C   UNL     1       2.397   0.009  -0.021  0.00  0.00    +0.010 A 
ENDBRANCH  16  17
ENDBRANCH   5  15
ENDBRANCH   1   6
BRANCH   2  23
ATOM     23  C   UNL     1       7.397  -1.650   5.049  0.00  0.00    +0.221 C 
BRANCH  23  24
ATOM     24  N   UNL     1       8.726  -1.598   5.662  0.00  0.00    -0.313 N 
ATOM     25  C   UNL     1       9.860  -2.245   5.215  0.00  0.00    +0.070 A 
ATOM     26  C   UNL     1      10.134  -3.076   4.137  0.00  0.00    +0.028 A 
ATOM     27  C   UNL     1      11.410  -3.567   3.959  0.00  0.00    +0.002 A 
ATOM     28  C   UNL     1      12.423  -3.232   4.847  0.00  0.00    +0.002 A 
ATOM     29  C   UNL     1      12.175  -2.412   5.910  0.00  0.00    +0.030 A 
ATOM     30  C   UNL     1      10.888  -1.901   6.112  0.00  0.00    +0.090 A 
ATOM     31  N   UNL     1      10.346  -1.087   7.048  0.00  0.00    -0.226 NA
ATOM     32  C   UNL     1       9.074  -0.904   6.789  0.00  0.00    +0.168 A 
BRANCH  32  33
ATOM     33  C   UNL     1       8.153  -0.072   7.595  0.00  0.00    +0.190 A 
ATOM     34  C   UNL     1       8.440   0.704   8.824  0.00  0.00    +0.191 A 
ATOM     35  N   UNL     1       7.274   1.240   9.101  0.00  0.00    -0.033 NA
ATOM     36  O   UNL     1       6.463   0.890   8.275  0.00  0.00    -0.240 OA
ATOM     37  N   UNL     1       6.872   0.160   7.404  0.00  0.00    -0.044 NA
ATOM     38  N   UNL     1       9.640   0.834   9.509  0.00  0.00    -0.339 N 
ATOM     39  H   UNL     1      10.434   0.379   9.188  0.00  0.00    +0.144 HD
ATOM     40  H   UNL     1       9.685   1.381  10.310  0.00  0.00    +0.144 HD
ENDBRANCH  32  33
ENDBRANCH  23  24
ENDBRANCH   2  23
TORSDOF 6
