REMARK  Name = ZINC39664050
REMARK  8 active torsions:
REMARK  status: ('A' for Active; 'I' for Inactive)
REMARK    1  A    between atoms: C_1  and  O_2
REMARK    2  A    between atoms: O_2  and  C_3
REMARK    3  A    between atoms: C_6  and  C_9
REMARK    4  A    between atoms: C_9  and  C_11
REMARK    5  A    between atoms: C_9  and  N_35
REMARK    6  A    between atoms: C_11  and  N_12
REMARK    7  A    between atoms: C_13  and  C_15
REMARK    8  A    between atoms: C_26  and  C_28
REMARK                            x       y       z     vdW  Elec       q    Type
REMARK                         _______ _______ _______ _____ _____    ______ ____
ROOT
ATOM      1  C   UNL     1       6.411  -5.397  -5.625  0.00  0.00    +0.100 C 
ATOM      2  C   UNL     1       5.763  -6.710  -6.119  0.00  0.00    +0.121 C 
ATOM      3  N   UNL     1       6.893  -7.507  -6.652  0.00  0.00    -0.296 N 
ATOM      4  C   UNL     1       8.002  -7.256  -5.701  0.00  0.00    +0.115 C 
ATOM      5  C   UNL     1       7.880  -5.759  -5.351  0.00  0.00    -0.004 C 
ATOM      6  C   UNL     1       8.215  -5.533  -3.880  0.00  0.00    -0.010 C 
ATOM      7  C   UNL     1       9.695  -5.844  -3.644  0.00  0.00    -0.082 C 
ATOM      8  N   UNL     1      10.521  -4.978  -4.494  0.00  0.00    +0.379 N 
ATOM      9  C   UNL     1      10.260  -5.268  -5.909  0.00  0.00    -0.082 C 
ATOM     10  C   UNL     1       8.803  -4.932  -6.240  0.00  0.00    -0.010 C 
ATOM     11  C   UNL     1       6.909  -8.285  -7.752  0.00  0.00    +0.247 C 
ATOM     12  O   UNL     1       5.946  -8.308  -8.494  0.00  0.00    -0.270 OA
ATOM     13  H   UNL     1      10.299  -4.012  -4.303  0.00  0.00    -0.086 HD
ATOM     14  H   UNL     1      11.496  -5.142  -4.293  0.00  0.00    -0.086 HD
ENDROOT
BRANCH  11  15
ATOM     15  C   UNL     1       8.096  -9.109  -8.058  0.00  0.00    +0.037 A 
ATOM     16  C   UNL     1       8.993  -9.449  -7.043  0.00  0.00    +0.014 A 
ATOM     17  C   UNL     1      10.100 -10.219  -7.334  0.00  0.00    +0.021 A 
ATOM     18  C   UNL     1      10.322 -10.655  -8.630  0.00  0.00    +0.041 A 
ATOM     19  C   UNL     1       9.435 -10.322  -9.641  0.00  0.00    +0.021 A 
ATOM     20  C   UNL     1       8.323  -9.557  -9.361  0.00  0.00    +0.014 A 
ATOM     21 CL   UNL     1      11.717 -11.624  -8.989  0.00  0.00    -0.084 Cl
ENDBRANCH  11  15
BRANCH   1  23
ATOM     22  N   UNL     1       5.731  -3.613  -4.052  0.00  0.00    -0.316 N 
ATOM     23  C   UNL     1       5.742  -4.925  -4.360  0.00  0.00    +0.218 C 
ATOM     24  O   UNL     1       5.214  -5.726  -3.618  0.00  0.00    -0.275 OA
ATOM     25  H   UNL     1       6.153  -2.972  -4.645  0.00  0.00    +0.149 HD
BRANCH  22  26
ATOM     26  C   UNL     1       5.080  -3.155  -2.822  0.00  0.00    +0.093 C 
BRANCH  26  27
ATOM     27  C   UNL     1       5.124  -1.626  -2.761  0.00  0.00    -0.020 C 
BRANCH  27  31
ATOM     28  C   UNL     1       9.193  -0.319  -2.714  0.00  0.00    +0.120 A 
ATOM     29  C   UNL     1       8.466  -0.286  -3.895  0.00  0.00    +0.046 A 
ATOM     30  C   UNL     1       7.151  -0.709  -3.908  0.00  0.00    +0.005 A 
ATOM     31  C   UNL     1       6.559  -1.165  -2.744  0.00  0.00    -0.059 A 
ATOM     32  C   UNL     1       7.281  -1.199  -1.566  0.00  0.00    +0.005 A 
ATOM     33  C   UNL     1       8.598  -0.782  -1.549  0.00  0.00    +0.046 A 
BRANCH  28  35
ATOM     34  C   UNL     1      11.033   0.561  -3.935  0.00  0.00    +0.277 C 
ATOM     35  O   UNL     1      10.486   0.097  -2.699  0.00  0.00    -0.495 OA
ENDBRANCH  28  35
ENDBRANCH  27  31
BRANCH  27  36
ATOM     36  N   UNL     1       4.448  -1.165  -1.541  0.00  0.00    +0.385 N 
ATOM     37  C   UNL     1       4.506   0.316  -1.452  0.00  0.00    -0.078 C 
ATOM     38  C   UNL     1       3.331   0.660  -0.503  0.00  0.00    -0.020 C 
ATOM     39  C   UNL     1       2.245  -0.361  -0.912  0.00  0.00    -0.020 C 
ATOM     40  C   UNL     1       3.010  -1.510  -1.594  0.00  0.00    -0.078 C 
ATOM     41  H   UNL     1       4.876  -1.581  -0.727  0.00  0.00    -0.081 HD
ENDBRANCH  27  36
ENDBRANCH  26  27
ENDBRANCH  22  26
ENDBRANCH   1  23
TORSDOF 7
