REMARK  Name = ZINC32895920
REMARK  6 active torsions:
REMARK  status: ('A' for Active; 'I' for Inactive)
REMARK    1  A    between atoms: C_1  and  C_2
REMARK    2  A    between atoms: C_8  and  S_12
REMARK    3  A    between atoms: S_12  and  N_15
REMARK    4  A    between atoms: C_18  and  C_21
REMARK    5  A    between atoms: C_28  and  C_35
REMARK    6  A    between atoms: C_30  and  O_31
REMARK                            x       y       z     vdW  Elec       q    Type
REMARK                         _______ _______ _______ _____ _____    ______ ____
ROOT
ATOM      1  N   UNL     1       1.487   4.437   1.428  0.00  0.00    -0.176 NA
ATOM      2  C   UNL     1       0.804   4.545   2.724  0.00  0.00    +0.110 C 
ATOM      3  C   UNL     1       1.015   5.951   3.282  0.00  0.00    +0.030 C 
ATOM      4  C   UNL     1       2.514   6.258   3.334  0.00  0.00    +0.078 C 
ATOM      5  C   UNL     1       3.096   6.205   1.919  0.00  0.00    +0.030 C 
ATOM      6  C   UNL     1       2.910   4.796   1.347  0.00  0.00    +0.110 C 
ENDROOT
BRANCH   4   7
ATOM      7  C   UNL     1       2.726   7.633   3.913  0.00  0.00    +0.220 C 
ATOM      8  O   UNL     1       3.287   8.486   3.259  0.00  0.00    -0.275 OA
ATOM      9  N   UNL     1       2.292   7.914   5.157  0.00  0.00    -0.285 N 
ATOM     10  C   UNL     1       2.584   9.150   5.735  0.00  0.00    +0.037 A 
ATOM     11  C   UNL     1       1.665   9.743   6.602  0.00  0.00    +0.024 A 
ATOM     12  C   UNL     1       1.937  10.951   7.175  0.00  0.00    +0.013 A 
ATOM     13  C   UNL     1       3.145  11.600   6.891  0.00  0.00    +0.021 A 
ATOM     14  C   UNL     1       3.463  12.896   7.493  0.00  0.00    -0.033 A 
ATOM     15  C   UNL     1       4.651  13.476   7.179  0.00  0.00    +0.091 A 
ATOM     16  C   UNL     1       5.537  12.825   6.296  0.00  0.00    +0.285 A 
ATOM     17  O   UNL     1       5.239  11.636   5.747  0.00  0.00    -0.425 OA
ATOM     18  C   UNL     1       4.076  11.007   6.018  0.00  0.00    +0.141 A 
ATOM     19  C   UNL     1       3.787   9.777   5.448  0.00  0.00    +0.070 A 
ATOM     20  C   UNL     1       2.498  13.570   8.434  0.00  0.00    +0.045 C 
ATOM     21  H   UNL     1       1.707   7.169   5.717  0.00  0.00    +0.155 HD
BRANCH  16  22
ATOM     22  O   UNL     1       6.599  13.355   6.023  0.00  0.00    -0.480 OA
ATOM     23  H   UNL     1       7.300  12.860   5.335  0.00  0.00    +0.295 HD
ENDBRANCH  16  22
ENDBRANCH   4   7
BRANCH   1  24
ATOM     24  S   UNL     1       0.668   3.926   0.083  0.00  0.00    +0.063 S 
ATOM     25  O   UNL     1       1.365   4.448  -1.040  0.00  0.00    -0.153 OA
ATOM     26  O   UNL     1      -0.707   4.196   0.318  0.00  0.00    -0.153 OA
BRANCH  24  34
ATOM     27  C   UNL     1       5.919  -0.149  -0.806  0.00  0.00    +0.045 C 
ATOM     28  C   UNL     1       4.544   0.428  -0.588  0.00  0.00    -0.032 A 
ATOM     29  C   UNL     1       3.467  -0.402  -0.456  0.00  0.00    +0.015 A 
ATOM     30  C   UNL     1       2.202   0.179  -0.253  0.00  0.00    +0.003 A 
ATOM     31  C   UNL     1       1.049  -0.610  -0.109  0.00  0.00    +0.010 A 
ATOM     32  C   UNL     1      -0.157  -0.010   0.085  0.00  0.00    +0.003 A 
ATOM     33  C   UNL     1      -0.264   1.379   0.142  0.00  0.00    +0.031 A 
ATOM     34  C   UNL     1       0.832   2.173   0.006  0.00  0.00    +0.131 A 
ATOM     35  C   UNL     1       2.096   1.591  -0.195  0.00  0.00    +0.097 A 
ATOM     36  N   UNL     1       3.190   2.346  -0.332  0.00  0.00    -0.253 NA
ATOM     37  C   UNL     1       4.370   1.808  -0.521  0.00  0.00    +0.114 A 
ENDBRANCH  24  34
ENDBRANCH   1  24
TORSDOF 4
