REMARK  Name = ZINC16025521
REMARK  12 active torsions:
REMARK  status: ('A' for Active; 'I' for Inactive)
REMARK    1  A    between atoms: C_1  and  C_2
REMARK    2  A    between atoms: C_2  and  C_3
REMARK    3  A    between atoms: C_2  and  C_4
REMARK    4  A    between atoms: C_4  and  C_5
REMARK    5  A    between atoms: C_5  and  N_6
REMARK    6  A    between atoms: C_7  and  C_9
REMARK    7  A    between atoms: C_9  and  C_11
REMARK    8  A    between atoms: C_9  and  N_15
REMARK    9  A    between atoms: C_11  and  C_12
REMARK   10  A    between atoms: C_12  and  S_13
REMARK   11  A    between atoms: S_13  and  C_14
REMARK   12  A    between atoms: C_16  and  C_18
REMARK                            x       y       z     vdW  Elec       q    Type
REMARK                         _______ _______ _______ _____ _____    ______ ____
ROOT
ATOM      1  C   UNL     1       1.013  -2.834   4.523  0.00  0.00    +0.167 C 
ATOM      2  C   UNL     1       0.567  -3.313   3.134  0.00  0.00    +0.069 C 
ATOM      3  C   UNL     1       0.959  -4.753   2.928  0.00  0.00    -0.015 A 
ATOM      4  C   UNL     1       0.473  -5.656   1.899  0.00  0.00    +0.003 A 
ATOM      5  C   UNL     1      -0.447  -5.492   0.859  0.00  0.00    +0.010 A 
ATOM      6  C   UNL     1      -0.672  -6.581   0.054  0.00  0.00    +0.001 A 
ATOM      7  C   UNL     1      -0.025  -7.790   0.253  0.00  0.00    +0.002 A 
ATOM      8  C   UNL     1       0.890  -7.979   1.275  0.00  0.00    +0.026 A 
ATOM      9  C   UNL     1       1.139  -6.890   2.108  0.00  0.00    +0.047 A 
ATOM     10  N   UNL     1       1.960  -6.730   3.186  0.00  0.00    -0.356 N 
ATOM     11  H   UNL     1       2.541  -7.416   3.551  0.00  0.00    +0.166 HD
ATOM     12  C   UNL     1       1.842  -5.457   3.672  0.00  0.00    +0.046 A 
ATOM     13  C   UNL     1       2.561  -4.871   4.863  0.00  0.00    +0.155 C 
ATOM     14  N   UNL     1       2.335  -3.409   4.795  0.00  0.00    -0.273 N 
ATOM     15  C   UNL     1       3.508  -2.787   4.972  0.00  0.00    +0.248 C 
ATOM     16  O   UNL     1       3.646  -1.596   5.172  0.00  0.00    -0.270 OA
ATOM     17  C   UNL     1       4.600  -3.762   4.890  0.00  0.00    +0.042 A 
ATOM     18  C   UNL     1       4.039  -5.051   4.789  0.00  0.00    -0.009 A 
ATOM     19  C   UNL     1       4.828  -6.171   4.654  0.00  0.00    +0.006 A 
ATOM     20  C   UNL     1       6.206  -5.977   4.636  0.00  0.00    +0.000 A 
ATOM     21  C   UNL     1       6.765  -4.720   4.747  0.00  0.00    +0.001 A 
ATOM     22  C   UNL     1       5.985  -3.580   4.876  0.00  0.00    +0.013 A 
ENDROOT
BRANCH   1  24
ATOM     23  N   UNL     1       0.212  -0.614   5.264  0.00  0.00    -0.302 N 
ATOM     24  C   UNL     1       1.097  -1.329   4.542  0.00  0.00    +0.235 C 
ATOM     25  O   UNL     1       1.961  -0.762   3.907  0.00  0.00    -0.274 OA
ATOM     26  H   UNL     1      -0.479  -1.067   5.771  0.00  0.00    +0.150 HD
BRANCH  23  27
ATOM     27  C   UNL     1       0.293   0.849   5.282  0.00  0.00    +0.160 C 
BRANCH  27  29
ATOM     28  N   UNL     1      -0.370   2.698   6.785  0.00  0.00    -0.314 N 
ATOM     29  C   UNL     1      -0.330   1.371   6.550  0.00  0.00    +0.233 C 
ATOM     30  O   UNL     1      -0.797   0.598   7.359  0.00  0.00    -0.274 OA
ATOM     31  H   UNL     1       0.004   3.316   6.138  0.00  0.00    +0.149 HD
BRANCH  28  32
ATOM     32  C   UNL     1      -0.976   3.206   8.018  0.00  0.00    +0.104 C 
BRANCH  32  33
ATOM     33  C   UNL     1      -0.891   4.733   8.037  0.00  0.00    +0.022 C 
BRANCH  33  35
ATOM     34  C   UNL     1      -1.328   6.779   9.403  0.00  0.00    +0.007 C 
ATOM     35  C   UNL     1      -1.524   5.263   9.325  0.00  0.00    -0.016 C 
ATOM     36  C   UNL     1      -3.020   4.941   9.328  0.00  0.00    +0.007 C 
ENDBRANCH  33  35
ENDBRANCH  32  33
ENDBRANCH  28  32
ENDBRANCH  27  29
BRANCH  27  37
ATOM     37  C   UNL     1      -0.455   1.416   4.074  0.00  0.00    +0.042 C 
BRANCH  37  38
ATOM     38  C   UNL     1       0.253   0.987   2.787  0.00  0.00    +0.071 C 
BRANCH  38  39
ATOM     39  S   UNL     1      -0.635   1.660   1.355  0.00  0.00    -0.164 S 
ATOM     40  C   UNL     1       0.319   1.068  -0.070  0.00  0.00    +0.084 C 
ENDBRANCH  38  39
ENDBRANCH  37  38
ENDBRANCH  27  37
ENDBRANCH  23  27
ENDBRANCH   1  24
TORSDOF 9
