REMARK  Name = ZINC36627225
REMARK  12 active torsions:
REMARK  status: ('A' for Active; 'I' for Inactive)
REMARK    1  A    between atoms: C_1  and  C_2
REMARK    2  A    between atoms: C_2  and  O_3
REMARK    3  A    between atoms: O_3  and  C_4
REMARK    4  A    between atoms: C_4  and  C_6
REMARK    5  A    between atoms: C_7  and  C_20
REMARK    6  A    between atoms: C_12  and  C_14
REMARK    7  A    between atoms: C_20  and  S_21
REMARK    8  A    between atoms: S_21  and  C_22
REMARK    9  A    between atoms: C_25  and  C_28
REMARK   10  A    between atoms: N_26  and  N_27
REMARK   11  A    between atoms: C_31  and  O_34
REMARK   12  A    between atoms: O_34  and  C_35
REMARK                            x       y       z     vdW  Elec       q    Type
REMARK                         _______ _______ _______ _____ _____    ______ ____
ROOT
ATOM      1  C   UNL     1       1.331  -2.340  -2.530  0.00  0.00    +0.079 C 
ATOM      2  C   UNL     1       1.628  -3.654  -2.615  0.00  0.00    +0.034 C 
ATOM      3  N   UNL     1       2.351  -4.147  -3.663  0.00  0.00    -0.272 N 
ATOM      4  C   UNL     1       2.815  -3.390  -4.666  0.00  0.00    +0.304 C 
ATOM      5  O   UNL     1       3.451  -3.920  -5.556  0.00  0.00    -0.252 OA
ATOM      6  N   UNL     1       2.599  -2.061  -4.720  0.00  0.00    -0.288 N 
ATOM      7  C   UNL     1       1.823  -1.432  -3.639  0.00  0.00    +0.144 C 
ATOM      8  H   UNL     1       2.541  -5.098  -3.682  0.00  0.00    +0.156 HD
ATOM      9  H   UNL     1       2.945  -1.532  -5.456  0.00  0.00    +0.151 HD
ENDROOT
BRANCH   7  10
ATOM     10  C   UNL     1       0.623  -0.757  -4.254  0.00  0.00    -0.023 A 
ATOM     11  C   UNL     1      -0.158  -1.437  -5.170  0.00  0.00    +0.006 A 
ATOM     12  C   UNL     1      -1.258  -0.818  -5.734  0.00  0.00    +0.000 A 
ATOM     13  C   UNL     1      -1.577   0.480  -5.381  0.00  0.00    +0.000 A 
ATOM     14  C   UNL     1      -0.796   1.159  -4.465  0.00  0.00    +0.000 A 
ATOM     15  C   UNL     1       0.301   0.539  -3.897  0.00  0.00    +0.006 A 
ENDBRANCH   7  10
BRANCH   1  16
ATOM     16  C   UNL     1       0.580  -1.828  -1.445  0.00  0.00    +0.339 C 
ATOM     17  O   UNL     1       1.144  -1.251  -0.534  0.00  0.00    -0.245 OA
BRANCH  16  18
ATOM     18  O   UNL     1      -0.760  -1.980  -1.421  0.00  0.00    -0.462 OA
BRANCH  18  20
ATOM     19  C   UNL     1      -2.953  -1.707  -0.442  0.00  0.00    +0.048 C 
ATOM     20  C   UNL     1      -1.454  -1.439  -0.295  0.00  0.00    +0.229 C 
ENDBRANCH  18  20
ENDBRANCH  16  18
ENDBRANCH   1  16
BRANCH   2  21
ATOM     21  C   UNL     1       1.153  -4.593  -1.536  0.00  0.00    +0.128 C 
BRANCH  21  22
ATOM     22  S   UNL     1      -0.251  -5.562  -2.152  0.00  0.00    -0.079 S 
BRANCH  22  23
ATOM     23  C   UNL     1      -0.684  -6.596  -0.793  0.00  0.00    +0.209 A 
ATOM     24  N   UNL     1      -0.101  -6.622   0.384  0.00  0.00    -0.121 NA
ATOM     25  N   UNL     1      -0.668  -7.493   1.140  0.00  0.00    -0.127 NA
ATOM     26  C   UNL     1      -1.650  -8.077   0.492  0.00  0.00    +0.182 A 
ATOM     27  N   UNL     1      -1.694  -7.516  -0.764  0.00  0.00    -0.224 N 
BRANCH  26  28
ATOM     28  C   UNL     1      -2.542  -9.133   1.015  0.00  0.00    +0.021 A 
ATOM     29  C   UNL     1      -3.326  -9.885   0.138  0.00  0.00    +0.015 A 
ATOM     30  C   UNL     1      -4.156 -10.869   0.629  0.00  0.00    +0.046 A 
ATOM     31  C   UNL     1      -4.214 -11.113   1.995  0.00  0.00    +0.120 A 
ATOM     32  C   UNL     1      -3.436 -10.367   2.871  0.00  0.00    +0.046 A 
ATOM     33  C   UNL     1      -2.599  -9.385   2.387  0.00  0.00    +0.015 A 
BRANCH  31  34
ATOM     34  O   UNL     1      -5.035 -12.083   2.476  0.00  0.00    -0.495 OA
ATOM     35  C   UNL     1      -5.045 -12.282   3.891  0.00  0.00    +0.277 C 
ENDBRANCH  31  34
ENDBRANCH  26  28
BRANCH  27  36
ATOM     36  N   UNL     1      -2.564  -7.819  -1.773  0.00  0.00    -0.295 N 
ATOM     37  H   UNL     1      -2.200  -8.561  -2.353  0.00  0.00    +0.163 HD
ATOM     38  H   UNL     1      -3.473  -8.059  -1.407  0.00  0.00    +0.163 HD
ENDBRANCH  27  36
ENDBRANCH  22  23
ENDBRANCH  21  22
ENDBRANCH   2  21
TORSDOF 10
