REMARK  Name = ZINC11691410
REMARK  8 active torsions:
REMARK  status: ('A' for Active; 'I' for Inactive)
REMARK    1  A    between atoms: C_1  and  O_2
REMARK    2  A    between atoms: O_2  and  C_3
REMARK    3  A    between atoms: C_3  and  C_5
REMARK    4  A    between atoms: C_6  and  N_35
REMARK    5  A    between atoms: C_12  and  C_33
REMARK    6  A    between atoms: N_22  and  C_25
REMARK    7  A    between atoms: C_25  and  C_26
REMARK    8  A    between atoms: C_33  and  O_34
REMARK                            x       y       z     vdW  Elec       q    Type
REMARK                         _______ _______ _______ _____ _____    ______ ____
ROOT
ATOM      1  C   UNL     1      -0.911  -0.341   4.739  0.00  0.00    +0.120 C 
ATOM      2  C   UNL     1      -1.448  -0.929   5.842  0.00  0.00    +0.196 C 
ATOM      3  O   UNL     1      -1.705  -2.247   5.869  0.00  0.00    -0.434 OA
ATOM      4  C   UNL     1      -1.809  -2.945   4.712  0.00  0.00    +0.216 A 
ATOM      5  C   UNL     1      -2.475  -4.205   4.719  0.00  0.00    +0.228 A 
ATOM      6  O   UNL     1      -2.953  -4.659   5.747  0.00  0.00    -0.284 OA
ATOM      7  C   UNL     1      -2.564  -4.913   3.495  0.00  0.00    +0.098 A 
ATOM      8  C   UNL     1      -2.019  -4.365   2.392  0.00  0.00    +0.134 A 
ATOM      9  O   UNL     1      -1.403  -3.185   2.417  0.00  0.00    -0.457 OA
ATOM     10  C   UNL     1      -1.296  -2.481   3.553  0.00  0.00    +0.175 A 
ATOM     11  C   UNL     1      -0.590  -1.151   3.518  0.00  0.00    +0.171 C 
ATOM     12  C   UNL     1       0.888  -1.339   3.370  0.00  0.00    +0.001 A 
ATOM     13  C   UNL     1       1.815  -1.957   4.182  0.00  0.00    +0.007 A 
ATOM     14  C   UNL     1       3.135  -1.956   3.745  0.00  0.00    +0.000 A 
ATOM     15  C   UNL     1       3.498  -1.362   2.553  0.00  0.00    +0.002 A 
ATOM     16  C   UNL     1       2.571  -0.740   1.732  0.00  0.00    +0.024 A 
ATOM     17  C   UNL     1       1.241  -0.739   2.155  0.00  0.00    +0.042 A 
ATOM     18  N   UNL     1       0.126  -0.193   1.546  0.00  0.00    -0.265 N 
ATOM     19  C   UNL     1      -0.995  -0.391   2.271  0.00  0.00    +0.243 C 
ATOM     20  O   UNL     1      -2.115  -0.028   1.980  0.00  0.00    -0.273 OA
ENDROOT
BRANCH   2  21
ATOM     21  N   UNL     1      -1.731  -0.165   6.942  0.00  0.00    -0.329 N 
ATOM     22  H   UNL     1      -1.567  -0.517   7.832  0.00  0.00    +0.145 HD
ATOM     23  H   UNL     1      -2.095   0.727   6.833  0.00  0.00    +0.145 HD
ENDBRANCH   2  21
BRANCH   1  24
ATOM     24  C   UNL     1      -0.653   1.038   4.745  0.00  0.00    +0.342 C 
ATOM     25  O   UNL     1      -1.017   1.722   5.685  0.00  0.00    -0.245 OA
BRANCH  24  27
ATOM     26  C   UNL     1       0.227   3.016   3.779  0.00  0.00    +0.280 C 
ATOM     27  O   UNL     1      -0.002   1.607   3.707  0.00  0.00    -0.465 OA
ENDBRANCH  24  27
ENDBRANCH   1  24
BRANCH  18  28
ATOM     28  C   UNL     1       0.156   0.511   0.262  0.00  0.00    +0.148 C 
BRANCH  28  29
ATOM     29  C   UNL     1       0.390   1.980   0.500  0.00  0.00    -0.030 A 
ATOM     30  C   UNL     1      -0.685   2.832   0.672  0.00  0.00    +0.006 A 
ATOM     31  C   UNL     1      -0.471   4.179   0.896  0.00  0.00    +0.020 A 
ATOM     32  C   UNL     1       0.819   4.677   0.937  0.00  0.00    +0.041 A 
ATOM     33  C   UNL     1       1.895   3.825   0.759  0.00  0.00    +0.020 A 
ATOM     34  C   UNL     1       1.679   2.477   0.540  0.00  0.00    +0.006 A 
ATOM     35 CL   UNL     1       1.088   6.370   1.210  0.00  0.00    -0.084 Cl
ENDBRANCH  28  29
ENDBRANCH  18  28
BRANCH   8  36
ATOM     36  C   UNL     1      -2.110  -5.112   1.086  0.00  0.00    +0.230 C 
BRANCH  36  37
ATOM     37  O   UNL     1      -3.306  -4.733   0.403  0.00  0.00    -0.387 OA
ATOM     38  H   UNL     1      -3.430  -5.176  -0.448  0.00  0.00    +0.210 HD
ENDBRANCH  36  37
ENDBRANCH   8  36
TORSDOF 7
