REMARK  Name = ZINC20853284
REMARK  6 active torsions:
REMARK  status: ('A' for Active; 'I' for Inactive)
REMARK    1  A    between atoms: N_12  and  C_13
REMARK    2  A    between atoms: C_13  and  C_14
REMARK    3  A    between atoms: C_14  and  O_16
REMARK    4  A    between atoms: O_16  and  C_17
REMARK    5  A    between atoms: C_17  and  C_18
REMARK    6  A    between atoms: N_23  and  C_24
REMARK                            x       y       z     vdW  Elec       q    Type
REMARK                         _______ _______ _______ _____ _____    ______ ____
ROOT
ATOM      1  C   UNL     1      -8.606   0.679   2.110  0.00  0.00    +0.328 C 
ENDROOT
BRANCH   1   2
ATOM      2  C   UNL     1      -7.192   1.201   2.099  0.00  0.00    +0.258 C 
ATOM      3  O   UNL     1      -6.796   1.898   3.008  0.00  0.00    -0.272 OA
ATOM      4  N   UNL     1      -6.368   0.892   1.079  0.00  0.00    -0.237 N 
ATOM      5  C   UNL     1      -5.103   1.358   1.069  0.00  0.00    +0.306 C 
ATOM      6  O   UNL     1      -4.707   2.057   1.980  0.00  0.00    -0.252 OA
ATOM      7  N   UNL     1      -4.279   1.049   0.049  0.00  0.00    -0.294 N 
ATOM      8  H   UNL     1      -6.727   0.259   0.254  0.00  0.00    +0.159 HD
ATOM      9  H   UNL     1      -4.638   0.417  -0.776  0.00  0.00    +0.151 HD
BRANCH   7  10
ATOM     10  C   UNL     1      -2.904   1.556   0.038  0.00  0.00    +0.037 C 
ATOM     11  C   UNL     1      -2.188   1.063  -1.221  0.00  0.00    +0.029 C 
ATOM     12  C   UNL     1      -0.753   1.593  -1.232  0.00  0.00    -0.008 C 
ATOM     13  C   UNL     1      -0.013   1.086   0.008  0.00  0.00    +0.007 C 
ATOM     14  C   UNL     1      -0.729   1.579   1.267  0.00  0.00    -0.008 C 
ATOM     15  C   UNL     1      -2.164   1.050   1.278  0.00  0.00    +0.029 C 
ATOM     16  C   UNL     1      -0.750   3.109   1.275  0.00  0.00    +0.007 C 
ATOM     17  C   UNL     1      -1.490   3.616   0.036  0.00  0.00    -0.008 C 
ATOM     18  C   UNL     1      -0.773   3.123  -1.223  0.00  0.00    +0.007 C 
ATOM     19  C   UNL     1      -2.925   3.086   0.047  0.00  0.00    +0.029 C 
ENDBRANCH   7  10
ENDBRANCH   1   2
BRANCH   1  20
ATOM     20  O   UNL     1      -9.286   1.147   3.304  0.00  0.00    -0.454 OA
BRANCH  20  21
ATOM     21  C   UNL     1     -10.563   0.768   3.467  0.00  0.00    +0.325 C 
ATOM     22  O   UNL     1     -11.096   0.069   2.638  0.00  0.00    -0.249 OA
BRANCH  21  23
ATOM     23  C   UNL     1     -11.333   1.216   4.683  0.00  0.00    +0.224 C 
BRANCH  23  35
ATOM     24  C   UNL     1     -16.889  -0.792   4.798  0.00  0.00    +0.001 A 
ATOM     25  C   UNL     1     -17.615  -0.393   5.906  0.00  0.00    +0.002 A 
ATOM     26  C   UNL     1     -17.013   0.411   6.864  0.00  0.00    +0.030 A 
ATOM     27  C   UNL     1     -15.715   0.798   6.701  0.00  0.00    +0.123 A 
ATOM     28  C   UNL     1     -14.956   0.415   5.586  0.00  0.00    +0.043 A 
ATOM     29  C   UNL     1     -15.579  -0.403   4.631  0.00  0.00    +0.013 A 
ATOM     30  C   UNL     1     -13.587   0.951   5.637  0.00  0.00    +0.150 C 
ATOM     31  N   UNL     1     -13.233   1.690   6.640  0.00  0.00    -0.113 NA
ATOM     32  S   UNL     1     -14.578   1.787   7.632  0.00  0.00    +0.101 S 
ATOM     33  O   UNL     1     -14.280   1.089   8.834  0.00  0.00    -0.146 OA
ATOM     34  O   UNL     1     -15.043   3.129   7.601  0.00  0.00    -0.146 OA
ATOM     35  N   UNL     1     -12.693   0.674   4.626  0.00  0.00    -0.317 N 
ATOM     36  H   UNL     1     -13.000   0.046   3.777  0.00  0.00    +0.148 HD
ENDBRANCH  23  35
ENDBRANCH  21  23
ENDBRANCH  20  21
ENDBRANCH   1  20
TORSDOF 6
