REMARK  Name = ZINC42085836
REMARK  7 active torsions:
REMARK  status: ('A' for Active; 'I' for Inactive)
REMARK    1  A    between atoms: C_1  and  C_2
REMARK    2  A    between atoms: C_8  and  N_10
REMARK    3  A    between atoms: N_10  and  C_11
REMARK    4  A    between atoms: C_11  and  N_13
REMARK    5  A    between atoms: N_13  and  N_14
REMARK    6  A    between atoms: C_15  and  C_17
REMARK    7  A    between atoms: C_17  and  C_18
REMARK                            x       y       z     vdW  Elec       q    Type
REMARK                         _______ _______ _______ _____ _____    ______ ____
ROOT
ATOM      1  N   UNL     1       4.059   0.594   2.379  0.00  0.00    -0.246 N 
ATOM      2  H   UNL     1       4.548   0.689   3.211  0.00  0.00    +0.172 HD
ENDROOT
BRANCH   1   3
ATOM      3  N   UNL     1       4.668   0.942   1.166  0.00  0.00    -0.235 N 
ATOM      4  C   UNL     1       5.933   1.409   1.156  0.00  0.00    +0.233 C 
ATOM      5  O   UNL     1       6.543   1.527   2.198  0.00  0.00    -0.274 OA
ATOM      6  H   UNL     1       4.180   0.848   0.333  0.00  0.00    +0.173 HD
BRANCH   4   7
ATOM      7  C   UNL     1       6.588   1.783  -0.148  0.00  0.00    +0.132 C 
BRANCH   7   8
ATOM      8  C   UNL     1       7.989   2.272   0.116  0.00  0.00    -0.039 A 
ATOM      9  C   UNL     1       8.219   3.614   0.356  0.00  0.00    +0.005 A 
ATOM     10  C   UNL     1       9.503   4.063   0.599  0.00  0.00    +0.015 A 
ATOM     11  C   UNL     1      10.559   3.169   0.600  0.00  0.00    +0.018 A 
ATOM     12  C   UNL     1      10.329   1.827   0.359  0.00  0.00    +0.015 A 
ATOM     13  C   UNL     1       9.043   1.378   0.122  0.00  0.00    +0.005 A 
ATOM     14 BR   UNL     1      12.317   3.783   0.931  0.00  0.00    -0.050 Br
ENDBRANCH   7   8
ENDBRANCH   4   7
ENDBRANCH   1   3
BRANCH   1  15
ATOM     15  C   UNL     1       2.795   0.128   2.388  0.00  0.00    +0.147 C 
ATOM     16  S   UNL     1       2.051  -0.298   3.870  0.00  0.00    -0.017 S 
BRANCH  15  17
ATOM     17  N   UNL     1       2.116  -0.004   1.231  0.00  0.00    -0.322 N 
ATOM     18  H   UNL     1       2.538   0.237   0.392  0.00  0.00    +0.148 HD
BRANCH  17  25
ATOM     19  C   UNL     1      -0.019   1.526   0.010  0.00  0.00    +0.009 C 
ATOM     20  C   UNL     1       0.002  -0.004   0.002  0.00  0.00    +0.006 C 
ATOM     21  C   UNL     1       0.718  -0.497  -1.257  0.00  0.00    +0.005 C 
ATOM     22  C   UNL     1       0.739  -2.027  -1.265  0.00  0.00    +0.000 C 
ATOM     23  C   UNL     1       1.479  -2.534  -0.026  0.00  0.00    +0.002 C 
ATOM     24  C   UNL     1       0.763  -2.041   1.233  0.00  0.00    +0.022 C 
ATOM     25  C   UNL     1       0.742  -0.511   1.242  0.00  0.00    +0.075 C 
ENDBRANCH  17  25
ENDBRANCH  15  17
ENDBRANCH   1  15
TORSDOF 6
