REMARK  Name = ZINC65699107
REMARK  8 active torsions:
REMARK  status: ('A' for Active; 'I' for Inactive)
REMARK    1  A    between atoms: C_1  and  C_2
REMARK    2  A    between atoms: C_5  and  C_9
REMARK    3  A    between atoms: C_6  and  C_8
REMARK    4  A    between atoms: C_9  and  C_10
REMARK    5  A    between atoms: C_10  and  N_11
REMARK    6  A    between atoms: N_14  and  N_15
REMARK    7  A    between atoms: C_16  and  C_18
REMARK    8  A    between atoms: C_18  and  C_19
REMARK                            x       y       z     vdW  Elec       q    Type
REMARK                         _______ _______ _______ _____ _____    ______ ____
ROOT
ATOM      1  N   UNL     1      -1.351  -6.269   0.101  0.00  0.00    -0.298 N 
ATOM      2  C   UNL     1      -2.505  -6.959   0.206  0.00  0.00    +0.316 C 
ATOM      3  O   UNL     1      -3.561  -6.365   0.306  0.00  0.00    -0.251 OA
ATOM      4  N   UNL     1      -2.487  -8.306   0.198  0.00  0.00    -0.218 N 
ATOM      5  H   UNL     1      -0.509  -6.743   0.021  0.00  0.00    +0.150 HD
ATOM      6  H   UNL     1      -3.317  -8.803   0.273  0.00  0.00    +0.174 HD
ENDROOT
BRANCH   4   7
ATOM      7  N   UNL     1      -1.270  -8.991   0.082  0.00  0.00    -0.233 N 
ATOM      8  C   UNL     1      -1.253 -10.338   0.075  0.00  0.00    +0.234 C 
ATOM      9  O   UNL     1      -2.291 -10.959   0.169  0.00  0.00    -0.274 OA
ATOM     10  H   UNL     1      -0.440  -8.495   0.007  0.00  0.00    +0.173 HD
BRANCH   8  11
ATOM     11  C   UNL     1       0.056 -11.074  -0.050  0.00  0.00    +0.134 C 
BRANCH  11  12
ATOM     12  C   UNL     1      -0.199 -12.559  -0.033  0.00  0.00    -0.014 A 
ATOM     13  C   UNL     1      -0.148 -13.366   1.039  0.00  0.00    +0.087 A 
ATOM     14  N   UNL     1      -0.437 -14.651   0.670  0.00  0.00    -0.360 N 
ATOM     15  H   UNL     1      -0.462 -15.412   1.272  0.00  0.00    +0.165 HD
ATOM     16  C   UNL     1      -0.688 -14.705  -0.683  0.00  0.00    +0.047 A 
ATOM     17  C   UNL     1      -0.556 -13.396  -1.182  0.00  0.00    +0.003 A 
ATOM     18  C   UNL     1      -0.761 -13.143  -2.539  0.00  0.00    +0.010 A 
ATOM     19  C   UNL     1      -1.094 -14.170  -3.377  0.00  0.00    +0.001 A 
ATOM     20  C   UNL     1      -1.229 -15.463  -2.890  0.00  0.00    +0.002 A 
ATOM     21  C   UNL     1      -1.022 -15.736  -1.555  0.00  0.00    +0.026 A 
ENDBRANCH  11  12
ENDBRANCH   8  11
ENDBRANCH   4   7
BRANCH   1  22
ATOM     22  C   UNL     1      -1.370  -4.804   0.109  0.00  0.00    +0.110 C 
BRANCH  22  23
ATOM     23  C   UNL     1       0.059  -4.275  -0.021  0.00  0.00    +0.054 C 
BRANCH  23  28
ATOM     24  C   UNL     1      -0.018   1.503   0.010  0.00  0.00    +0.044 C 
ATOM     25  C   UNL     1       0.002  -0.004   0.002  0.00  0.00    -0.050 A 
ATOM     26  C   UNL     1       0.006  -0.689  -1.199  0.00  0.00    +0.003 A 
ATOM     27  C   UNL     1       0.025  -2.071  -1.207  0.00  0.00    +0.004 A 
ATOM     28  C   UNL     1       0.040  -2.768  -0.013  0.00  0.00    -0.043 A 
ATOM     29  C   UNL     1       0.037  -2.084   1.188  0.00  0.00    -0.047 A 
ATOM     30  C   UNL     1       0.023  -0.702   1.195  0.00  0.00    +0.007 A 
ATOM     31  C   UNL     1       0.054  -2.845   2.489  0.00  0.00    +0.044 C 
ENDBRANCH  23  28
ENDBRANCH  22  23
ENDBRANCH   1  22
TORSDOF 6
