REMARK  Name = ZINC31810387
REMARK  2 active torsions:
REMARK  status: ('A' for Active; 'I' for Inactive)
REMARK    1  A    between atoms: C_1  and  C_2
REMARK    2  A    between atoms: C_22  and  C_24
REMARK                            x       y       z     vdW  Elec       q    Type
REMARK                         _______ _______ _______ _____ _____    ______ ____
ROOT
ATOM      1  C   UNL     1      -0.057   1.439   0.025  0.00  0.00    +0.068 C 
ATOM      2  C   UNL     1       0.008  -0.066  -0.024  0.00  0.00    +0.067 A 
ATOM      3  C   UNL     1      -0.027  -0.851  -1.197  0.00  0.00    +0.033 A 
ATOM      4  C   UNL     1       0.053  -2.148  -0.829  0.00  0.00    +0.135 A 
ATOM      5  N   UNL     1       0.138  -2.171   0.547  0.00  0.00    -0.197 N 
ATOM      6  N   UNL     1       0.111  -0.854   1.007  0.00  0.00    -0.168 NA
ATOM      7  C   UNL     1       0.240  -3.311   1.341  0.00  0.00    +0.187 A 
ATOM      8  C   UNL     1      -0.560  -3.464   2.484  0.00  0.00    +0.152 A 
ATOM      9  C   UNL     1      -0.413  -4.638   3.246  0.00  0.00    +0.163 A 
ATOM     10  N   UNL     1      -1.300  -4.526   4.287  0.00  0.00    -0.329 N 
ATOM     11  H   UNL     1      -1.442  -5.176   4.993  0.00  0.00    +0.168 HD
ATOM     12  C   UNL     1      -1.946  -3.334   4.147  0.00  0.00    +0.198 A 
ATOM     13  N   UNL     1      -1.511  -2.713   3.089  0.00  0.00    -0.231 NA
ATOM     14  N   UNL     1       0.470  -5.551   2.859  0.00  0.00    -0.216 NA
ATOM     15  C   UNL     1       1.198  -5.364   1.779  0.00  0.00    +0.226 A 
ATOM     16  N   UNL     1       1.091  -4.282   1.030  0.00  0.00    -0.214 NA
ATOM     17  N   UNL     1       0.055  -3.311  -1.560  0.00  0.00    -0.269 N 
ATOM     18  C   UNL     1       0.035  -3.598  -2.827  0.00  0.00    +0.228 C 
ATOM     19  O   UNL     1       0.154  -4.778  -3.084  0.00  0.00    -0.275 OA
ATOM     20  C   UNL     1      -0.110  -2.717  -4.004  0.00  0.00    +0.166 C 
ATOM     21  S   UNL     1       0.757  -1.152  -3.821  0.00  0.00    -0.138 S 
ATOM     22  C   UNL     1      -0.134  -0.238  -2.559  0.00  0.00    +0.113 C 
ATOM     23  H   UNL     1       0.077  -4.102  -0.999  0.00  0.00    +0.156 HD
ENDROOT
BRANCH  22  24
ATOM     24  C   UNL     1       0.412   1.165  -2.501  0.00  0.00    -0.016 A 
ATOM     25  C   UNL     1       1.743   1.377  -2.194  0.00  0.00    +0.006 A 
ATOM     26  C   UNL     1       2.245   2.664  -2.142  0.00  0.00    +0.000 A 
ATOM     27  C   UNL     1       1.415   3.740  -2.397  0.00  0.00    +0.001 A 
ATOM     28  C   UNL     1       0.085   3.530  -2.705  0.00  0.00    +0.015 A 
ATOM     29  C   UNL     1      -0.416   2.241  -2.762  0.00  0.00    +0.022 A 
ATOM     30 BR   UNL     1      -2.236   1.952  -3.190  0.00  0.00    -0.050 Br
ENDBRANCH  22  24
TORSDOF 1
