REMARK  Name = ZINC38064923
REMARK  7 active torsions:
REMARK  status: ('A' for Active; 'I' for Inactive)
REMARK    1  A    between atoms: C_1  and  C_2
REMARK    2  A    between atoms: C_2  and  C_3
REMARK    3  A    between atoms: C_3  and  C_5
REMARK    4  A    between atoms: C_3  and  N_6
REMARK    5  A    between atoms: N_6  and  C_7
REMARK    6  A    between atoms: C_7  and  C_9
REMARK    7  A    between atoms: C_7  and  C_17
REMARK                            x       y       z     vdW  Elec       q    Type
REMARK                         _______ _______ _______ _____ _____    ______ ____
ROOT
ATOM      1  C   UNL     1      -3.518  -0.551  -1.173  0.00  0.00    +0.050 C 
ENDROOT
BRANCH   1   2
ATOM      2  C   UNL     1      -4.180  -0.266  -2.497  0.00  0.00    -0.016 A 
ATOM      3  C   UNL     1      -3.610   0.637  -3.374  0.00  0.00    +0.020 A 
ATOM      4  C   UNL     1      -4.217   0.899  -4.589  0.00  0.00    +0.018 A 
ATOM      5  C   UNL     1      -5.394   0.256  -4.928  0.00  0.00    +0.018 A 
ATOM      6  C   UNL     1      -5.965  -0.647  -4.052  0.00  0.00    +0.039 A 
ATOM      7  C   UNL     1      -5.355  -0.914  -2.837  0.00  0.00    +0.125 A 
ATOM      8  F   UNL     1      -5.909  -1.801  -1.983  0.00  0.00    -0.205 F 
ATOM      9 BR   UNL     1      -3.437   2.136  -5.788  0.00  0.00    -0.050 Br
ENDBRANCH   1   2
BRANCH   1  10
ATOM     10  C   UNL     1      -4.216   0.225  -0.086  0.00  0.00    +0.201 C 
ATOM     11  O   UNL     1      -3.599   1.034   0.574  0.00  0.00    -0.277 OA
ATOM     12  N   UNL     1      -5.527   0.019   0.154  0.00  0.00    -0.330 N 
ATOM     13  H   UNL     1      -6.020  -0.628  -0.374  0.00  0.00    +0.145 HD
ATOM     14  H   UNL     1      -5.976   0.518   0.854  0.00  0.00    +0.145 HD
ENDBRANCH   1  10
BRANCH   1  15
ATOM     15  N   UNL     1      -2.107  -0.147  -1.234  0.00  0.00    +0.391 N 
ATOM     16  H   UNL     1      -2.048   0.853  -1.352  0.00  0.00    -0.084 HD
ATOM     17  H   UNL     1      -1.660  -0.605  -2.014  0.00  0.00    -0.084 HD
BRANCH  15  18
ATOM     18  C   UNL     1      -1.433  -0.534   0.013  0.00  0.00    -0.074 C 
ATOM     19  C   UNL     1      -1.413  -2.059   0.130  0.00  0.00    -0.014 C 
BRANCH  18  21
ATOM     20  C   UNL     1      -0.019   1.526   0.010  0.00  0.00    +0.002 C 
ATOM     21  C   UNL     1       0.002  -0.004   0.002  0.00  0.00    -0.019 C 
ENDBRANCH  18  21
ENDBRANCH  15  18
ENDBRANCH   1  15
TORSDOF 5
