REMARK  Name = ZINC08965781
REMARK  7 active torsions:
REMARK  status: ('A' for Active; 'I' for Inactive)
REMARK    1  A    between atoms: C_5  and  N_7
REMARK    2  A    between atoms: N_7  and  S_8
REMARK    3  A    between atoms: S_8  and  C_11
REMARK    4  A    between atoms: C_14  and  C_17
REMARK    5  A    between atoms: C_18  and  C_19
REMARK    6  A    between atoms: N_24  and  C_27
REMARK    7  A    between atoms: C_30  and  O_33
REMARK                            x       y       z     vdW  Elec       q    Type
REMARK                         _______ _______ _______ _____ _____    ______ ____
ROOT
ATOM      1  C   UNL     1      -1.122  -1.974   2.458  0.00  0.00    +0.109 A 
ATOM      2  C   UNL     1       0.128  -1.976   3.053  0.00  0.00    +0.029 A 
ATOM      3  C   UNL     1       0.248  -1.783   4.413  0.00  0.00    +0.010 A 
ATOM      4  C   UNL     1      -0.897  -1.595   5.193  0.00  0.00    -0.025 A 
ATOM      5  C   UNL     1      -2.157  -1.599   4.585  0.00  0.00    +0.010 A 
ATOM      6  C   UNL     1      -2.260  -1.788   3.224  0.00  0.00    +0.029 A 
ENDROOT
BRANCH   1   7
ATOM      7  S   UNL     1      -1.265  -2.216   0.719  0.00  0.00    +0.072 S 
ATOM      8  O   UNL     1      -2.572  -2.721   0.485  0.00  0.00    -0.150 OA
ATOM      9  O   UNL     1      -0.095  -2.910   0.308  0.00  0.00    -0.150 OA
BRANCH   7  10
ATOM     10  N   UNL     1      -1.202  -0.720   0.010  0.00  0.00    -0.215 N 
ATOM     11  H   UNL     1      -1.948  -0.404  -0.523  0.00  0.00    +0.174 HD
BRANCH  10  16
ATOM     12  C   UNL     1       2.302   0.313   0.414  0.00  0.00    +0.002 A 
ATOM     13  C   UNL     1       2.161   1.684   0.517  0.00  0.00    +0.002 A 
ATOM     14  C   UNL     1       0.906   2.260   0.452  0.00  0.00    +0.022 A 
ATOM     15  C   UNL     1      -0.213   1.466   0.284  0.00  0.00    +0.063 A 
ATOM     16  C   UNL     1      -0.074   0.087   0.180  0.00  0.00    +0.066 A 
ATOM     17  C   UNL     1       1.189  -0.488   0.246  0.00  0.00    +0.026 A 
ATOM     18 CL   UNL     1      -1.788   2.189   0.196  0.00  0.00    -0.082 Cl
ENDBRANCH  10  16
ENDBRANCH   7  10
ENDBRANCH   1   7
BRANCH   4  19
ATOM     19  C   UNL     1      -0.778  -1.393   6.646  0.00  0.00    +0.013 C 
ATOM     20  C   UNL     1       0.438  -1.390   7.229  0.00  0.00    +0.068 C 
BRANCH  20  21
ATOM     21  C   UNL     1       0.557  -1.189   8.674  0.00  0.00    +0.240 C 
ATOM     22  O   UNL     1      -0.444  -1.115   9.363  0.00  0.00    -0.271 OA
ATOM     23  N   UNL     1       1.774  -1.088   9.243  0.00  0.00    -0.295 N 
ATOM     24  C   UNL     1       1.916  -0.772  10.672  0.00  0.00    +0.127 C 
ATOM     25  C   UNL     1       2.849  -1.816  11.307  0.00  0.00    +0.124 C 
ATOM     26  N   UNL     1       4.109  -1.861  10.553  0.00  0.00    -0.327 N 
ATOM     27  C   UNL     1       3.887  -2.303   9.170  0.00  0.00    +0.124 C 
ATOM     28  C   UNL     1       2.997  -1.284   8.449  0.00  0.00    +0.127 C 
BRANCH  26  29
ATOM     29  C   UNL     1       5.048  -2.677  11.195  0.00  0.00    +0.030 A 
ATOM     30  C   UNL     1       5.625  -3.741  10.514  0.00  0.00    +0.027 A 
ATOM     31  C   UNL     1       6.555  -4.542  11.147  0.00  0.00    +0.047 A 
ATOM     32  C   UNL     1       6.905  -4.290  12.465  0.00  0.00    +0.117 A 
ATOM     33  C   UNL     1       6.326  -3.231  13.148  0.00  0.00    +0.047 A 
ATOM     34  C   UNL     1       5.399  -2.426  12.515  0.00  0.00    +0.027 A 
BRANCH  32  35
ATOM     35  O   UNL     1       7.817  -5.083  13.089  0.00  0.00    -0.507 OA
ATOM     36  H   UNL     1       7.431  -5.844  13.543  0.00  0.00    +0.292 HD
ENDBRANCH  32  35
ENDBRANCH  26  29
ENDBRANCH  20  21
ENDBRANCH   4  19
TORSDOF 7
