REMARK  Name = ZINC33709678
REMARK  6 active torsions:
REMARK  status: ('A' for Active; 'I' for Inactive)
REMARK    1  A    between atoms: C_1  and  C_2
REMARK    2  A    between atoms: C_2  and  C_32
REMARK    3  A    between atoms: C_7  and  C_10
REMARK    4  A    between atoms: C_15  and  O_16
REMARK    5  A    between atoms: N_20  and  C_23
REMARK    6  A    between atoms: C_27  and  N_29
REMARK                            x       y       z     vdW  Elec       q    Type
REMARK                         _______ _______ _______ _____ _____    ______ ____
ROOT
ATOM      1  C   UNL     1      -5.547   5.844   0.608  0.00  0.00    +0.002 C 
ATOM      2  C   UNL     1      -5.186   4.609  -0.218  0.00  0.00    +0.045 C 
ATOM      3  C   UNL     1      -4.474   5.024  -1.523  0.00  0.00    +0.086 C 
ATOM      4  C   UNL     1      -2.959   4.927  -1.198  0.00  0.00    +0.077 C 
ATOM      5  C   UNL     1      -2.899   4.463   0.272  0.00  0.00    -0.023 C 
ATOM      6  N   UNL     1      -4.194   3.772   0.503  0.00  0.00    +0.395 N 
ATOM      7  C   UNL     1      -2.481   3.807  -2.094  0.00  0.00    +0.229 C 
ATOM      8  O   UNL     1      -1.341   3.399  -2.157  0.00  0.00    -0.275 OA
ATOM      9  N   UNL     1      -3.511   3.337  -2.806  0.00  0.00    -0.210 N 
ATOM     10  C   UNL     1      -4.677   3.948  -2.565  0.00  0.00    +0.229 C 
ATOM     11  O   UNL     1      -5.732   3.680  -3.099  0.00  0.00    -0.275 OA
ATOM     12  H   UNL     1      -4.455   3.732   1.571  0.00  0.00    -0.083 HD
ATOM     13  H   UNL     1      -4.199   2.755   0.086  0.00  0.00    -0.083 HD
ENDROOT
BRANCH   5  14
ATOM     14  C   UNL     1      -1.751   3.507   0.474  0.00  0.00    -0.018 A 
ATOM     15  C   UNL     1      -1.964   2.144   0.395  0.00  0.00    +0.020 A 
ATOM     16  C   UNL     1      -0.912   1.266   0.585  0.00  0.00    +0.018 A 
ATOM     17  C   UNL     1       0.358   1.751   0.843  0.00  0.00    +0.019 A 
ATOM     18  C   UNL     1       0.576   3.113   0.917  0.00  0.00    +0.047 A 
ATOM     19  C   UNL     1      -0.479   3.995   0.732  0.00  0.00    +0.119 A 
ATOM     20 BR   UNL     1      -1.209  -0.599   0.485  0.00  0.00    -0.050 Br
BRANCH  19  21
ATOM     21  O   UNL     1      -0.266   5.335   0.803  0.00  0.00    -0.507 OA
ATOM     22  H   UNL     1       0.744   5.722   1.008  0.00  0.00    +0.292 HD
ENDBRANCH  19  21
ENDBRANCH   5  14
BRANCH   9  23
ATOM     23  C   UNL     1      -3.380   2.291  -3.730  0.00  0.00    +0.046 A 
ATOM     24  C   UNL     1      -3.990   1.068  -3.488  0.00  0.00    +0.024 A 
ATOM     25  C   UNL     1      -3.860   0.040  -4.400  0.00  0.00    +0.004 A 
ATOM     26  C   UNL     1      -3.121   0.227  -5.554  0.00  0.00    +0.033 A 
ATOM     27  C   UNL     1      -2.512   1.444  -5.798  0.00  0.00    +0.128 A 
ATOM     28  C   UNL     1      -2.644   2.478  -4.892  0.00  0.00    +0.056 A 
BRANCH  27  29
ATOM     29  N   UNL     1      -1.722   1.641  -7.035  0.00  0.00    +0.056 N 
ATOM     30  O   UNL     1      -1.609   0.731  -7.836  0.00  0.00    -0.126 OA
ATOM     31  O   UNL     1      -1.185   2.712  -7.250  0.00  0.00    -0.126 OA
ENDBRANCH  27  29
ENDBRANCH   9  23
BRANCH   2  32
ATOM     32  C   UNL     1      -6.423   3.806  -0.528  0.00  0.00    +0.346 C 
ATOM     33  O   UNL     1      -7.492   4.359  -0.636  0.00  0.00    -0.248 OA
ATOM     34  O   UNL     1      -6.338   2.475  -0.685  0.00  0.00    -0.248 OA
ENDBRANCH   2  32
TORSDOF 5
