REMARK  Name = ZINC14246201
REMARK  13 active torsions:
REMARK  status: ('A' for Active; 'I' for Inactive)
REMARK    1  A    between atoms: C_1  and  C_2
REMARK    2  A    between atoms: C_2  and  O_3
REMARK    3  A    between atoms: O_3  and  C_4
REMARK    4  A    between atoms: C_4  and  C_6
REMARK    5  A    between atoms: C_10  and  N_11
REMARK    6  A    between atoms: C_12  and  C_14
REMARK    7  A    between atoms: C_14  and  C_16
REMARK    8  A    between atoms: C_14  and  O_17
REMARK    9  A    between atoms: O_17  and  C_18
REMARK   10  A    between atoms: C_18  and  C_20
REMARK   11  A    between atoms: C_24  and  C_30
REMARK   12  A    between atoms: C_26  and  C_29
REMARK   13  A    between atoms: C_32  and  C_36
REMARK                            x       y       z     vdW  Elec       q    Type
REMARK                         _______ _______ _______ _____ _____    ______ ____
ROOT
ATOM      1  N   UNL     1      -1.072  -0.880   0.008  0.00  0.00    -0.276 N 
ATOM      2  C   UNL     1      -2.332  -0.402   0.023  0.00  0.00    +0.258 C 
ATOM      3  O   UNL     1      -2.526   0.796   0.032  0.00  0.00    -0.271 OA
ATOM      4  H   UNL     1      -0.917  -1.838   0.001  0.00  0.00    +0.155 HD
ENDROOT
BRANCH   1   9
ATOM      5  C   UNL     1       1.358  -0.302  -0.013  0.00  0.00    +0.091 A 
ATOM      6  C   UNL     1       2.290   0.814  -0.016  0.00  0.00    -0.021 A 
ATOM      7  C   UNL     1       1.722   2.038  -0.003  0.00  0.00    -0.004 A 
ATOM      8  S   UNL     1      -0.021   1.728   0.011  0.00  0.00    -0.077 S 
ATOM      9  C   UNL     1       0.002  -0.004   0.002  0.00  0.00    +0.086 A 
ATOM     10  C   UNL     1       2.425   3.361  -0.002  0.00  0.00    +0.046 C 
ATOM     11  C   UNL     1       3.898   3.125   0.361  0.00  0.00    -0.009 C 
ATOM     12  C   UNL     1       4.436   1.969  -0.488  0.00  0.00    +0.008 C 
ATOM     13  C   UNL     1       3.805   0.652  -0.032  0.00  0.00    +0.037 C 
ATOM     14  C   UNL     1       4.706   4.393   0.077  0.00  0.00    +0.008 C 
BRANCH   5  15
ATOM     15  C   UNL     1       1.832  -1.688  -0.025  0.00  0.00    +0.342 C 
ATOM     16  O   UNL     1       2.018  -2.257  -1.084  0.00  0.00    -0.245 OA
BRANCH  15  17
ATOM     17  O   UNL     1       2.062  -2.332   1.137  0.00  0.00    -0.461 OA
BRANCH  17  19
ATOM     18  C   UNL     1       2.733  -4.265   2.458  0.00  0.00    +0.048 C 
ATOM     19  C   UNL     1       2.530  -3.704   1.049  0.00  0.00    +0.229 C 
ENDBRANCH  17  19
ENDBRANCH  15  17
ENDBRANCH   5  15
ENDBRANCH   1   9
BRANCH   2  20
ATOM     20  C   UNL     1      -3.500  -1.354   0.029  0.00  0.00    +0.259 C 
ATOM     21  C   UNL     1      -3.497  -2.156   1.332  0.00  0.00    +0.062 C 
BRANCH  20  22
ATOM     22  O   UNL     1      -4.738  -0.602  -0.073  0.00  0.00    -0.446 OA
BRANCH  22  23
ATOM     23  C   UNL     1      -5.773  -1.210  -0.684  0.00  0.00    +0.379 C 
ATOM     24  O   UNL     1      -5.645  -2.336  -1.119  0.00  0.00    -0.241 OA
BRANCH  23  25
ATOM     25  C   UNL     1      -7.067  -0.504  -0.826  0.00  0.00    +0.261 A 
ATOM     26  N   UNL     1      -7.326   0.729  -0.384  0.00  0.00    -0.183 NA
ATOM     27  C   UNL     1      -8.576   1.055  -0.676  0.00  0.00    +0.254 A 
ATOM     28  N   UNL     1      -9.296   2.163  -0.450  0.00  0.00    -0.216 NA
ATOM     29  C   UNL     1     -10.546   2.245  -0.841  0.00  0.00    +0.044 A 
ATOM     30  C   UNL     1     -11.153   1.170  -1.506  0.00  0.00    +0.046 A 
ATOM     31  C   UNL     1     -10.434   0.044  -1.739  0.00  0.00    +0.045 A 
ATOM     32  N   UNL     1      -9.139  -0.012  -1.322  0.00  0.00    -0.200 N 
ATOM     33  N   UNL     1      -8.146  -0.998  -1.403  0.00  0.00    -0.137 NA
ATOM     34  C   UNL     1     -11.059  -1.128  -2.451  0.00  0.00    +0.066 C 
ATOM     35  C   UNL     1     -11.333   3.502  -0.575  0.00  0.00    +0.066 C 
ENDBRANCH  23  25
ENDBRANCH  22  23
ENDBRANCH  20  22
ENDBRANCH   2  20
TORSDOF 8
