REMARK  Name = ZINC21137094
REMARK  7 active torsions:
REMARK  status: ('A' for Active; 'I' for Inactive)
REMARK    1  A    between atoms: C_1  and  N_2
REMARK    2  A    between atoms: C_3  and  C_24
REMARK    3  A    between atoms: C_6  and  S_7
REMARK    4  A    between atoms: S_7  and  C_8
REMARK    5  A    between atoms: C_8  and  C_9
REMARK    6  A    between atoms: N_11  and  C_12
REMARK    7  A    between atoms: C_13  and  C_21
REMARK                            x       y       z     vdW  Elec       q    Type
REMARK                         _______ _______ _______ _____ _____    ______ ____
ROOT
ATOM      1  C   UNL     1       0.311  -4.800   0.037  0.00  0.00    +0.173 C 
ENDROOT
BRANCH   1   2
ATOM      2  C   UNL     1       0.910  -6.176   0.178  0.00  0.00    +0.228 C 
ATOM      3  O   UNL     1       2.078  -6.301   0.478  0.00  0.00    -0.275 OA
ATOM      4  N   UNL     1       0.147  -7.268  -0.028  0.00  0.00    -0.279 N 
ATOM      5  H   UNL     1      -0.913  -7.154  -0.300  0.00  0.00    +0.155 HD
BRANCH   4   6
ATOM      6  C   UNL     1       0.698  -8.533   0.102  0.00  0.00    +0.084 A 
ATOM      7  C   UNL     1       0.080  -9.764  -0.069  0.00  0.00    +0.068 A 
ATOM      8  C   UNL     1       0.890 -10.955   0.128  0.00  0.00    -0.023 A 
ATOM      9  C   UNL     1       2.178 -10.725   0.461  0.00  0.00    -0.004 A 
ATOM     10  S   UNL     1       2.326  -8.962   0.509  0.00  0.00    -0.077 S 
ATOM     11  C   UNL     1       3.239 -11.749   0.725  0.00  0.00    +0.043 C 
ATOM     12  C   UNL     1       2.557 -13.110   0.929  0.00  0.00    +0.005 C 
ATOM     13  C   UNL     1       1.543 -13.327  -0.198  0.00  0.00    +0.005 C 
ATOM     14  C   UNL     1       0.359 -12.375  -0.023  0.00  0.00    +0.037 C 
BRANCH   7  15
ATOM     15  C   UNL     1      -1.337  -9.860  -0.433  0.00  0.00    +0.244 C 
ATOM     16  O   UNL     1      -1.663  -9.890  -1.605  0.00  0.00    -0.270 OA
ATOM     17  N   UNL     1      -2.278  -9.915   0.530  0.00  0.00    -0.325 N 
ATOM     18  H   UNL     1      -3.341  -9.986   0.257  0.00  0.00    +0.145 HD
ATOM     19  H   UNL     1      -1.983  -9.887   1.589  0.00  0.00    +0.145 HD
ENDBRANCH   7  15
ENDBRANCH   4   6
ENDBRANCH   1   2
BRANCH   1  20
ATOM     20  S   UNL     1       1.578  -3.553   0.374  0.00  0.00    -0.077 S 
BRANCH  20  26
ATOM     21  C   UNL     1       2.437  -0.368   0.614  0.00  0.00    +0.153 C 
ATOM     22  N   UNL     1       1.081  -0.801   0.267  0.00  0.00    -0.306 N 
ATOM     23  C   UNL     1       0.002  -0.004   0.002  0.00  0.00    +0.178 A 
ATOM     24  N   UNL     1      -1.004  -0.788  -0.265  0.00  0.00    -0.130 NA
ATOM     25  N   UNL     1      -0.638  -2.018  -0.182  0.00  0.00    -0.122 NA
ATOM     26  C   UNL     1       0.632  -2.085   0.144  0.00  0.00    +0.192 A 
BRANCH  23  27
ATOM     27  C   UNL     1      -0.018   1.503   0.010  0.00  0.00    +0.278 C 
ATOM     28  C   UNL     1      -0.749   2.004   1.264  0.00  0.00    +0.281 C 
ATOM     29  O   UNL     1      -0.761   3.435   1.233  0.00  0.00    -0.484 OA
ATOM     30  C   UNL     1      -1.110   4.018   0.054  0.00  0.00    +0.162 A 
ATOM     31  C   UNL     1      -1.491   5.352   0.040  0.00  0.00    +0.049 A 
ATOM     32  C   UNL     1      -1.845   5.959  -1.150  0.00  0.00    +0.004 A 
ATOM     33  C   UNL     1      -1.820   5.239  -2.330  0.00  0.00    +0.004 A 
ATOM     34  C   UNL     1      -1.441   3.910  -2.324  0.00  0.00    +0.049 A 
ATOM     35  C   UNL     1      -1.086   3.294  -1.132  0.00  0.00    +0.163 A 
ATOM     36  O   UNL     1      -0.722   1.982  -1.141  0.00  0.00    -0.474 OA
ENDBRANCH  23  27
ENDBRANCH  20  26
ENDBRANCH   1  20
TORSDOF 6
