REMARK  Name = ZINC12070796
REMARK  15 active torsions:
REMARK  status: ('A' for Active; 'I' for Inactive)
REMARK    1  A    between atoms: C_1  and  C_2
REMARK    2  A    between atoms: C_5  and  O_32
REMARK    3  A    between atoms: N_11  and  C_12
REMARK    4  A    between atoms: C_12  and  C_13
REMARK    5  A    between atoms: C_13  and  C_14
REMARK    6  A    between atoms: C_14  and  N_67
REMARK    7  A    between atoms: C_15  and  N_67
REMARK    8  A    between atoms: C_16  and  N_67
REMARK    9  A    between atoms: C_17  and  C_19
REMARK   10  A    between atoms: C_19  and  C_20
REMARK   11  A    between atoms: C_23  and  S_26
REMARK   12  A    between atoms: S_26  and  C_29
REMARK   13  A    between atoms: C_29  and  C_30
REMARK   14  A    between atoms: C_29  and  C_31
REMARK   15  A    between atoms: O_32  and  C_33
REMARK                            x       y       z     vdW  Elec       q    Type
REMARK                         _______ _______ _______ _____ _____    ______ ____
ROOT
ATOM      1  C   UNL     1       2.511   0.013  10.632  0.00  0.00    +0.045 C 
ATOM      2  C   UNL     1       1.300   0.683  11.229  0.00  0.00    -0.034 A 
ATOM      3  C   UNL     1       1.156   0.763  12.602  0.00  0.00    +0.008 A 
ATOM      4  C   UNL     1       0.034   1.382  13.133  0.00  0.00    +0.048 A 
ATOM      5  C   UNL     1      -0.939   1.920  12.324  0.00  0.00    +0.147 A 
ATOM      6  C   UNL     1      -0.822   1.856  10.913  0.00  0.00    +0.122 A 
ATOM      7  C   UNL     1       0.334   1.217  10.412  0.00  0.00    +0.047 A 
ATOM      8  S   UNL     1       0.104   1.345   8.654  0.00  0.00    -0.051 S 
ATOM      9  C   UNL     1      -1.459   2.209   8.694  0.00  0.00    +0.168 A 
ATOM     10  N   UNL     1      -1.676   2.335   9.982  0.00  0.00    -0.221 NA
ATOM     11  N   UNL     1      -2.241   2.642   7.634  0.00  0.00    -0.250 N 
ATOM     12  C   UNL     1      -1.840   2.421   6.367  0.00  0.00    +0.226 C 
ATOM     13  O   UNL     1      -0.795   1.843   6.154  0.00  0.00    -0.275 OA
ENDROOT
BRANCH   5  14
ATOM     14  O   UNL     1      -2.023   2.520  12.883  0.00  0.00    -0.493 OA
ATOM     15  C   UNL     1      -2.083   2.553  14.310  0.00  0.00    +0.277 C 
ENDBRANCH   5  14
BRANCH  11  16
ATOM     16  C   UNL     1      -3.503   3.340   7.892  0.00  0.00    +0.114 C 
BRANCH  16  17
ATOM     17  C   UNL     1      -4.641   2.320   7.981  0.00  0.00    +0.001 C 
BRANCH  17  18
ATOM     18  C   UNL     1      -5.959   3.049   8.250  0.00  0.00    -0.078 C 
BRANCH  18  21
ATOM     19  C   UNL     1      -8.285   2.699   8.825  0.00  0.00    -0.097 C 
ATOM     20  C   UNL     1      -7.272   1.414   7.040  0.00  0.00    -0.097 C 
ATOM     21  N   UNL     1      -7.043   2.050   8.354  0.00  0.00    +0.376 N 
ATOM     22  H   UNL     1      -6.767   1.328   9.031  0.00  0.00    -0.083 HD
ENDBRANCH  18  21
ENDBRANCH  17  18
ENDBRANCH  16  17
ENDBRANCH  11  16
BRANCH  12  23
ATOM     23  C   UNL     1      -2.690   2.891   5.215  0.00  0.00    +0.131 C 
BRANCH  23  24
ATOM     24  C   UNL     1      -2.022   2.523   3.915  0.00  0.00    -0.038 A 
ATOM     25  C   UNL     1      -2.295   1.306   3.318  0.00  0.00    +0.006 A 
ATOM     26  C   UNL     1      -1.683   0.968   2.126  0.00  0.00    +0.027 A 
ATOM     27  C   UNL     1      -0.798   1.847   1.530  0.00  0.00    +0.088 A 
ATOM     28  C   UNL     1      -0.521   3.062   2.129  0.00  0.00    +0.027 A 
ATOM     29  C   UNL     1      -1.137   3.402   3.319  0.00  0.00    +0.006 A 
BRANCH  27  30
ATOM     30  S   UNL     1      -0.017   1.417   0.010  0.00  0.00    -0.001 S 
ATOM     31  O   UNL     1       0.002  -0.004   0.002  0.00  0.00    -0.169 OA
ATOM     32  O   UNL     1       1.195   2.158   0.002  0.00  0.00    -0.169 OA
BRANCH  30  33
ATOM     33  C   UNL     1      -1.135   2.034  -1.279  0.00  0.00    +0.130 C 
ATOM     34  C   UNL     1      -1.294   3.548  -1.134  0.00  0.00    +0.032 C 
ATOM     35  C   UNL     1      -0.551   1.712  -2.657  0.00  0.00    +0.032 C 
ENDBRANCH  30  33
ENDBRANCH  27  30
ENDBRANCH  23  24
ENDBRANCH  12  23
TORSDOF 9
