REMARK  Name = ZINC62946232
REMARK  3 active torsions:
REMARK  status: ('A' for Active; 'I' for Inactive)
REMARK    1  A    between atoms: N_10  and  S_12
REMARK    2  A    between atoms: S_12  and  C_15
REMARK    3  A    between atoms: C_18  and  O_21
REMARK                            x       y       z     vdW  Elec       q    Type
REMARK                         _______ _______ _______ _____ _____    ______ ____
ROOT
ATOM      1  C   UNL     1      -0.017   1.373   0.010  0.00  0.00    +0.000 A 
ATOM      2  C   UNL     1       1.172   2.079   0.002  0.00  0.00    +0.000 A 
ATOM      3  C   UNL     1       2.368   1.392   0.011  0.00  0.00    +0.005 A 
ATOM      4  C   UNL     1       2.385   0.004   0.013  0.00  0.00    -0.028 A 
ATOM      5  C   UNL     1       1.208  -0.705  -0.020  0.00  0.00    -0.043 A 
ATOM      6  C   UNL     1       0.002  -0.004   0.002  0.00  0.00    +0.004 A 
ATOM      7  C   UNL     1       1.094  -2.206  -0.141  0.00  0.00    +0.037 C 
ATOM      8  C   UNL     1       2.265  -2.942   0.503  0.00  0.00    +0.022 C 
ATOM      9  C   UNL     1       3.397  -3.075  -0.531  0.00  0.00    +0.110 C 
ATOM     10  N   UNL     1       3.813  -1.740  -0.925  0.00  0.00    -0.172 NA
ATOM     11  C   UNL     1       3.719  -0.684   0.087  0.00  0.00    +0.144 C 
ENDROOT
BRANCH  10  12
ATOM     12  S   UNL     1       4.369  -1.425  -2.452  0.00  0.00    +0.061 S 
ATOM     13  O   UNL     1       5.182  -0.263  -2.357  0.00  0.00    -0.153 OA
ATOM     14  O   UNL     1       4.857  -2.655  -2.969  0.00  0.00    -0.153 OA
BRANCH  12  15
ATOM     15  C   UNL     1       2.974  -0.985  -3.434  0.00  0.00    +0.106 A 
ATOM     16  C   UNL     1       2.268  -1.964  -4.109  0.00  0.00    +0.032 A 
ATOM     17  C   UNL     1       1.174  -1.621  -4.880  0.00  0.00    +0.047 A 
ATOM     18  C   UNL     1       0.784  -0.294  -4.977  0.00  0.00    +0.117 A 
ATOM     19  C   UNL     1       1.494   0.687  -4.299  0.00  0.00    +0.047 A 
ATOM     20  C   UNL     1       2.584   0.339  -3.525  0.00  0.00    +0.032 A 
BRANCH  18  21
ATOM     21  O   UNL     1      -0.291   0.046  -5.735  0.00  0.00    -0.507 OA
ATOM     22  H   UNL     1      -1.130   0.041  -5.253  0.00  0.00    +0.292 HD
ENDBRANCH  18  21
ENDBRANCH  12  15
ENDBRANCH  10  12
TORSDOF 3
