REMARK  Name = ZINC00782061
REMARK  13 active torsions:
REMARK  status: ('A' for Active; 'I' for Inactive)
REMARK    1  A    between atoms: C_1  and  C_2
REMARK    2  A    between atoms: C_2  and  C_3
REMARK    3  A    between atoms: C_3  and  C_4
REMARK    4  A    between atoms: C_3  and  C_5
REMARK    5  A    between atoms: C_3  and  N_6
REMARK    6  A    between atoms: C_7  and  C_11
REMARK    7  A    between atoms: C_11  and  C_13
REMARK    8  A    between atoms: C_11  and  N_66
REMARK    9  A    between atoms: C_17  and  C_25
REMARK   10  A    between atoms: C_26  and  C_27
REMARK   11  A    between atoms: C_26  and  N_66
REMARK   12  A    between atoms: C_32  and  C_33
REMARK   13  A    between atoms: C_32  and  N_66
REMARK                            x       y       z     vdW  Elec       q    Type
REMARK                         _______ _______ _______ _____ _____    ______ ____
ROOT
ATOM      1  C   UNL     1       0.557   0.594   0.292  0.00  0.00    +0.040 C 
ENDROOT
BRANCH   1   2
ATOM      2  C   UNL     1      -0.875   0.343   0.686  0.00  0.00    +0.011 A 
ATOM      3  C   UNL     1      -1.541  -0.721   0.173  0.00  0.00    +0.017 A 
ATOM      4  C   UNL     1      -2.932  -0.937   0.576  0.00  0.00    -0.001 A 
ATOM      5  C   UNL     1      -3.669  -2.018   0.081  0.00  0.00    +0.013 A 
ATOM      6  C   UNL     1      -4.965  -2.192   0.477  0.00  0.00    -0.050 A 
ATOM      7  C   UNL     1      -5.556  -1.305   1.367  0.00  0.00    +0.005 A 
ATOM      8  C   UNL     1      -4.849  -0.233   1.867  0.00  0.00    +0.026 A 
ATOM      9  C   UNL     1      -3.528  -0.036   1.478  0.00  0.00    +0.049 A 
ATOM     10  N   UNL     1      -2.797   1.027   1.964  0.00  0.00    -0.322 N 
ATOM     11  H   UNL     1      -3.223   1.668   2.602  0.00  0.00    +0.169 HD
ATOM     12  C   UNL     1      -1.518   1.214   1.592  0.00  0.00    +0.251 A 
ATOM     13  O   UNL     1      -0.900   2.162   2.046  0.00  0.00    -0.268 OA
ATOM     14  C   UNL     1      -5.759  -3.356  -0.057  0.00  0.00    +0.044 C 
ENDBRANCH   1   2
BRANCH   1  16
ATOM     15  N   UNL     1       2.391  -0.715   1.488  0.00  0.00    -0.225 N 
ATOM     16  C   UNL     1       1.463   0.259   1.450  0.00  0.00    +0.143 A 
ATOM     17  N   UNL     1       1.503   0.863   2.612  0.00  0.00    -0.115 NA
ATOM     18  N   UNL     1       2.403   0.285   3.330  0.00  0.00    -0.023 NA
ATOM     19  N   UNL     1       2.944  -0.667   2.653  0.00  0.00    -0.043 NA
BRANCH  15  20
ATOM     20  C   UNL     1       2.712  -1.654   0.410  0.00  0.00    +0.061 C 
ATOM     21  C   UNL     1       1.460  -2.450   0.037  0.00  0.00    +0.036 C 
ATOM     22  C   UNL     1       3.205  -0.877  -0.812  0.00  0.00    +0.036 C 
BRANCH  20  24
ATOM     23  C   UNL     1       4.142  -3.595  -0.246  0.00  0.00    +0.006 C 
ATOM     24  C   UNL     1       3.806  -2.615   0.880  0.00  0.00    +0.026 C 
ENDBRANCH  20  24
ENDBRANCH  15  20
ENDBRANCH   1  16
BRANCH   1  25
ATOM     25  N   UNL     1       0.712   2.024  -0.048  0.00  0.00    +0.397 N 
ATOM     26  H   UNL     1       0.224   2.589   0.657  0.00  0.00    -0.079 HD
BRANCH  25  27
ATOM     27  C   UNL     1       2.144   2.391  -0.049  0.00  0.00    -0.001 C 
BRANCH  27  28
ATOM     28  C   UNL     1       2.262   3.888  -0.179  0.00  0.00    +0.089 A 
ATOM     29  C   UNL     1       2.284   4.766   0.839  0.00  0.00    +0.042 A 
ATOM     30  C   UNL     1       2.406   6.053   0.267  0.00  0.00    +0.041 A 
ATOM     31  C   UNL     1       2.451   5.884  -1.067  0.00  0.00    +0.195 A 
ATOM     32  O   UNL     1       2.370   4.570  -1.331  0.00  0.00    -0.470 OA
ENDBRANCH  27  28
ENDBRANCH  25  27
BRANCH  25  33
ATOM     33  C   UNL     1       0.120   2.295  -1.375  0.00  0.00    -0.034 C 
BRANCH  33  34
ATOM     34  C   UNL     1      -1.359   2.528  -1.203  0.00  0.00    -0.027 A 
ATOM     35  C   UNL     1      -2.006   3.652  -0.808  0.00  0.00    +0.009 A 
ATOM     36  C   UNL     1      -3.385   3.636  -0.721  0.00  0.00    +0.008 A 
ATOM     37  C   UNL     1      -4.050   2.497  -1.034  0.00  0.00    +0.045 A 
ATOM     38  S   UNL     1      -2.714   1.398  -1.474  0.00  0.00    -0.103 S 
ENDBRANCH  33  34
ENDBRANCH  25  33
ENDBRANCH   1  25
TORSDOF 9
