REMARK  Name = ZINC27500111
REMARK  6 active torsions:
REMARK  status: ('A' for Active; 'I' for Inactive)
REMARK    1  A    between atoms: C_1  and  C_2
REMARK    2  A    between atoms: N_16  and  C_17
REMARK    3  A    between atoms: C_18  and  N_19
REMARK    4  A    between atoms: C_18  and  N_29
REMARK    5  A    between atoms: N_19  and  N_20
REMARK    6  A    between atoms: C_21  and  C_23
REMARK                            x       y       z     vdW  Elec       q    Type
REMARK                         _______ _______ _______ _____ _____    ______ ____
ROOT
ATOM      1  C   UNL     1       2.221  -4.136  -0.047  0.00  0.00    +0.078 C 
ATOM      2  C   UNL     1       2.399  -2.667  -0.436  0.00  0.00    +0.178 C 
ATOM      3  C   UNL     1       3.562  -2.061   0.360  0.00  0.00    +0.082 C 
ATOM      4  C   UNL     1       3.793  -0.641  -0.175  0.00  0.00    +0.066 C 
ATOM      5  C   UNL     1       2.478   0.093  -0.244  0.00  0.00    +0.002 A 
ATOM      6  C   UNL     1       2.491   1.474  -0.346  0.00  0.00    +0.008 A 
ATOM      7  C   UNL     1       1.306   2.180  -0.411  0.00  0.00    +0.001 A 
ATOM      8  C   UNL     1       0.098   1.508  -0.375  0.00  0.00    +0.004 A 
ATOM      9  C   UNL     1       0.078   0.132  -0.273  0.00  0.00    +0.046 A 
ATOM     10  C   UNL     1       1.270  -0.582  -0.207  0.00  0.00    +0.127 A 
ATOM     11  O   UNL     1       1.212  -1.936  -0.108  0.00  0.00    -0.468 OA
ATOM     12  C   UNL     1       4.375  -0.760  -1.589  0.00  0.00    +0.059 C 
ATOM     13  C   UNL     1       3.530  -1.698  -2.403  0.00  0.00    +0.249 C 
ATOM     14  O   UNL     1       3.645  -1.677  -3.610  0.00  0.00    -0.270 OA
ATOM     15  N   UNL     1       2.658  -2.554  -1.866  0.00  0.00    -0.263 N 
ATOM     16  C   UNL     1       1.916  -3.436  -2.771  0.00  0.00    +0.136 C 
ATOM     17  C   UNL     1       4.389   0.598  -2.242  0.00  0.00    +0.106 C 
ENDROOT
BRANCH  17  18
ATOM     18  N   UNL     1       3.270   1.053  -2.914  0.00  0.00    -0.345 N 
ATOM     19  H   UNL     1       3.280   2.044  -3.391  0.00  0.00    +0.144 HD
ATOM     20  H   UNL     1       2.369   0.424  -2.972  0.00  0.00    +0.144 HD
ENDBRANCH  17  18
BRANCH  17  21
ATOM     21  N   UNL     1       5.448   1.339  -2.174  0.00  0.00    -0.251 N 
ATOM     22  H   UNL     1       5.450   2.340  -2.629  0.00  0.00    +0.171 HD
BRANCH  21  23
ATOM     23  N   UNL     1       6.593   0.865  -1.520  0.00  0.00    -0.232 N 
ATOM     24  C   UNL     1       7.661   1.672  -1.360  0.00  0.00    +0.260 C 
ATOM     25  O   UNL     1       7.664   2.781  -1.859  0.00  0.00    -0.269 OA
ATOM     26  H   UNL     1       6.621  -0.166  -1.137  0.00  0.00    +0.173 HD
BRANCH  24  27
ATOM     27  C   UNL     1       8.827   1.208  -0.579  0.00  0.00    +0.038 A 
ATOM     28  C   UNL     1       8.882  -0.107  -0.114  0.00  0.00    +0.013 A 
ATOM     29  C   UNL     1       9.976  -0.534   0.610  0.00  0.00    +0.001 A 
ATOM     30  C   UNL     1      11.012   0.341   0.884  0.00  0.00    +0.000 A 
ATOM     31  C   UNL     1      10.961   1.647   0.431  0.00  0.00    +0.001 A 
ATOM     32  C   UNL     1       9.876   2.086  -0.299  0.00  0.00    +0.013 A 
ENDBRANCH  24  27
ENDBRANCH  21  23
ENDBRANCH  17  21
TORSDOF 4
