REMARK  Name = ZINC21225241
REMARK  6 active torsions:
REMARK  status: ('A' for Active; 'I' for Inactive)
REMARK    1  A    between atoms: C_1  and  N_2
REMARK    2  A    between atoms: N_2  and  C_3
REMARK    3  A    between atoms: N_2  and  C_4
REMARK    4  A    between atoms: C_7  and  C_10
REMARK    5  A    between atoms: C_15  and  C_25
REMARK    6  A    between atoms: C_30  and  O_31
REMARK                            x       y       z     vdW  Elec       q    Type
REMARK                         _______ _______ _______ _____ _____    ______ ____
ROOT
ATOM      1  C   UNL     1       2.340   4.099   0.470  0.00  0.00    +0.032 C 
ATOM      2  C   UNL     1       2.352   4.877  -0.845  0.00  0.00    +0.059 C 
ATOM      3  C   UNL     1       3.679   5.599  -1.006  0.00  0.00    +0.017 C 
ATOM      4  C   UNL     1       4.343   6.055   0.070  0.00  0.00    +0.037 C 
ATOM      5  C   UNL     1       5.662   6.789   0.052  0.00  0.00    +0.139 C 
ATOM      6  N   UNL     1       6.089   7.227  -1.260  0.00  0.00    -0.331 N 
ATOM      7  C   UNL     1       6.400   6.305  -2.258  0.00  0.00    +0.049 A 
ATOM      8  C   UNL     1       7.697   6.149  -2.719  0.00  0.00    +0.025 A 
ATOM      9  C   UNL     1       7.979   5.145  -3.630  0.00  0.00    +0.002 A 
ATOM     10  C   UNL     1       6.976   4.305  -4.078  0.00  0.00    +0.002 A 
ATOM     11  C   UNL     1       5.675   4.473  -3.635  0.00  0.00    +0.025 A 
ATOM     12  C   UNL     1       5.388   5.487  -2.739  0.00  0.00    +0.052 A 
ATOM     13  N   UNL     1       4.097   5.742  -2.290  0.00  0.00    -0.316 N 
ATOM     14  C   UNL     1       3.819   5.850   1.368  0.00  0.00    +0.163 C 
ATOM     15  O   UNL     1       4.427   6.295   2.322  0.00  0.00    -0.292 OA
ATOM     16  C   UNL     1       2.541   5.105   1.610  0.00  0.00    +0.088 C 
ATOM     17  H   UNL     1       6.172   8.301  -1.481  0.00  0.00    +0.147 HD
ATOM     18  H   UNL     1       3.393   6.081  -3.063  0.00  0.00    +0.152 HD
ENDROOT
BRANCH   1  22
ATOM     19  C   UNL     1      -1.414   2.109   0.934  0.00  0.00    +0.029 A 
ATOM     20  C   UNL     1      -0.236   1.373   0.899  0.00  0.00    +0.023 A 
ATOM     21  C   UNL     1       0.975   2.019   0.747  0.00  0.00    +0.006 A 
ATOM     22  C   UNL     1       1.016   3.397   0.636  0.00  0.00    -0.043 A 
ATOM     23  C   UNL     1      -0.154   4.133   0.676  0.00  0.00    +0.006 A 
ATOM     24  C   UNL     1      -1.368   3.493   0.828  0.00  0.00    +0.023 A 
BRANCH  19  26
ATOM     25  C   UNL     1      -2.687  -0.002   1.200  0.00  0.00    +0.129 C 
ATOM     26  N   UNL     1      -2.641   1.458   1.082  0.00  0.00    -0.336 N 
ATOM     27  C   UNL     1      -3.882   2.235   1.119  0.00  0.00    +0.129 C 
ENDBRANCH  19  26
ENDBRANCH   1  22
BRANCH   5  28
ATOM     28  C   UNL     1       6.720   5.878   0.619  0.00  0.00    +0.019 A 
ATOM     29  C   UNL     1       6.524   4.510   0.623  0.00  0.00    +0.009 A 
ATOM     30  C   UNL     1       7.496   3.673   1.139  0.00  0.00    +0.001 A 
ATOM     31  C   UNL     1       8.662   4.202   1.660  0.00  0.00    +0.004 A 
ATOM     32  C   UNL     1       8.861   5.569   1.663  0.00  0.00    +0.046 A 
ATOM     33  C   UNL     1       7.889   6.411   1.141  0.00  0.00    +0.122 A 
BRANCH  33  34
ATOM     34  O   UNL     1       8.082   7.756   1.143  0.00  0.00    -0.506 OA
ATOM     35  H   UNL     1       9.009   8.178   1.558  0.00  0.00    +0.292 HD
ENDBRANCH  33  34
ENDBRANCH   5  28
TORSDOF 4
