REMARK  Name = ZINC40701643
REMARK  6 active torsions:
REMARK  status: ('A' for Active; 'I' for Inactive)
REMARK    1  A    between atoms: C_1  and  C_2
REMARK    2  A    between atoms: C_3  and  N_9
REMARK    3  A    between atoms: C_11  and  N_30
REMARK    4  A    between atoms: C_12  and  N_16
REMARK    5  A    between atoms: N_16  and  C_17
REMARK    6  A    between atoms: C_17  and  C_18
REMARK                            x       y       z     vdW  Elec       q    Type
REMARK                         _______ _______ _______ _____ _____    ______ ____
ROOT
ATOM      1  N   UNL     1       0.010   0.104  -2.411  0.00  0.00    -0.299 N 
ATOM      2  C   UNL     1       0.103  -0.604  -3.604  0.00  0.00    +0.126 A 
ATOM      3  C   UNL     1       0.207   0.071  -4.822  0.00  0.00    +0.104 A 
ATOM      4  C   UNL     1       0.297  -0.688  -5.990  0.00  0.00    +0.153 A 
ATOM      5  N   UNL     1       0.281  -2.016  -5.899  0.00  0.00    -0.220 NA
ATOM      6  C   UNL     1       0.182  -2.614  -4.729  0.00  0.00    +0.200 A 
ATOM      7  N   UNL     1       0.100  -1.935  -3.602  0.00  0.00    -0.333 N 
ATOM      8  H   UNL     1      -0.079   1.070  -2.425  0.00  0.00    +0.154 HD
ATOM      9  H   UNL     1       0.032  -2.412  -2.760  0.00  0.00    +0.168 HD
ENDROOT
BRANCH   1  12
ATOM     10  C   UNL     1       2.442  -1.163  -1.649  0.00  0.00    +0.047 C 
ATOM     11  C   UNL     1       1.212  -1.208  -0.779  0.00  0.00    -0.011 A 
ATOM     12  C   UNL     1       0.045  -0.576  -1.191  0.00  0.00    +0.037 A 
ATOM     13  C   UNL     1      -1.087  -0.621  -0.386  0.00  0.00    +0.023 A 
ATOM     14  C   UNL     1      -1.050  -1.294   0.820  0.00  0.00    +0.003 A 
ATOM     15  C   UNL     1       0.112  -1.922   1.227  0.00  0.00    +0.020 A 
ATOM     16  C   UNL     1       1.241  -1.884   0.426  0.00  0.00    +0.046 A 
ATOM     17 CL   UNL     1       2.696  -2.680   0.939  0.00  0.00    -0.083 Cl
ENDBRANCH   1  12
BRANCH   4  18
ATOM     18  N   UNL     1       0.403  -0.067  -7.231  0.00  0.00    -0.264 N 
ATOM     19  C   UNL     1      -0.738   0.155  -7.996  0.00  0.00    +0.127 A 
ATOM     20  C   UNL     1      -1.994  -0.074  -7.444  0.00  0.00    +0.044 A 
ATOM     21  C   UNL     1      -3.119   0.151  -8.216  0.00  0.00    +0.005 A 
ATOM     22  C   UNL     1      -2.950   0.599  -9.520  0.00  0.00    +0.020 A 
ATOM     23  C   UNL     1      -1.673   0.805 -10.003  0.00  0.00    +0.113 A 
ATOM     24  N   UNL     1      -0.618   0.588  -9.242  0.00  0.00    -0.240 NA
BRANCH  18  25
ATOM     25  C   UNL     1       1.714   0.354  -7.730  0.00  0.00    +0.149 C 
BRANCH  25  26
ATOM     26  C   UNL     1       2.333  -0.769  -8.522  0.00  0.00    -0.030 A 
ATOM     27  C   UNL     1       3.127  -1.706  -7.888  0.00  0.00    +0.005 A 
ATOM     28  C   UNL     1       3.696  -2.736  -8.614  0.00  0.00    +0.000 A 
ATOM     29  C   UNL     1       3.470  -2.828  -9.975  0.00  0.00    +0.000 A 
ATOM     30  C   UNL     1       2.675  -1.892 -10.609  0.00  0.00    +0.000 A 
ATOM     31  C   UNL     1       2.103  -0.864  -9.882  0.00  0.00    +0.005 A 
ENDBRANCH  25  26
ENDBRANCH  18  25
ENDBRANCH   4  18
BRANCH   3  32
ATOM     32  N   UNL     1       0.220   1.473  -4.871  0.00  0.00    -0.353 N 
ATOM     33  H   UNL     1       0.231   1.987  -4.049  0.00  0.00    +0.143 HD
ATOM     34  H   UNL     1       0.218   1.929  -5.728  0.00  0.00    +0.143 HD
ENDBRANCH   3  32
TORSDOF 5
