REMARK  Name = ZINC39944656
REMARK  14 active torsions:
REMARK  status: ('A' for Active; 'I' for Inactive)
REMARK    1  A    between atoms: C_1  and  C_2
REMARK    2  A    between atoms: C_3  and  C_37
REMARK    3  A    between atoms: C_4  and  C_27
REMARK    4  A    between atoms: C_6  and  C_8
REMARK    5  A    between atoms: C_8  and  C_9
REMARK    6  A    between atoms: C_11  and  C_26
REMARK    7  A    between atoms: C_12  and  C_25
REMARK    8  A    between atoms: C_13  and  O_15
REMARK    9  A    between atoms: O_15  and  C_16
REMARK   10  A    between atoms: C_16  and  C_18
REMARK   11  A    between atoms: C_18  and  C_19
REMARK   12  A    between atoms: C_27  and  O_29
REMARK   13  A    between atoms: O_29  and  C_30
REMARK   14  A    between atoms: C_30  and  C_31
REMARK                            x       y       z     vdW  Elec       q    Type
REMARK                         _______ _______ _______ _____ _____    ______ ____
ROOT
ATOM      1  C   UNL     1      -0.195   1.624   0.282  0.00  0.00    +0.041 C 
ATOM      2  C   UNL     1      -0.090   0.130   0.112  0.00  0.00    -0.045 C 
ATOM      3  C   UNL     1      -0.071  -0.545  -1.034  0.00  0.00    -0.020 C 
ATOM      4  C   UNL     1       0.043  -1.982  -0.753  0.00  0.00    +0.124 C 
ATOM      5  N   UNL     1       0.093  -2.200   0.524  0.00  0.00    -0.372 N 
ATOM      6  C   UNL     1       0.023  -0.904   1.210  0.00  0.00    +0.108 C 
ATOM      7  C   UNL     1      -0.153   0.069  -2.408  0.00  0.00    +0.046 C 
ATOM      8  H   UNL     1       0.169  -3.068   0.952  0.00  0.00    +0.160 HD
ENDROOT
BRANCH   4   9
ATOM      9  C   UNL     1       0.092  -3.044  -1.794  0.00  0.00    +0.356 C 
ATOM     10  O   UNL     1      -0.053  -2.755  -2.963  0.00  0.00    -0.243 OA
BRANCH   9  11
ATOM     11  O   UNL     1       0.298  -4.326  -1.438  0.00  0.00    -0.455 OA
BRANCH  11  12
ATOM     12  C   UNL     1       0.445  -5.277  -2.494  0.00  0.00    +0.268 C 
BRANCH  12  13
ATOM     13  C   UNL     1       0.544  -6.663  -1.911  0.00  0.00    -0.010 A 
ATOM     14  C   UNL     1       1.765  -7.146  -1.479  0.00  0.00    +0.007 A 
ATOM     15  C   UNL     1       1.856  -8.417  -0.945  0.00  0.00    +0.000 A 
ATOM     16  C   UNL     1       0.726  -9.206  -0.842  0.00  0.00    +0.000 A 
ATOM     17  C   UNL     1      -0.495  -8.724  -1.273  0.00  0.00    +0.000 A 
ATOM     18  C   UNL     1      -0.587  -7.450  -1.804  0.00  0.00    +0.007 A 
ENDBRANCH  12  13
ENDBRANCH  11  12
ENDBRANCH   9  11
ENDBRANCH   4   9
BRANCH   6  19
ATOM     19  C   UNL     1       1.292  -0.667   2.032  0.00  0.00    +0.060 C 
BRANCH  19  20
ATOM     20  C   UNL     1       1.298  -1.604   3.241  0.00  0.00    +0.137 C 
ATOM     21  C   UNL     1       1.310  -3.046   2.785  0.00  0.00    -0.040 C 
ATOM     22  C   UNL     1       0.197  -3.594   3.264  0.00  0.00    +0.012 C 
ATOM     23  C   UNL     1      -0.559  -2.587   4.019  0.00  0.00    +0.223 C 
ATOM     24  N   UNL     1       0.060  -1.444   4.015  0.00  0.00    -0.242 NA
ATOM     25  C   UNL     1      -0.224  -5.027   3.063  0.00  0.00    +0.049 C 
ATOM     26  C   UNL     1       2.369  -3.725   1.955  0.00  0.00    +0.041 C 
BRANCH  23  27
ATOM     27  O   UNL     1      -1.741  -2.817   4.637  0.00  0.00    -0.407 OA
BRANCH  27  28
ATOM     28  C   UNL     1      -2.268  -1.829   5.380  0.00  0.00    +0.318 C 
ATOM     29  O   UNL     1      -1.737  -0.744   5.405  0.00  0.00    -0.250 OA
BRANCH  28  30
ATOM     30  C   UNL     1      -3.521  -2.074   6.181  0.00  0.00    +0.156 C 
BRANCH  30  31
ATOM     31  C   UNL     1      -3.969  -0.785   6.819  0.00  0.00    -0.037 A 
ATOM     32  C   UNL     1      -3.429  -0.388   8.028  0.00  0.00    +0.004 A 
ATOM     33  C   UNL     1      -3.840   0.795   8.614  0.00  0.00    +0.000 A 
ATOM     34  C   UNL     1      -4.791   1.581   7.991  0.00  0.00    +0.000 A 
ATOM     35  C   UNL     1      -5.330   1.185   6.782  0.00  0.00    +0.000 A 
ATOM     36  C   UNL     1      -4.916   0.004   6.194  0.00  0.00    +0.004 A 
ENDBRANCH  30  31
ENDBRANCH  28  30
ENDBRANCH  27  28
ENDBRANCH  23  27
ENDBRANCH  19  20
ENDBRANCH   6  19
TORSDOF 10
