REMARK  Name = ZINC41586405
REMARK  15 active torsions:
REMARK  status: ('A' for Active; 'I' for Inactive)
REMARK    1  A    between atoms: C_1  and  C_2
REMARK    2  A    between atoms: C_2  and  O_3
REMARK    3  A    between atoms: O_3  and  C_4
REMARK    4  A    between atoms: C_4  and  C_6
REMARK    5  A    between atoms: N_11  and  C_13
REMARK    6  A    between atoms: C_13  and  C_14
REMARK    7  A    between atoms: C_15  and  O_38
REMARK    8  A    between atoms: C_17  and  C_37
REMARK    9  A    between atoms: C_22  and  C_23
REMARK   10  A    between atoms: C_26  and  O_33
REMARK   11  A    between atoms: C_27  and  O_31
REMARK   12  A    between atoms: C_28  and  O_29
REMARK   13  A    between atoms: O_29  and  C_30
REMARK   14  A    between atoms: O_31  and  C_32
REMARK   15  A    between atoms: O_33  and  C_34
REMARK                            x       y       z     vdW  Elec       q    Type
REMARK                         _______ _______ _______ _____ _____    ______ ____
ROOT
ATOM      1  C   UNL     1       3.227  -5.629  -5.093  0.00  0.00    +0.020 A 
ATOM      2  C   UNL     1       2.670  -5.795  -6.350  0.00  0.00    +0.122 A 
ATOM      3  C   UNL     1       3.405  -6.375  -7.380  0.00  0.00    +0.050 A 
ATOM      4  C   UNL     1       4.689  -6.788  -7.159  0.00  0.00    -0.033 A 
ATOM      5  C   UNL     1       5.263  -6.627  -5.898  0.00  0.00    +0.071 A 
ATOM      6  C   UNL     1       4.533  -6.038  -4.853  0.00  0.00    +0.145 A 
ATOM      7  O   UNL     1       5.296  -5.984  -3.739  0.00  0.00    -0.451 OA
ATOM      8  C   UNL     1       6.530  -6.502  -3.949  0.00  0.00    +0.176 C 
ATOM      9  C   UNL     1       7.529  -6.594  -3.032  0.00  0.00    +0.062 C 
ATOM     10  C   UNL     1       6.589  -6.957  -5.344  0.00  0.00    +0.232 C 
ATOM     11  O   UNL     1       7.529  -7.479  -5.919  0.00  0.00    -0.283 OA
ATOM     12  C   UNL     1       5.482  -7.416  -8.275  0.00  0.00    +0.045 C 
ENDROOT
BRANCH   9  13
ATOM     13  C   UNL     1       7.376  -5.965  -1.717  0.00  0.00    +0.024 A 
ATOM     14  C   UNL     1       6.106  -5.584  -1.262  0.00  0.00    +0.015 A 
ATOM     15  C   UNL     1       5.966  -4.995  -0.027  0.00  0.00    +0.050 A 
ATOM     16  C   UNL     1       7.081  -4.774   0.776  0.00  0.00    +0.165 A 
ATOM     17  C   UNL     1       8.347  -5.146   0.337  0.00  0.00    +0.204 A 
ATOM     18  C   UNL     1       8.502  -5.747  -0.904  0.00  0.00    +0.172 A 
BRANCH  18  19
ATOM     19  O   UNL     1       9.735  -6.117  -1.333  0.00  0.00    -0.491 OA
ATOM     20  C   UNL     1      10.485  -5.147  -2.067  0.00  0.00    +0.277 C 
ENDBRANCH  18  19
BRANCH  17  21
ATOM     21  O   UNL     1       9.433  -4.926   1.126  0.00  0.00    -0.488 OA
ATOM     22  C   UNL     1       9.797  -5.968   2.034  0.00  0.00    +0.277 C 
ENDBRANCH  17  21
BRANCH  16  23
ATOM     23  O   UNL     1       6.932  -4.190   1.993  0.00  0.00    -0.491 OA
ATOM     24  C   UNL     1       5.604  -3.832   2.383  0.00  0.00    +0.277 C 
ENDBRANCH  16  23
ENDBRANCH   9  13
BRANCH   2  25
ATOM     25  O   UNL     1       1.395  -5.389  -6.579  0.00  0.00    -0.506 OA
ATOM     26  H   UNL     1       1.322  -4.474  -6.883  0.00  0.00    +0.292 HD
ENDBRANCH   2  25
BRANCH   1  27
ATOM     27  C   UNL     1       2.420  -5.000  -3.987  0.00  0.00    -0.036 C 
BRANCH  27  32
ATOM     28  C   UNL     1       2.205  -1.440  -2.818  0.00  0.00    +0.081 C 
ATOM     29  C   UNL     1       1.682  -0.805  -4.109  0.00  0.00    +0.011 C 
ATOM     30  C   UNL     1       2.346  -1.488  -5.308  0.00  0.00    -0.018 C 
ATOM     31  C   UNL     1       2.071  -2.992  -5.248  0.00  0.00    -0.078 C 
ATOM     32  N   UNL     1       2.618  -3.544  -4.004  0.00  0.00    +0.383 N 
ATOM     33  C   UNL     1       1.936  -2.946  -2.850  0.00  0.00    -0.064 C 
ATOM     34  H   UNL     1       3.605  -3.341  -3.952  0.00  0.00    -0.081 HD
BRANCH  28  35
ATOM     35  C   UNL     1       1.501  -0.828  -1.634  0.00  0.00    +0.308 C 
ATOM     36  O   UNL     1       0.851  -1.525  -0.891  0.00  0.00    -0.251 OA
BRANCH  35  37
ATOM     37  O   UNL     1       1.596   0.491  -1.406  0.00  0.00    -0.465 OA
BRANCH  37  39
ATOM     38  C   UNL     1       1.126   2.514  -0.170  0.00  0.00    +0.048 C 
ATOM     39  C   UNL     1       0.903   1.004  -0.266  0.00  0.00    +0.229 C 
ENDBRANCH  37  39
ENDBRANCH  35  37
ENDBRANCH  28  35
ENDBRANCH  27  32
ENDBRANCH   1  27
TORSDOF 10
