REMARK  Name = ZINC16534136
REMARK  8 active torsions:
REMARK  status: ('A' for Active; 'I' for Inactive)
REMARK    1  A    between atoms: C_1  and  C_2
REMARK    2  A    between atoms: C_6  and  C_8
REMARK    3  A    between atoms: C_8  and  N_9
REMARK    4  A    between atoms: C_13  and  C_14
REMARK    5  A    between atoms: C_15  and  C_27
REMARK    6  A    between atoms: N_17  and  C_20
REMARK    7  A    between atoms: C_18  and  O_19
REMARK    8  A    between atoms: C_25  and  C_26
REMARK                            x       y       z     vdW  Elec       q    Type
REMARK                         _______ _______ _______ _____ _____    ______ ____
ROOT
ATOM      1  C   UNL     1       1.169   5.627  -0.344  0.00  0.00    +0.066 A 
ATOM      2  C   UNL     1       2.620   5.395  -0.351  0.00  0.00    +0.104 A 
ATOM      3  N   UNL     1       2.804   4.098  -0.258  0.00  0.00    -0.163 NA
ATOM      4  N   UNL     1       1.565   3.455  -0.201  0.00  0.00    -0.199 N 
ATOM      5  C   UNL     1       0.575   4.372  -0.249  0.00  0.00    +0.224 A 
ENDROOT
BRANCH   1  10
ATOM      6  N   UNL     1      -2.154   8.029  -2.514  0.00  0.00    -0.216 N 
ATOM      7  C   UNL     1      -1.274   8.288  -1.527  0.00  0.00    +0.269 C 
ATOM      8  O   UNL     1      -1.152   9.338  -0.922  0.00  0.00    -0.268 OA
ATOM      9  C   UNL     1      -0.515   7.105  -1.325  0.00  0.00    +0.099 C 
ATOM     10  C   UNL     1       0.487   6.918  -0.422  0.00  0.00    +0.044 C 
ATOM     11  N   UNL     1      -1.006   6.169  -2.249  0.00  0.00    -0.265 N 
ATOM     12  C   UNL     1      -1.995   6.765  -2.941  0.00  0.00    +0.313 C 
ATOM     13  O   UNL     1      -2.644   6.240  -3.825  0.00  0.00    -0.252 OA
ATOM     14  H   UNL     1      -0.691   5.259  -2.367  0.00  0.00    +0.157 HD
BRANCH   6  15
ATOM     15  C   UNL     1      -3.134   8.982  -3.042  0.00  0.00    +0.153 C 
BRANCH  15  21
ATOM     16  C   UNL     1      -0.557  12.931  -4.718  0.00  0.00    +0.044 C 
ATOM     17  C   UNL     1      -1.289  11.641  -4.986  0.00  0.00    -0.050 A 
ATOM     18  C   UNL     1      -1.399  11.164  -6.279  0.00  0.00    +0.003 A 
ATOM     19  C   UNL     1      -2.071   9.981  -6.524  0.00  0.00    +0.001 A 
ATOM     20  C   UNL     1      -2.632   9.275  -5.477  0.00  0.00    +0.005 A 
ATOM     21  C   UNL     1      -2.521   9.751  -4.184  0.00  0.00    -0.029 A 
ATOM     22  C   UNL     1      -1.853  10.937  -3.939  0.00  0.00    +0.008 A 
ENDBRANCH  15  21
ENDBRANCH   6  15
ENDBRANCH   1  10
BRANCH   4  23
ATOM     23  C   UNL     1       1.378   2.070  -0.102  0.00  0.00    +0.072 A 
ATOM     24  C   UNL     1       0.472   1.429  -0.938  0.00  0.00    +0.028 A 
ATOM     25  C   UNL     1       0.290   0.064  -0.839  0.00  0.00    +0.002 A 
ATOM     26  C   UNL     1       1.010  -0.665   0.091  0.00  0.00    +0.000 A 
ATOM     27  C   UNL     1       1.912  -0.030   0.924  0.00  0.00    +0.005 A 
ATOM     28  C   UNL     1       2.098   1.336   0.830  0.00  0.00    -0.025 A 
ATOM     29  C   UNL     1       3.081   2.027   1.739  0.00  0.00    +0.046 C 
ENDBRANCH   4  23
BRANCH   2  30
ATOM     30  C   UNL     1       3.677   6.430  -0.439  0.00  0.00    +0.003 A 
ATOM     31  C   UNL     1       3.474   7.572  -1.213  0.00  0.00    +0.011 A 
ATOM     32  C   UNL     1       4.459   8.535  -1.286  0.00  0.00    +0.020 A 
ATOM     33  C   UNL     1       5.651   8.364  -0.603  0.00  0.00    +0.041 A 
ATOM     34  C   UNL     1       5.859   7.229   0.162  0.00  0.00    +0.020 A 
ATOM     35  C   UNL     1       4.879   6.263   0.248  0.00  0.00    +0.011 A 
ATOM     36 CL   UNL     1       6.889   9.577  -0.706  0.00  0.00    -0.084 Cl
ENDBRANCH   2  30
BRANCH   5  37
ATOM     37  O   UNL     1      -0.754   4.117  -0.210  0.00  0.00    -0.492 OA
ATOM     38  H   UNL     1      -1.126   4.103   0.682  0.00  0.00    +0.294 HD
ENDBRANCH   5  37
TORSDOF 6
