REMARK  Name = ZINC63119454
REMARK  10 active torsions:
REMARK  status: ('A' for Active; 'I' for Inactive)
REMARK    1  A    between atoms: C_1  and  C_2
REMARK    2  A    between atoms: C_5  and  C_30
REMARK    3  A    between atoms: N_7  and  C_8
REMARK    4  A    between atoms: C_8  and  N_9
REMARK    5  A    between atoms: C_12  and  C_14
REMARK    6  A    between atoms: N_16  and  C_17
REMARK    7  A    between atoms: C_17  and  C_18
REMARK    8  A    between atoms: C_18  and  C_19
REMARK    9  A    between atoms: C_22  and  O_28
REMARK   10  A    between atoms: O_28  and  C_29
REMARK                            x       y       z     vdW  Elec       q    Type
REMARK                         _______ _______ _______ _____ _____    ______ ____
ROOT
ATOM      1  C   UNL     1       4.897  -1.156   4.696  0.00  0.00    +0.264 C 
ATOM      2  O   UNL     1       5.225  -1.843   5.643  0.00  0.00    -0.268 OA
ATOM      3  N   UNL     1       5.462   0.054   4.513  0.00  0.00    -0.310 N 
ATOM      4  H   UNL     1       5.200   0.602   3.757  0.00  0.00    +0.149 HD
ENDROOT
BRANCH   1   8
ATOM      5  N   UNL     1       2.550  -1.731   2.078  0.00  0.00    -0.255 N 
ATOM      6  C   UNL     1       2.373  -2.899   2.733  0.00  0.00    +0.110 A 
ATOM      7  C   UNL     1       3.201  -2.888   3.803  0.00  0.00    +0.054 A 
ATOM      8  C   UNL     1       3.879  -1.648   3.744  0.00  0.00    +0.147 A 
ATOM      9  N   UNL     1       3.434  -1.016   2.676  0.00  0.00    -0.165 NA
BRANCH   5  10
ATOM     10  C   UNL     1       1.841  -1.338   0.858  0.00  0.00    +0.249 C 
BRANCH  10  16
ATOM     11  C   UNL     1      -0.019   1.526   0.010  0.00  0.00    +0.031 C 
ATOM     12  C   UNL     1       0.002  -0.004   0.002  0.00  0.00    +0.113 C 
ATOM     13  C   UNL     1      -1.406  -0.553   0.092  0.00  0.00    +0.032 C 
ATOM     14  C   UNL     1      -1.469  -1.261   1.201  0.00  0.00    +0.027 C 
ATOM     15  N   UNL     1      -0.264  -1.257   1.879  0.00  0.00    -0.279 N 
ATOM     16  N   UNL     1       0.674  -0.518   1.212  0.00  0.00    -0.200 NA
ATOM     17  C   UNL     1      -2.703  -1.985   1.673  0.00  0.00    +0.062 C 
ATOM     18 BR   UNL     1      -2.805  -0.276  -1.150  0.00  0.00    -0.052 Br
ATOM     19  H   UNL     1      -0.104  -1.719   2.717  0.00  0.00    +0.166 HD
ENDBRANCH  10  16
ENDBRANCH   5  10
ENDBRANCH   1   8
BRANCH   3  20
ATOM     20  C   UNL     1       6.471   0.541   5.456  0.00  0.00    +0.109 C 
BRANCH  20  21
ATOM     21  C   UNL     1       6.946   1.929   5.022  0.00  0.00    +0.052 C 
BRANCH  21  22
ATOM     22  C   UNL     1       7.985   2.430   5.993  0.00  0.00    -0.040 C 
ATOM     23  C   UNL     1       9.328   2.334   5.868  0.00  0.00    +0.002 A 
ATOM     24  C   UNL     1      10.192   1.755   4.834  0.00  0.00    +0.055 A 
ATOM     25  C   UNL     1      11.538   1.806   4.984  0.00  0.00    +0.121 A 
ATOM     26  C   UNL     1      12.146   2.398   6.105  0.00  0.00    +0.047 A 
ATOM     27  C   UNL     1      11.435   2.956   7.108  0.00  0.00    +0.029 A 
ATOM     28  C   UNL     1       9.970   2.957   7.049  0.00  0.00    +0.043 A 
ATOM     29  N   UNL     1       9.060   3.420   7.869  0.00  0.00    -0.380 N 
ATOM     30  C   UNL     1       7.735   3.149   7.300  0.00  0.00    +0.144 C 
ATOM     31  H   UNL     1       9.234   3.871   8.711  0.00  0.00    +0.160 HD
BRANCH  25  32
ATOM     32  O   UNL     1      12.326   1.266   4.018  0.00  0.00    -0.495 OA
ATOM     33  C   UNL     1      13.740   1.341   4.217  0.00  0.00    +0.277 C 
ENDBRANCH  25  32
ENDBRANCH  21  22
ENDBRANCH  20  21
ENDBRANCH   3  20
TORSDOF 7
