REMARK  Name = ZINC38612493
REMARK  11 active torsions:
REMARK  status: ('A' for Active; 'I' for Inactive)
REMARK    1  A    between atoms: C_1  and  C_2
REMARK    2  A    between atoms: C_2  and  C_3
REMARK    3  A    between atoms: C_2  and  C_4
REMARK    4  A    between atoms: C_4  and  C_5
REMARK    5  A    between atoms: C_5  and  O_6
REMARK    6  A    between atoms: O_6  and  C_7
REMARK    7  A    between atoms: C_10  and  C_13
REMARK    8  A    between atoms: C_15  and  C_19
REMARK    9  A    between atoms: N_21  and  N_22
REMARK   10  A    between atoms: C_23  and  C_24
REMARK   11  A    between atoms: C_33  and  O_34
REMARK                            x       y       z     vdW  Elec       q    Type
REMARK                         _______ _______ _______ _____ _____    ______ ____
ROOT
ATOM      1  C   UNL     1      -4.811 -10.776  -2.002  0.00  0.00    +0.263 C 
ATOM      2  O   UNL     1      -4.098 -10.903  -2.975  0.00  0.00    -0.271 OA
ATOM      3  N   UNL     1      -6.105 -11.146  -2.061  0.00  0.00    -0.205 N 
ATOM      4  H   UNL     1      -6.675 -11.044  -1.282  0.00  0.00    +0.177 HD
ENDROOT
BRANCH   1   7
ATOM      5  C   UNL     1      -3.427  -8.106  -0.569  0.00  0.00    +0.092 C 
ATOM      6  C   UNL     1      -4.617  -8.737  -0.588  0.00  0.00    +0.041 C 
ATOM      7  C   UNL     1      -4.248 -10.204  -0.726  0.00  0.00    +0.240 C 
ATOM      8  N   UNL     1      -2.776 -10.177  -0.769  0.00  0.00    -0.170 NA
ATOM      9  N   UNL     1      -2.412  -9.002  -0.684  0.00  0.00    -0.153 NA
BRANCH   5  13
ATOM     10  C   UNL     1      -2.919  -3.897  -0.222  0.00  0.00    +0.121 A 
ATOM     11  C   UNL     1      -1.808  -4.722  -0.333  0.00  0.00    +0.046 A 
ATOM     12  C   UNL     1      -1.969  -6.087  -0.446  0.00  0.00    +0.013 A 
ATOM     13  C   UNL     1      -3.250  -6.638  -0.448  0.00  0.00    +0.002 A 
ATOM     14  C   UNL     1      -4.363  -5.807  -0.337  0.00  0.00    +0.013 A 
ATOM     15  C   UNL     1      -4.195  -4.443  -0.219  0.00  0.00    +0.046 A 
BRANCH  10  16
ATOM     16  O   UNL     1      -2.756  -2.552  -0.111  0.00  0.00    -0.492 OA
BRANCH  16  17
ATOM     17  C   UNL     1      -1.416  -2.058  -0.121  0.00  0.00    +0.229 C 
BRANCH  17  18
ATOM     18  C   UNL     1      -1.433  -0.534   0.013  0.00  0.00    +0.044 C 
BRANCH  18  20
ATOM     19  C   UNL     1      -0.019   1.526   0.010  0.00  0.00    +0.007 C 
ATOM     20  C   UNL     1       0.002  -0.004   0.002  0.00  0.00    -0.014 C 
ATOM     21  C   UNL     1       0.742  -0.511   1.242  0.00  0.00    +0.007 C 
ENDBRANCH  18  20
ENDBRANCH  17  18
ENDBRANCH  16  17
ENDBRANCH  10  16
ENDBRANCH   5  13
ENDBRANCH   1   7
BRANCH   3  22
ATOM     22  N   UNL     1      -6.628 -11.678  -3.246  0.00  0.00    -0.188 NA
ATOM     23  C   UNL     1      -7.877 -12.034  -3.303  0.00  0.00    +0.142 C 
BRANCH  23  24
ATOM     24  C   UNL     1      -8.426 -12.592  -4.547  0.00  0.00    +0.044 A 
ATOM     25  C   UNL     1      -9.829 -12.993  -4.630  0.00  0.00    -0.006 A 
ATOM     26  C   UNL     1     -10.693 -12.861  -3.537  0.00  0.00    +0.009 A 
ATOM     27  C   UNL     1     -11.995 -13.246  -3.656  0.00  0.00    +0.001 A 
ATOM     28  C   UNL     1     -12.479 -13.770  -4.852  0.00  0.00    +0.001 A 
ATOM     29  C   UNL     1     -11.666 -13.913  -5.935  0.00  0.00    +0.008 A 
ATOM     30  C   UNL     1     -10.318 -13.526  -5.848  0.00  0.00    -0.017 A 
ATOM     31  C   UNL     1      -9.449 -13.657  -6.946  0.00  0.00    +0.012 A 
ATOM     32  C   UNL     1      -8.147 -13.279  -6.851  0.00  0.00    +0.046 A 
ATOM     33  C   UNL     1      -7.621 -12.745  -5.676  0.00  0.00    +0.126 A 
BRANCH  33  34
ATOM     34  O   UNL     1      -6.315 -12.376  -5.628  0.00  0.00    -0.506 OA
ATOM     35  H   UNL     1      -5.717 -13.082  -5.347  0.00  0.00    +0.292 HD
ENDBRANCH  33  34
ENDBRANCH  23  24
ENDBRANCH   3  22
TORSDOF 9
