REMARK  Name = ZINC53899001
REMARK  3 active torsions:
REMARK  status: ('A' for Active; 'I' for Inactive)
REMARK    1  A    between atoms: C_3  and  C_8
REMARK    2  A    between atoms: C_14  and  S_21
REMARK    3  A    between atoms: S_21  and  N_24
REMARK                            x       y       z     vdW  Elec       q    Type
REMARK                         _______ _______ _______ _____ _____    ______ ____
ROOT
ATOM      1  C   UNL     1       3.672   2.186  -0.021  0.00  0.00    +0.191 C 
ATOM      2  N   UNL     1       3.476   3.461  -0.707  0.00  0.00    -0.322 N 
ATOM      3  C   UNL     1       3.261   3.566  -2.079  0.00  0.00    +0.057 A 
ATOM      4  C   UNL     1       2.644   4.713  -2.576  0.00  0.00    +0.047 A 
ATOM      5  C   UNL     1       2.432   4.855  -3.932  0.00  0.00    +0.069 A 
ATOM      6  C   UNL     1       2.832   3.862  -4.809  0.00  0.00    +0.125 A 
ATOM      7  C   UNL     1       3.439   2.719  -4.322  0.00  0.00    +0.060 A 
ATOM      8  C   UNL     1       3.645   2.570  -2.966  0.00  0.00    +0.128 A 
ATOM      9  S   UNL     1       4.386   1.089  -2.346  0.00  0.00    +0.062 S 
ATOM     10  O   UNL     1       5.640   0.948  -2.998  0.00  0.00    -0.153 OA
ATOM     11  O   UNL     1       3.385   0.081  -2.375  0.00  0.00    -0.153 OA
ATOM     12  N   UNL     1       4.706   1.413  -0.738  0.00  0.00    -0.166 NA
ATOM     13 CL   UNL     1       1.659   6.286  -4.541  0.00  0.00    -0.081 Cl
ATOM     14  H   UNL     1       3.497   4.275  -0.180  0.00  0.00    +0.148 HD
ATOM     15  H   UNL     1       5.520   1.115  -0.302  0.00  0.00    +0.150 HD
ENDROOT
BRANCH   1  18
ATOM     16  C   UNL     1      -0.017   1.377   0.010  0.00  0.00    +0.003 A 
ATOM     17  C   UNL     1       1.171   2.086   0.002  0.00  0.00    +0.007 A 
ATOM     18  C   UNL     1       2.378   1.413  -0.013  0.00  0.00    -0.009 A 
ATOM     19  C   UNL     1       2.399   0.030  -0.021  0.00  0.00    +0.045 A 
ATOM     20  C   UNL     1       1.211  -0.679  -0.013  0.00  0.00    +0.124 A 
ATOM     21  C   UNL     1       0.002  -0.004   0.002  0.00  0.00    +0.038 A 
ATOM     22  F   UNL     1       1.230  -2.030  -0.022  0.00  0.00    -0.205 F 
ENDBRANCH   1  18
BRANCH   6  23
ATOM     23  S   UNL     1       2.567   4.052  -6.540  0.00  0.00    +0.057 S 
ATOM     24  O   UNL     1       3.046   5.345  -6.884  0.00  0.00    -0.153 OA
ATOM     25  O   UNL     1       3.055   2.869  -7.158  0.00  0.00    -0.153 OA
BRANCH  23  26
ATOM     26  N   UNL     1       0.930   4.073  -6.786  0.00  0.00    -0.203 NA
ATOM     27  H   UNL     1       0.325   3.988  -6.032  0.00  0.00    +0.144 HD
ATOM     28  H   UNL     1       0.575   4.171  -7.683  0.00  0.00    +0.144 HD
ENDBRANCH  23  26
ENDBRANCH   6  23
TORSDOF 3
