REMARK  Name = ZINC39634888
REMARK  13 active torsions:
REMARK  status: ('A' for Active; 'I' for Inactive)
REMARK    1  A    between atoms: C_1  and  C_2
REMARK    2  A    between atoms: C_3  and  C_13
REMARK    3  A    between atoms: C_4  and  C_7
REMARK    4  A    between atoms: C_17  and  C_26
REMARK    5  A    between atoms: N_28  and  C_29
REMARK    6  A    between atoms: C_29  and  C_30
REMARK    7  A    between atoms: C_30  and  N_31
REMARK    8  A    between atoms: N_31  and  C_32
REMARK    9  A    between atoms: N_31  and  C_35
REMARK   10  A    between atoms: C_32  and  C_33
REMARK   11  A    between atoms: C_32  and  C_34
REMARK   12  A    between atoms: C_35  and  C_36
REMARK   13  A    between atoms: C_35  and  C_37
REMARK                            x       y       z     vdW  Elec       q    Type
REMARK                         _______ _______ _______ _____ _____    ______ ____
ROOT
ATOM      1  C   UNL     1       0.568  -0.579   0.459  0.00  0.00    +0.252 C 
ATOM      2  O   UNL     1       0.001  -0.710  -0.609  0.00  0.00    -0.270 OA
ATOM      3  N   UNL     1      -0.150  -0.483   1.596  0.00  0.00    -0.296 N 
ATOM      4  C   UNL     1       0.348  -0.218   2.966  0.00  0.00    +0.121 C 
ATOM      5  C   UNL     1      -0.704   0.726   3.589  0.00  0.00    +0.100 C 
ATOM      6  C   UNL     1      -1.992   0.458   2.793  0.00  0.00    -0.004 C 
ATOM      7  C   UNL     1      -1.619  -0.611   1.756  0.00  0.00    +0.115 C 
ATOM      8  C   UNL     1      -2.451   1.730   2.087  0.00  0.00    -0.010 C 
ATOM      9  C   UNL     1      -3.764   1.454   1.349  0.00  0.00    -0.082 C 
ATOM     10  N   UNL     1      -4.782   1.007   2.308  0.00  0.00    +0.379 N 
ATOM     11  C   UNL     1      -4.375  -0.266   2.915  0.00  0.00    -0.082 C 
ATOM     12  C   UNL     1      -3.087  -0.062   3.719  0.00  0.00    -0.010 C 
ATOM     13  H   UNL     1      -4.890   1.703   3.031  0.00  0.00    -0.086 HD
ATOM     14  H   UNL     1      -5.662   0.884   1.830  0.00  0.00    -0.086 HD
ENDROOT
BRANCH   1  17
ATOM     15  C   UNL     1       2.325   1.963  -0.009  0.00  0.00    +0.090 C 
ATOM     16  C   UNL     1       2.820   0.576   0.309  0.00  0.00    +0.147 A 
ATOM     17  C   UNL     1       2.039  -0.524   0.511  0.00  0.00    +0.106 A 
ATOM     18  C   UNL     1       2.949  -1.645   0.790  0.00  0.00    +0.126 A 
ATOM     19  N   UNL     1       4.167  -1.168   0.741  0.00  0.00    -0.077 NA
ATOM     20  O   UNL     1       4.098   0.211   0.436  0.00  0.00    -0.359 OA
BRANCH  18  21
ATOM     21  C   UNL     1       2.561  -3.048   1.074  0.00  0.00    +0.004 A 
ATOM     22  C   UNL     1       1.394  -3.321   1.785  0.00  0.00    +0.010 A 
ATOM     23  C   UNL     1       1.037  -4.629   2.046  0.00  0.00    +0.001 A 
ATOM     24  C   UNL     1       1.837  -5.668   1.603  0.00  0.00    +0.000 A 
ATOM     25  C   UNL     1       2.996  -5.402   0.898  0.00  0.00    +0.001 A 
ATOM     26  C   UNL     1       3.359  -4.099   0.626  0.00  0.00    +0.010 A 
ENDBRANCH  18  21
ENDBRANCH   1  17
BRANCH   5  27
ATOM     27  C   UNL     1      -0.277   2.163   3.433  0.00  0.00    +0.218 C 
ATOM     28  O   UNL     1       0.459   2.482   2.522  0.00  0.00    -0.275 OA
ATOM     29  N   UNL     1      -0.713   3.094   4.304  0.00  0.00    -0.317 N 
ATOM     30  H   UNL     1      -1.301   2.839   5.032  0.00  0.00    +0.149 HD
BRANCH  29  31
ATOM     31  C   UNL     1      -0.298   4.491   4.153  0.00  0.00    +0.085 C 
BRANCH  31  32
ATOM     32  C   UNL     1      -0.927   5.333   5.263  0.00  0.00    -0.059 C 
BRANCH  32  33
ATOM     33  N   UNL     1      -0.590   6.748   5.056  0.00  0.00    +0.384 N 
ATOM     34  H   UNL     1       0.412   6.850   4.998  0.00  0.00    -0.081 HD
BRANCH  33  35
ATOM     35  C   UNL     1      -1.203   7.220   3.807  0.00  0.00    -0.074 C 
ATOM     36  C   UNL     1      -2.659   7.612   4.071  0.00  0.00    -0.014 C 
ATOM     37  C   UNL     1      -0.433   8.436   3.289  0.00  0.00    -0.014 C 
ENDBRANCH  33  35
BRANCH  33  38
ATOM     38  C   UNL     1      -1.098   7.543   6.182  0.00  0.00    -0.074 C 
ATOM     39  C   UNL     1      -0.528   6.994   7.492  0.00  0.00    -0.014 C 
ATOM     40  C   UNL     1      -0.669   9.002   6.011  0.00  0.00    -0.014 C 
ENDBRANCH  33  38
ENDBRANCH  32  33
ENDBRANCH  31  32
ENDBRANCH  29  31
ENDBRANCH   5  27
TORSDOF 8
