REMARK  Name = ZINC04044541
REMARK  4 active torsions:
REMARK  status: ('A' for Active; 'I' for Inactive)
REMARK    1  A    between atoms: C_1  and  C_2
REMARK    2  A    between atoms: C_2  and  C_4
REMARK    3  A    between atoms: C_2  and  C_5
REMARK    4  A    between atoms: N_13  and  C_16
REMARK                            x       y       z     vdW  Elec       q    Type
REMARK                         _______ _______ _______ _____ _____    ______ ____
ROOT
ATOM      1  C   UNL     1       1.277   4.053   0.785  0.00  0.00    -0.055 C 
ATOM      2  C   UNL     1       1.799   3.980  -0.665  0.00  0.00    +0.073 C 
ATOM      3  C   UNL     1       1.812   2.465  -1.009  0.00  0.00    +0.088 C 
ATOM      4  C   UNL     1       3.283   2.164  -1.197  0.00  0.00    +0.229 C 
ATOM      5  O   UNL     1       3.745   1.081  -1.486  0.00  0.00    -0.275 OA
ATOM      6  N   UNL     1       3.994   3.279  -0.995  0.00  0.00    -0.210 N 
ATOM      7  C   UNL     1       3.263   4.357  -0.689  0.00  0.00    +0.228 C 
ATOM      8  O   UNL     1       3.705   5.463  -0.466  0.00  0.00    -0.275 OA
ATOM      9  C   UNL     1       1.305   1.776   0.264  0.00  0.00    +0.050 C 
ATOM     10  C   UNL     1       1.983   0.455   0.487  0.00  0.00    -0.028 A 
ATOM     11  C   UNL     1       3.297   0.080   0.655  0.00  0.00    +0.004 A 
ATOM     12  C   UNL     1       3.619  -1.252   0.847  0.00  0.00    +0.000 A 
ATOM     13  C   UNL     1       2.617  -2.205   0.870  0.00  0.00    +0.002 A 
ATOM     14  C   UNL     1       1.299  -1.835   0.702  0.00  0.00    +0.023 A 
ATOM     15  C   UNL     1       0.967  -0.496   0.508  0.00  0.00    +0.036 A 
ATOM     16  N   UNL     1      -0.273   0.118   0.317  0.00  0.00    -0.286 N 
ATOM     17  C   UNL     1      -0.161   1.452   0.166  0.00  0.00    +0.211 C 
ATOM     18  O   UNL     1      -1.066   2.239  -0.019  0.00  0.00    -0.277 OA
ATOM     19  H   UNL     1      -1.117  -0.360   0.296  0.00  0.00    +0.155 HD
ATOM     20  N   UNL     1       1.563   2.725   1.333  0.00  0.00    +0.394 N 
ATOM     21  H   UNL     1       0.951   2.533   2.134  0.00  0.00    -0.083 HD
ATOM     22  H   UNL     1       2.544   2.668   1.630  0.00  0.00    -0.083 HD
ENDROOT
BRANCH   6  23
ATOM     23  C   UNL     1       5.392   3.315  -1.097  0.00  0.00    +0.044 A 
ATOM     24  C   UNL     1       6.005   3.124  -2.328  0.00  0.00    +0.025 A 
ATOM     25  C   UNL     1       7.382   3.167  -2.427  0.00  0.00    +0.022 A 
ATOM     26  C   UNL     1       8.151   3.387  -1.298  0.00  0.00    +0.041 A 
ATOM     27  C   UNL     1       7.543   3.572  -0.069  0.00  0.00    +0.022 A 
ATOM     28  C   UNL     1       6.166   3.536   0.034  0.00  0.00    +0.025 A 
ATOM     29 CL   UNL     1       9.882   3.432  -1.424  0.00  0.00    -0.084 Cl
ENDBRANCH   6  23
BRANCH   1  31
ATOM     30  C   UNL     1       1.599   6.519   1.025  0.00  0.00    +0.005 C 
ATOM     31  C   UNL     1       2.013   5.147   1.562  0.00  0.00    -0.031 C 
ATOM     32  C   UNL     1       1.653   5.050   3.045  0.00  0.00    +0.005 C 
ENDBRANCH   1  31
TORSDOF 2
