REMARK  Name = ZINC04685329
REMARK  4 active torsions:
REMARK  status: ('A' for Active; 'I' for Inactive)
REMARK    1  A    between atoms: C_1  and  C_2
REMARK    2  A    between atoms: C_2  and  C_3
REMARK    3  A    between atoms: C_6  and  C_9
REMARK    4  A    between atoms: C_12  and  C_21
REMARK                            x       y       z     vdW  Elec       q    Type
REMARK                         _______ _______ _______ _____ _____    ______ ____
ROOT
ATOM      1  C   UNL     1       2.707  -1.868  -4.752  0.00  0.00    +0.143 C 
ATOM      2  C   UNL     1       3.388  -3.212  -4.462  0.00  0.00    +0.058 C 
ATOM      3  C   UNL     1       4.326  -3.576  -5.618  0.00  0.00    +0.106 C 
ATOM      4  N   UNL     1       5.381  -2.548  -5.710  0.00  0.00    -0.307 N 
ATOM      5  C   UNL     1       4.964  -1.229  -5.590  0.00  0.00    +0.216 A 
ATOM      6  N   UNL     1       3.725  -0.896  -5.151  0.00  0.00    -0.224 N 
ATOM      7  N   UNL     1       3.655   0.497  -5.163  0.00  0.00    -0.132 NA
ATOM      8  C   UNL     1       4.817   0.931  -5.596  0.00  0.00    +0.233 A 
ATOM      9  N   UNL     1       5.612  -0.125  -5.850  0.00  0.00    -0.180 NA
ATOM     10  N   UNL     1       5.171   2.271  -5.761  0.00  0.00    -0.326 N 
ATOM     11  H   UNL     1       6.312  -2.780  -5.847  0.00  0.00    +0.149 HD
ATOM     12  H   UNL     1       4.534   2.971  -5.549  0.00  0.00    +0.145 HD
ATOM     13  H   UNL     1       6.055   2.503  -6.087  0.00  0.00    +0.145 HD
ENDROOT
BRANCH   3  14
ATOM     14  C   UNL     1       3.547  -3.624  -6.907  0.00  0.00    -0.026 A 
ATOM     15  C   UNL     1       3.246  -2.452  -7.576  0.00  0.00    +0.007 A 
ATOM     16  C   UNL     1       2.531  -2.495  -8.758  0.00  0.00    +0.022 A 
ATOM     17  C   UNL     1       2.116  -3.711  -9.272  0.00  0.00    +0.059 A 
ATOM     18  C   UNL     1       2.418  -4.884  -8.602  0.00  0.00    +0.060 A 
ATOM     19  C   UNL     1       3.139  -4.840  -7.422  0.00  0.00    +0.027 A 
ATOM     20 CL   UNL     1       1.899  -6.410  -9.246  0.00  0.00    -0.082 Cl
ATOM     21 CL   UNL     1       1.218  -3.764 -10.757  0.00  0.00    -0.082 Cl
ENDBRANCH   3  14
BRANCH   1  25
ATOM     22  C   UNL     1       0.707  -0.490  -1.238  0.00  0.00    -0.048 A 
ATOM     23  C   UNL     1      -0.011  -0.719  -2.397  0.00  0.00    +0.004 A 
ATOM     24  C   UNL     1       0.636  -1.164  -3.534  0.00  0.00    +0.006 A 
ATOM     25  C   UNL     1       2.002  -1.381  -3.513  0.00  0.00    -0.023 A 
ATOM     26  C   UNL     1       2.720  -1.152  -2.354  0.00  0.00    +0.006 A 
ATOM     27  C   UNL     1       2.073  -0.702  -1.218  0.00  0.00    +0.004 A 
BRANCH  22  29
ATOM     28  C   UNL     1      -0.019   1.526   0.010  0.00  0.00    +0.009 C 
ATOM     29  C   UNL     1       0.002  -0.004   0.002  0.00  0.00    +0.032 C 
ENDBRANCH  22  29
ENDBRANCH   1  25
TORSDOF 3
