REMARK  Name = ZINC10811730
REMARK  6 active torsions:
REMARK  status: ('A' for Active; 'I' for Inactive)
REMARK    1  A    between atoms: C_1  and  C_2
REMARK    2  A    between atoms: C_9  and  N_14
REMARK    3  A    between atoms: C_10  and  C_11
REMARK    4  A    between atoms: C_15  and  C_17
REMARK    5  A    between atoms: N_23  and  S_24
REMARK    6  A    between atoms: S_24  and  C_27
REMARK                            x       y       z     vdW  Elec       q    Type
REMARK                         _______ _______ _______ _____ _____    ______ ____
ROOT
ATOM      1  N   UNL     1       0.161   0.161  -0.292  0.00  0.00    -0.278 N 
ATOM      2  C   UNL     1       0.067   1.482  -0.047  0.00  0.00    +0.236 C 
ATOM      3  O   UNL     1       1.070   2.137   0.142  0.00  0.00    -0.274 OA
ATOM      4  H   UNL     1      -0.641  -0.363  -0.443  0.00  0.00    +0.155 HD
ENDROOT
BRANCH   1  12
ATOM      5  C   UNL     1       7.351  -2.923  -0.325  0.00  0.00    +0.008 C 
ATOM      6  C   UNL     1       5.847  -2.755  -0.098  0.00  0.00    -0.009 C 
ATOM      7  C   UNL     1       5.076  -3.554  -1.153  0.00  0.00    +0.008 C 
ATOM      8  C   UNL     1       3.591  -3.597  -0.789  0.00  0.00    +0.037 C 
ATOM      9  C   UNL     1       3.103  -2.174  -0.549  0.00  0.00    -0.023 A 
ATOM     10  C   UNL     1       3.975  -1.172  -0.302  0.00  0.00    -0.004 A 
ATOM     11  S   UNL     1       2.965   0.268  -0.100  0.00  0.00    -0.077 S 
ATOM     12  C   UNL     1       1.405  -0.451  -0.329  0.00  0.00    +0.084 A 
ATOM     13  C   UNL     1       1.703  -1.786  -0.564  0.00  0.00    +0.068 A 
ATOM     14  C   UNL     1       5.467  -1.272  -0.226  0.00  0.00    +0.046 C 
BRANCH  13  15
ATOM     15  C   UNL     1       0.644  -2.768  -0.817  0.00  0.00    +0.244 C 
ATOM     16  O   UNL     1       0.271  -2.980  -1.956  0.00  0.00    -0.270 OA
ATOM     17  N   UNL     1       0.085  -3.437   0.211  0.00  0.00    -0.325 N 
ATOM     18  H   UNL     1       0.383  -3.268   1.119  0.00  0.00    +0.145 HD
ATOM     19  H   UNL     1      -0.615  -4.087   0.043  0.00  0.00    +0.145 HD
ENDBRANCH  13  15
ENDBRANCH   1  12
BRANCH   2  20
ATOM     20  C   UNL     1      -1.285   2.148  -0.013  0.00  0.00    +0.166 C 
ATOM     21  C   UNL     1      -1.374   3.187  -1.136  0.00  0.00    +0.030 C 
ATOM     22  C   UNL     1      -2.692   3.955  -1.011  0.00  0.00    +0.003 C 
ATOM     23  C   UNL     1      -2.730   4.690   0.331  0.00  0.00    +0.017 C 
ATOM     24  C   UNL     1      -2.657   3.668   1.470  0.00  0.00    +0.110 C 
ATOM     25  N   UNL     1      -1.467   2.829   1.276  0.00  0.00    -0.164 NA
BRANCH  25  26
ATOM     26  S   UNL     1      -0.351   2.653   2.488  0.00  0.00    +0.068 S 
ATOM     27  O   UNL     1      -1.036   2.901   3.708  0.00  0.00    -0.152 OA
ATOM     28  O   UNL     1       0.337   1.436   2.233  0.00  0.00    -0.152 OA
BRANCH  26  29
ATOM     29  C   UNL     1       0.829   3.948   2.300  0.00  0.00    +0.144 A 
ATOM     30  C   UNL     1       0.821   5.194   2.834  0.00  0.00    +0.038 A 
ATOM     31  C   UNL     1       1.865   6.053   2.547  0.00  0.00    +0.030 A 
ATOM     32  C   UNL     1       2.868   5.623   1.741  0.00  0.00    +0.080 A 
ATOM     33  S   UNL     1       2.350   3.956   1.366  0.00  0.00    -0.057 S 
ATOM     34 CL   UNL     1       4.289   6.470   1.216  0.00  0.00    -0.076 Cl
ENDBRANCH  26  29
ENDBRANCH  25  26
ENDBRANCH   2  20
TORSDOF 5
