REMARK  Name = ZINC14697845
REMARK  12 active torsions:
REMARK  status: ('A' for Active; 'I' for Inactive)
REMARK    1  A    between atoms: C_1  and  C_2
REMARK    2  A    between atoms: C_2  and  C_3
REMARK    3  A    between atoms: C_3  and  C_4
REMARK    4  A    between atoms: C_4  and  C_5
REMARK    5  A    between atoms: C_5  and  N_6
REMARK    6  A    between atoms: N_6  and  C_7
REMARK    7  A    between atoms: C_8  and  N_20
REMARK    8  A    between atoms: N_9  and  C_16
REMARK    9  A    between atoms: C_16  and  C_17
REMARK   10  A    between atoms: C_17  and  C_18
REMARK   11  A    between atoms: C_18  and  C_19
REMARK   12  A    between atoms: C_21  and  C_23
REMARK                            x       y       z     vdW  Elec       q    Type
REMARK                         _______ _______ _______ _____ _____    ______ ____
ROOT
ATOM      1  C   UNL     1       1.040   3.124  -0.523  0.00  0.00    +0.140 A 
ATOM      2  C   UNL     1       0.360   3.417  -1.688  0.00  0.00    +0.127 A 
ATOM      3  N   UNL     1      -0.780   2.712  -1.995  0.00  0.00    -0.280 N 
ATOM      4  C   UNL     1      -1.225   1.744  -1.173  0.00  0.00    +0.331 A 
ATOM      5  O   UNL     1      -2.232   1.129  -1.464  0.00  0.00    -0.246 OA
ATOM      6  N   UNL     1      -0.578   1.448  -0.031  0.00  0.00    -0.273 N 
ATOM      7  H   UNL     1      -0.934   0.730   0.566  0.00  0.00    +0.173 HD
ATOM      8  C   UNL     1       0.544   2.109   0.317  0.00  0.00    +0.277 A 
ATOM      9  O   UNL     1       1.125   1.830   1.352  0.00  0.00    -0.266 OA
ENDROOT
BRANCH   1  10
ATOM     10  N   UNL     1       2.212   3.829  -0.180  0.00  0.00    -0.260 N 
ATOM     11  C   UNL     1       2.176   5.170  -0.045  0.00  0.00    +0.251 C 
ATOM     12  O   UNL     1       3.202   5.787   0.171  0.00  0.00    -0.270 OA
BRANCH  11  13
ATOM     13  C   UNL     1       0.891   5.891  -0.161  0.00  0.00    +0.038 A 
ATOM     14  C   UNL     1       0.877   7.257  -0.448  0.00  0.00    +0.013 A 
ATOM     15  C   UNL     1      -0.326   7.924  -0.555  0.00  0.00    +0.002 A 
ATOM     16  C   UNL     1      -1.517   7.242  -0.378  0.00  0.00    +0.014 A 
ATOM     17  C   UNL     1      -1.510   5.888  -0.093  0.00  0.00    +0.014 A 
ATOM     18  C   UNL     1      -0.313   5.207   0.012  0.00  0.00    +0.027 A 
ATOM     19  I   UNL     1      -3.320   4.866   0.172  0.00  0.00    -0.044 I 
ENDBRANCH  11  13
BRANCH  10  20
ATOM     20  C   UNL     1       3.468   3.105   0.031  0.00  0.00    +0.114 C 
BRANCH  20  21
ATOM     21  C   UNL     1       4.186   2.930  -1.309  0.00  0.00    +0.019 C 
BRANCH  21  22
ATOM     22  C   UNL     1       5.498   2.174  -1.089  0.00  0.00    +0.001 C 
BRANCH  22  24
ATOM     23  C   UNL     1       7.528   1.242  -2.209  0.00  0.00    +0.004 C 
ATOM     24  C   UNL     1       6.216   1.999  -2.429  0.00  0.00    -0.003 C 
ENDBRANCH  22  24
ENDBRANCH  21  22
ENDBRANCH  20  21
ENDBRANCH  10  20
ENDBRANCH   1  10
BRANCH   2  25
ATOM     25  N   UNL     1       0.816   4.403  -2.530  0.00  0.00    -0.343 N 
ATOM     26  H   UNL     1       1.685   4.807  -2.377  0.00  0.00    +0.144 HD
ATOM     27  H   UNL     1       0.270   4.693  -3.277  0.00  0.00    +0.144 HD
ENDBRANCH   2  25
BRANCH   3  28
ATOM     28  C   UNL     1      -1.512   3.013  -3.228  0.00  0.00    +0.128 C 
BRANCH  28  29
ATOM     29  C   UNL     1      -0.973   2.143  -4.365  0.00  0.00    +0.021 C 
BRANCH  29  30
ATOM     30  C   UNL     1      -1.738   2.456  -5.653  0.00  0.00    -0.002 C 
ATOM     31  C   UNL     1      -1.199   1.587  -6.791  0.00  0.00    +0.004 C 
ENDBRANCH  29  30
ENDBRANCH  28  29
ENDBRANCH   3  28
TORSDOF 10
