REMARK  Name = ZINC20134862
REMARK  6 active torsions:
REMARK  status: ('A' for Active; 'I' for Inactive)
REMARK    1  A    between atoms: C_1  and  C_2
REMARK    2  A    between atoms: C_5  and  C_8
REMARK    3  A    between atoms: C_10  and  C_26
REMARK    4  A    between atoms: C_12  and  C_18
REMARK    5  A    between atoms: C_21  and  O_25
REMARK    6  A    between atoms: C_22  and  O_24
REMARK                            x       y       z     vdW  Elec       q    Type
REMARK                         _______ _______ _______ _____ _____    ______ ____
ROOT
ATOM      1  C   UNL     1       1.042  -4.628   1.977  0.00  0.00    +0.076 A 
ATOM      2  C   UNL     1      -0.178  -5.267   1.793  0.00  0.00    +0.060 A 
ATOM      3  C   UNL     1      -1.583  -4.883   1.942  0.00  0.00    +0.078 A 
ATOM      4  C   UNL     1      -2.538  -5.845   1.650  0.00  0.00    +0.044 A 
ATOM      5  C   UNL     1      -2.142  -7.125   1.230  0.00  0.00    +0.074 A 
ATOM      6  N   UNL     1      -0.883  -7.478   1.093  0.00  0.00    -0.226 NA
ATOM      7  C   UNL     1       0.126  -6.635   1.346  0.00  0.00    +0.183 A 
ATOM      8  N   UNL     1       1.444  -6.732   1.291  0.00  0.00    -0.153 NA
ATOM      9  N   UNL     1       2.014  -5.512   1.669  0.00  0.00    -0.274 N 
ATOM     10  H   UNL     1       2.966  -5.329   1.706  0.00  0.00    +0.189 HD
ENDROOT
BRANCH   1  15
ATOM     11  C   UNL     1       1.806   0.803   3.714  0.00  0.00    +0.044 C 
ATOM     12  C   UNL     1       1.606  -0.619   3.259  0.00  0.00    -0.050 A 
ATOM     13  C   UNL     1       2.268  -1.083   2.136  0.00  0.00    +0.004 A 
ATOM     14  C   UNL     1       2.090  -2.384   1.714  0.00  0.00    +0.010 A 
ATOM     15  C   UNL     1       1.238  -3.234   2.423  0.00  0.00    +0.000 A 
ATOM     16  C   UNL     1       0.572  -2.759   3.556  0.00  0.00    +0.010 A 
ATOM     17  C   UNL     1       0.764  -1.457   3.970  0.00  0.00    +0.004 A 
ENDBRANCH   1  15
BRANCH   5  18
ATOM     18  C   UNL     1      -3.192  -8.125   0.927  0.00  0.00    +0.004 A 
ATOM     19  C   UNL     1      -4.539  -7.785   1.055  0.00  0.00    +0.014 A 
ATOM     20  C   UNL     1      -5.516  -8.717   0.773  0.00  0.00    +0.050 A 
ATOM     21  C   UNL     1      -5.162  -9.994   0.361  0.00  0.00    +0.158 A 
ATOM     22  C   UNL     1      -3.819 -10.339   0.231  0.00  0.00    +0.159 A 
ATOM     23  C   UNL     1      -2.836  -9.407   0.507  0.00  0.00    +0.059 A 
BRANCH  22  24
ATOM     24  O   UNL     1      -3.475 -11.591  -0.173  0.00  0.00    -0.503 OA
ATOM     25  H   UNL     1      -3.388 -11.685  -1.132  0.00  0.00    +0.292 HD
ENDBRANCH  22  24
BRANCH  21  26
ATOM     26  O   UNL     1      -6.128 -10.909   0.084  0.00  0.00    -0.503 OA
ATOM     27  H   UNL     1      -6.421 -10.905  -0.838  0.00  0.00    +0.292 HD
ENDBRANCH  21  26
ENDBRANCH   5  18
BRANCH   3  28
ATOM     28  C   UNL     1      -1.967  -3.529   2.387  0.00  0.00    +0.387 C 
ATOM     29  O   UNL     1      -2.675  -3.387   3.374  0.00  0.00    -0.241 OA
ATOM     30  O   UNL     1      -1.576  -2.549   1.769  0.00  0.00    -0.241 OA
ENDBRANCH   3  28
TORSDOF 5
