REMARK  Name = ZINC18157635
REMARK  9 active torsions:
REMARK  status: ('A' for Active; 'I' for Inactive)
REMARK    1  A    between atoms: C_4  and  C_7
REMARK    2  A    between atoms: C_8  and  C_18
REMARK    3  A    between atoms: N_10  and  C_12
REMARK    4  A    between atoms: C_18  and  N_19
REMARK    5  A    between atoms: C_20  and  C_22
REMARK    6  A    between atoms: C_22  and  C_23
REMARK    7  A    between atoms: C_23  and  C_24
REMARK    8  A    between atoms: C_24  and  N_25
REMARK    9  A    between atoms: C_29  and  N_35
REMARK                            x       y       z     vdW  Elec       q    Type
REMARK                         _______ _______ _______ _____ _____    ______ ____
ROOT
ATOM      1  N   UNL     1       4.382   3.580   0.566  0.00  0.00    -0.311 N 
ATOM      2  C   UNL     1       5.551   3.138   1.070  0.00  0.00    +0.213 C 
ATOM      3  O   UNL     1       5.697   3.042   2.270  0.00  0.00    -0.276 OA
ATOM      4  H   UNL     1       4.265   3.656  -0.394  0.00  0.00    +0.149 HD
ENDROOT
BRANCH   1   5
ATOM      5  C   UNL     1       3.287   3.944   1.468  0.00  0.00    +0.143 C 
BRANCH   5   7
ATOM      6  C   UNL     1       1.168   3.570   0.010  0.00  0.00    +0.098 A 
ATOM      7  C   UNL     1       2.101   4.403   0.659  0.00  0.00    +0.015 A 
ATOM      8  C   UNL     1       1.744   5.685   0.429  0.00  0.00    +0.120 A 
ATOM      9  N   UNL     1       0.623   5.674  -0.340  0.00  0.00    -0.239 N 
ATOM     10  N   UNL     1       0.286   4.338  -0.594  0.00  0.00    -0.166 NA
BRANCH   6  14
ATOM     11  C   UNL     1       1.208  -0.682  -0.014  0.00  0.00    +0.000 A 
ATOM     12  C   UNL     1       0.002  -0.004   0.002  0.00  0.00    +0.001 A 
ATOM     13  C   UNL     1      -0.017   1.376   0.010  0.00  0.00    +0.010 A 
ATOM     14  C   UNL     1       1.182   2.086   0.002  0.00  0.00    +0.002 A 
ATOM     15  C   UNL     1       2.394   1.399  -0.013  0.00  0.00    +0.010 A 
ATOM     16  C   UNL     1       2.401   0.018  -0.021  0.00  0.00    +0.001 A 
ENDBRANCH   6  14
BRANCH   9  17
ATOM     17  C   UNL     1      -0.069   6.801  -0.803  0.00  0.00    +0.065 A 
ATOM     18  C   UNL     1       0.377   8.074  -0.476  0.00  0.00    +0.028 A 
ATOM     19  C   UNL     1      -0.305   9.183  -0.938  0.00  0.00    +0.002 A 
ATOM     20  C   UNL     1      -1.437   9.025  -1.716  0.00  0.00    +0.000 A 
ATOM     21  C   UNL     1      -1.887   7.758  -2.039  0.00  0.00    +0.002 A 
ATOM     22  C   UNL     1      -1.206   6.646  -1.585  0.00  0.00    +0.028 A 
ENDBRANCH   9  17
ENDBRANCH   5   7
ENDBRANCH   1   5
BRANCH   2  23
ATOM     23  C   UNL     1       6.678   2.763   0.142  0.00  0.00    +0.097 C 
BRANCH  23  24
ATOM     24  C   UNL     1       7.882   2.298   0.964  0.00  0.00    +0.031 C 
BRANCH  24  25
ATOM     25  C   UNL     1       9.025   1.917   0.021  0.00  0.00    +0.129 C 
BRANCH  25  26
ATOM     26  N   UNL     1      10.178   1.471   0.808  0.00  0.00    -0.274 N 
ATOM     27  C   UNL     1      11.213   2.276   1.284  0.00  0.00    +0.090 A 
ATOM     28  C   UNL     1      11.484   3.632   1.189  0.00  0.00    +0.032 A 
ATOM     29  C   UNL     1      12.620   4.148   1.781  0.00  0.00    +0.035 A 
ATOM     30  C   UNL     1      13.487   3.315   2.468  0.00  0.00    +0.130 A 
ATOM     31  C   UNL     1      13.219   1.965   2.574  0.00  0.00    +0.081 A 
ATOM     32  C   UNL     1      12.084   1.437   1.978  0.00  0.00    +0.159 A 
ATOM     33  O   UNL     1      11.579   0.181   1.902  0.00  0.00    -0.407 OA
ATOM     34  C   UNL     1      10.436   0.207   1.199  0.00  0.00    +0.421 A 
ATOM     35  O   UNL     1       9.740  -0.759   0.953  0.00  0.00    -0.223 OA
BRANCH  30  36
ATOM     36  N   UNL     1      14.703   3.877   3.099  0.00  0.00    +0.057 N 
ATOM     37  O   UNL     1      14.938   5.069   3.014  0.00  0.00    -0.126 OA
ATOM     38  O   UNL     1      15.467   3.146   3.704  0.00  0.00    -0.126 OA
ENDBRANCH  30  36
ENDBRANCH  25  26
ENDBRANCH  24  25
ENDBRANCH  23  24
ENDBRANCH   2  23
TORSDOF 9
