REMARK  Name = ZINC02279824
REMARK  7 active torsions:
REMARK  status: ('A' for Active; 'I' for Inactive)
REMARK    1  A    between atoms: C_1  and  O_2
REMARK    2  A    between atoms: O_2  and  C_3
REMARK    3  A    between atoms: C_8  and  C_9
REMARK    4  A    between atoms: C_9  and  N_10
REMARK    5  A    between atoms: C_11  and  C_13
REMARK    6  A    between atoms: N_24  and  C_27
REMARK    7  A    between atoms: C_25  and  N_26
REMARK                            x       y       z     vdW  Elec       q    Type
REMARK                         _______ _______ _______ _____ _____    ______ ____
ROOT
ATOM      1  C   UNL     1       0.721   9.462   0.753  0.00  0.00    +0.104 A 
ATOM      2  C   UNL     1       1.329   9.534  -0.586  0.00  0.00    +0.123 A 
ATOM      3  C   UNL     1       1.532   8.142  -0.997  0.00  0.00    +0.166 A 
ATOM      4  N   UNL     1       2.062   7.886  -2.173  0.00  0.00    -0.225 NA
ATOM      5  C   UNL     1       2.420   8.895  -2.978  0.00  0.00    +0.092 A 
ATOM      6  C   UNL     1       2.993   8.629  -4.236  0.00  0.00    +0.030 A 
ATOM      7  C   UNL     1       3.354   9.660  -5.046  0.00  0.00    +0.002 A 
ATOM      8  C   UNL     1       3.165  10.983  -4.651  0.00  0.00    +0.002 A 
ATOM      9  C   UNL     1       2.615  11.280  -3.443  0.00  0.00    +0.030 A 
ATOM     10  C   UNL     1       2.228  10.240  -2.576  0.00  0.00    +0.090 A 
ATOM     11  N   UNL     1       1.685  10.520  -1.385  0.00  0.00    -0.241 NA
ATOM     12  N   UNL     1       1.064   7.346   0.031  0.00  0.00    -0.280 N 
ATOM     13  C   UNL     1       0.592   8.111   1.056  0.00  0.00    +0.117 A 
ENDROOT
BRANCH  12  14
ATOM     14  C   UNL     1       1.077   5.946   0.023  0.00  0.00    +0.050 A 
ATOM     15  C   UNL     1       2.301   5.265   0.008  0.00  0.00    +0.027 A 
ATOM     16  C   UNL     1       2.344   3.907   0.001  0.00  0.00    +0.010 A 
ATOM     17  C   UNL     1       1.148   3.167   0.008  0.00  0.00    -0.018 A 
ATOM     18  C   UNL     1       1.163   1.762   0.000  0.00  0.00    +0.008 A 
ATOM     19  C   UNL     1      -0.013   1.076   0.008  0.00  0.00    +0.001 A 
ATOM     20  C   UNL     1      -1.235   1.746   0.017  0.00  0.00    +0.001 A 
ATOM     21  C   UNL     1      -1.288   3.105   0.030  0.00  0.00    +0.008 A 
ATOM     22  C   UNL     1      -0.095   3.848   0.023  0.00  0.00    -0.016 A 
ATOM     23  C   UNL     1      -0.112   5.253   0.030  0.00  0.00    +0.034 A 
ENDBRANCH  12  14
BRANCH   1  25
ATOM     24  N   UNL     1      -0.914  11.101   1.503  0.00  0.00    -0.307 N 
ATOM     25  C   UNL     1       0.329  10.589   1.597  0.00  0.00    +0.250 C 
ATOM     26  O   UNL     1       1.126  11.064   2.385  0.00  0.00    -0.270 OA
ATOM     27  H   UNL     1      -1.549  10.722   0.875  0.00  0.00    +0.149 HD
BRANCH  24  28
ATOM     28  C   UNL     1      -1.307  12.230   2.349  0.00  0.00    +0.143 C 
BRANCH  28  34
ATOM     29  C   UNL     1      -3.776  11.879   2.603  0.00  0.00    +0.125 A 
ATOM     30  C   UNL     1      -5.090  12.230   2.327  0.00  0.00    +0.046 A 
ATOM     31  C   UNL     1      -5.357  13.306   1.504  0.00  0.00    +0.004 A 
ATOM     32  C   UNL     1      -4.316  14.033   0.955  0.00  0.00    +0.001 A 
ATOM     33  C   UNL     1      -3.007  13.688   1.232  0.00  0.00    +0.009 A 
ATOM     34  C   UNL     1      -2.734  12.609   2.051  0.00  0.00    +0.011 A 
BRANCH  29  36
ATOM     35  C   UNL     1      -4.633  10.114   3.947  0.00  0.00    +0.277 C 
ATOM     36  O   UNL     1      -3.511  10.820   3.414  0.00  0.00    -0.495 OA
ENDBRANCH  29  36
ENDBRANCH  28  34
ENDBRANCH  24  28
ENDBRANCH   1  25
BRANCH  13  37
ATOM     37  N   UNL     1       0.065   7.618   2.221  0.00  0.00    -0.343 N 
ATOM     38  H   UNL     1       0.009   6.660   2.361  0.00  0.00    +0.144 HD
ATOM     39  H   UNL     1      -0.251   8.227   2.907  0.00  0.00    +0.144 HD
ENDBRANCH  13  37
TORSDOF 6
