REMARK  Name = ZINC13189324
REMARK  10 active torsions:
REMARK  status: ('A' for Active; 'I' for Inactive)
REMARK    1  A    between atoms: C_1  and  C_2
REMARK    2  A    between atoms: C_5  and  N_9
REMARK    3  A    between atoms: C_10  and  C_12
REMARK    4  A    between atoms: C_12  and  S_13
REMARK    5  A    between atoms: S_13  and  C_14
REMARK    6  A    between atoms: C_15  and  C_35
REMARK    7  A    between atoms: C_16  and  C_26
REMARK    8  A    between atoms: C_29  and  O_34
REMARK    9  A    between atoms: C_30  and  O_32
REMARK   10  A    between atoms: O_32  and  C_33
REMARK                            x       y       z     vdW  Elec       q    Type
REMARK                         _______ _______ _______ _____ _____    ______ ____
ROOT
ATOM      1  C   UNL     1       0.595  -8.711   2.632  0.00  0.00    +0.112 C 
ATOM      2  C   UNL     1       0.714  -9.497   3.765  0.00  0.00    +0.073 C 
ATOM      3  C   UNL     1       0.839 -10.997   3.561  0.00  0.00    +0.097 C 
ATOM      4  C   UNL     1       0.817 -11.472   2.121  0.00  0.00    +0.029 C 
ATOM      5  C   UNL     1       0.918 -12.782   1.846  0.00  0.00    +0.162 C 
ATOM      6  C   UNL     1       0.901 -13.288   0.428  0.00  0.00    +0.080 C 
ATOM      7  C   UNL     1       0.070 -12.337  -0.438  0.00  0.00    +0.014 C 
ATOM      8  C   UNL     1       0.664 -10.930  -0.338  0.00  0.00    +0.056 C 
ATOM      9  C   UNL     1       0.688 -10.502   1.110  0.00  0.00    +0.050 C 
ATOM     10  N   UNL     1       0.582  -9.230   1.402  0.00  0.00    -0.244 NA
ATOM     11  O   UNL     1       1.038 -13.663   2.860  0.00  0.00    -0.292 OA
ENDROOT
BRANCH   3  12
ATOM     12  C   UNL     1       2.134 -11.450   4.184  0.00  0.00    -0.031 A 
ATOM     13  C   UNL     1       3.334 -10.928   3.738  0.00  0.00    +0.008 A 
ATOM     14  C   UNL     1       4.525 -11.341   4.306  0.00  0.00    +0.049 A 
ATOM     15  C   UNL     1       4.518 -12.281   5.324  0.00  0.00    +0.158 A 
ATOM     16  C   UNL     1       3.310 -12.807   5.772  0.00  0.00    +0.162 A 
ATOM     17  C   UNL     1       2.120 -12.385   5.203  0.00  0.00    +0.054 A 
BRANCH  16  18
ATOM     18  O   UNL     1       3.298 -13.729   6.771  0.00  0.00    -0.491 OA
ATOM     19  C   UNL     1       2.022 -14.226   7.181  0.00  0.00    +0.277 C 
ENDBRANCH  16  18
BRANCH  15  20
ATOM     20  O   UNL     1       5.689 -12.688   5.883  0.00  0.00    -0.503 OA
ATOM     21  H   UNL     1       5.967 -12.159   6.642  0.00  0.00    +0.292 HD
ENDBRANCH  15  20
ENDBRANCH   3  12
BRANCH   2  22
ATOM     22  C   UNL     1       0.721  -8.920   5.076  0.00  0.00    +0.098 C 
ATOM     23  N   UNL     1       0.726  -8.462   6.115  0.00  0.00    -0.191 NA
ENDBRANCH   2  22
BRANCH   1  24
ATOM     24  S   UNL     1       0.447  -6.965   2.820  0.00  0.00    -0.096 S 
BRANCH  24  25
ATOM     25  C   UNL     1       0.310  -6.351   1.119  0.00  0.00    +0.172 C 
BRANCH  25  27
ATOM     26  N   UNL     1       0.059  -4.170  -0.022  0.00  0.00    -0.285 N 
ATOM     27  C   UNL     1       0.176  -4.850   1.136  0.00  0.00    +0.227 C 
ATOM     28  O   UNL     1       0.174  -4.254   2.192  0.00  0.00    -0.275 OA
ATOM     29  H   UNL     1      -0.015  -4.651  -0.861  0.00  0.00    +0.155 HD
BRANCH  26  34
ATOM     30  C   UNL     1       0.008   1.503   0.012  0.00  0.00    +0.045 C 
ATOM     31  C   UNL     1       0.022  -0.004   0.003  0.00  0.00    -0.032 A 
ATOM     32  C   UNL     1       0.777  -0.693   0.934  0.00  0.00    +0.006 A 
ATOM     33  C   UNL     1       0.792  -2.074   0.928  0.00  0.00    +0.023 A 
ATOM     34  C   UNL     1       0.046  -2.771  -0.014  0.00  0.00    +0.035 A 
ATOM     35  C   UNL     1      -0.712  -2.078  -0.948  0.00  0.00    +0.043 A 
ATOM     36  C   UNL     1      -0.726  -0.695  -0.934  0.00  0.00    +0.046 A 
ATOM     37 CL   UNL     1      -1.678   0.174  -2.096  0.00  0.00    -0.083 Cl
ENDBRANCH  26  34
ENDBRANCH  25  27
ENDBRANCH  24  25
ENDBRANCH   1  24
TORSDOF 8
