REMARK  Name = ZINC13064299
REMARK  13 active torsions:
REMARK  status: ('A' for Active; 'I' for Inactive)
REMARK    1  A    between atoms: C_1  and  C_2
REMARK    2  A    between atoms: C_2  and  C_3
REMARK    3  A    between atoms: C_3  and  C_5
REMARK    4  A    between atoms: C_3  and  N_74
REMARK    5  A    between atoms: N_9  and  C_10
REMARK    6  A    between atoms: C_10  and  C_11
REMARK    7  A    between atoms: C_14  and  O_17
REMARK    8  A    between atoms: O_17  and  C_18
REMARK    9  A    between atoms: C_19  and  C_20
REMARK   10  A    between atoms: C_19  and  N_74
REMARK   11  A    between atoms: C_25  and  O_32
REMARK   12  A    between atoms: O_32  and  C_33
REMARK   13  A    between atoms: C_34  and  N_74
REMARK                            x       y       z     vdW  Elec       q    Type
REMARK                         _______ _______ _______ _____ _____    ______ ____
ROOT
ATOM      1  N   UNL     1      -8.226  -1.240   3.528  0.00  0.00    +0.391 N 
ATOM      2  H   UNL     1      -7.558  -1.889   3.095  0.00  0.00    -0.080 HD
ENDROOT
BRANCH   1   3
ATOM      3  C   UNL     1      -7.586  -0.603   4.698  0.00  0.00    -0.067 C 
ATOM      4  C   UNL     1      -8.360   0.649   5.116  0.00  0.00    -0.015 C 
ATOM      5  C   UNL     1      -7.673   1.293   6.322  0.00  0.00    -0.002 C 
ATOM      6  C   UNL     1      -6.241   1.680   5.948  0.00  0.00    -0.000 C 
ATOM      7  C   UNL     1      -5.467   0.428   5.530  0.00  0.00    -0.002 C 
ATOM      8  C   UNL     1      -6.154  -0.216   4.324  0.00  0.00    -0.015 C 
ENDBRANCH   1   3
BRANCH   1   9
ATOM      9  C   UNL     1      -9.422  -1.996   3.956  0.00  0.00    +0.003 C 
BRANCH   9  10
ATOM     10  C   UNL     1     -10.490  -1.057   4.454  0.00  0.00    +0.138 A 
ATOM     11  N   UNL     1     -10.657   0.195   4.104  0.00  0.00    -0.115 NA
ATOM     12  N   UNL     1     -11.675   0.655   4.745  0.00  0.00    -0.023 NA
ATOM     13  N   UNL     1     -12.158  -0.268   5.501  0.00  0.00    -0.044 NA
ATOM     14  N   UNL     1     -11.454  -1.339   5.350  0.00  0.00    -0.226 N 
BRANCH  14  15
ATOM     15  C   UNL     1     -11.664  -2.621   6.027  0.00  0.00    +0.182 C 
BRANCH  15  16
ATOM     16  C   UNL     1     -10.879  -2.646   7.313  0.00  0.00    -0.026 A 
ATOM     17  C   UNL     1      -9.582  -3.124   7.320  0.00  0.00    +0.009 A 
ATOM     18  C   UNL     1      -8.857  -3.142   8.496  0.00  0.00    +0.046 A 
ATOM     19  C   UNL     1      -9.437  -2.690   9.673  0.00  0.00    +0.120 A 
ATOM     20  C   UNL     1     -10.741  -2.216   9.664  0.00  0.00    +0.046 A 
ATOM     21  C   UNL     1     -11.459  -2.195   8.484  0.00  0.00    +0.009 A 
BRANCH  19  22
ATOM     22  O   UNL     1      -8.729  -2.711  10.833  0.00  0.00    -0.495 OA
ATOM     23  C   UNL     1      -7.392  -3.212  10.767  0.00  0.00    +0.277 C 
ENDBRANCH  19  22
ENDBRANCH  15  16
ENDBRANCH  14  15
ENDBRANCH   9  10
BRANCH   9  25
ATOM     24  C   UNL     1      -8.913  -3.818   2.324  0.00  0.00    +0.002 C 
ATOM     25  C   UNL     1      -9.957  -2.790   2.762  0.00  0.00    -0.011 C 
ENDBRANCH   9  25
ENDBRANCH   1   9
BRANCH   1  26
ATOM     26  C   UNL     1      -8.606  -0.211   2.538  0.00  0.00    -0.036 C 
BRANCH  26  27
ATOM     27  C   UNL     1      -8.484  -0.805   1.158  0.00  0.00    +0.001 A 
ATOM     28  C   UNL     1      -9.540  -0.758   0.306  0.00  0.00    +0.017 A 
ATOM     29  C   UNL     1      -9.389  -1.343  -1.026  0.00  0.00    -0.001 A 
ATOM     30  C   UNL     1     -10.444  -1.325  -1.946  0.00  0.00    +0.013 A 
ATOM     31  C   UNL     1     -10.273  -1.873  -3.184  0.00  0.00    +0.046 A 
ATOM     32  C   UNL     1      -9.060  -2.463  -3.535  0.00  0.00    +0.122 A 
ATOM     33  C   UNL     1      -8.005  -2.492  -2.639  0.00  0.00    +0.072 A 
ATOM     34  C   UNL     1      -8.159  -1.933  -1.377  0.00  0.00    +0.053 A 
ATOM     35  N   UNL     1      -7.125  -1.948  -0.465  0.00  0.00    -0.322 N 
ATOM     36  H   UNL     1      -6.279  -2.354  -0.708  0.00  0.00    +0.169 HD
ATOM     37  C   UNL     1      -7.274  -1.407   0.757  0.00  0.00    +0.251 A 
ATOM     38  O   UNL     1      -6.339  -1.438   1.539  0.00  0.00    -0.268 OA
BRANCH  32  39
ATOM     39  O   UNL     1      -8.909  -3.009  -4.769  0.00  0.00    -0.495 OA
ATOM     40  C   UNL     1     -10.035  -2.947  -5.648  0.00  0.00    +0.277 C 
ENDBRANCH  32  39
ENDBRANCH  26  27
ENDBRANCH   1  26
TORSDOF 10
