REMARK  Name = ZINC08978147
REMARK  7 active torsions:
REMARK  status: ('A' for Active; 'I' for Inactive)
REMARK    1  A    between atoms: C_1  and  C_2
REMARK    2  A    between atoms: C_3  and  C_17
REMARK    3  A    between atoms: N_7  and  S_8
REMARK    4  A    between atoms: S_8  and  C_11
REMARK    5  A    between atoms: N_19  and  C_20
REMARK    6  A    between atoms: C_20  and  C_21
REMARK    7  A    between atoms: C_21  and  C_22
REMARK                            x       y       z     vdW  Elec       q    Type
REMARK                         _______ _______ _______ _____ _____    ______ ____
ROOT
ATOM      1  C   UNL     1       2.096  -3.036  -0.034  0.00  0.00    +0.067 C 
ATOM      2  C   UNL     1       0.901  -2.118  -0.018  0.00  0.00    +0.060 A 
ATOM      3  C   UNL     1      -0.391  -2.625  -0.008  0.00  0.00    +0.098 A 
ATOM      4  S   UNL     1      -1.337  -1.109   0.009  0.00  0.00    -0.046 S 
ATOM      5  C   UNL     1       0.002  -0.004   0.002  0.00  0.00    +0.178 A 
ATOM      6  N   UNL     1       1.046  -0.819  -0.018  0.00  0.00    -0.228 NA
ATOM      7  N   UNL     1      -0.017   1.374   0.010  0.00  0.00    -0.194 N 
ATOM      8  H   UNL     1      -0.863   1.848   0.016  0.00  0.00    +0.176 HD
ENDROOT
BRANCH   3   9
ATOM      9  C   UNL     1      -0.850  -4.013  -0.012  0.00  0.00    +0.253 C 
ATOM     10  O   UNL     1      -0.040  -4.922  -0.025  0.00  0.00    -0.270 OA
ATOM     11  N   UNL     1      -2.170  -4.286  -0.001  0.00  0.00    -0.311 N 
ATOM     12  H   UNL     1      -2.815  -3.562   0.010  0.00  0.00    +0.149 HD
BRANCH  11  13
ATOM     13  C   UNL     1      -2.630  -5.677  -0.004  0.00  0.00    +0.109 C 
BRANCH  13  14
ATOM     14  C   UNL     1      -4.160  -5.708   0.011  0.00  0.00    +0.056 C 
BRANCH  14  15
ATOM     15  C   UNL     1      -4.633  -7.139   0.007  0.00  0.00    -0.021 A 
ATOM     16  C   UNL     1      -4.989  -7.859  -1.068  0.00  0.00    +0.087 A 
ATOM     17  N   UNL     1      -5.361  -9.119  -0.684  0.00  0.00    -0.360 N 
ATOM     18  H   UNL     1      -5.656  -9.820  -1.285  0.00  0.00    +0.165 HD
ATOM     19  C   UNL     1      -5.258  -9.240   0.684  0.00  0.00    +0.047 A 
ATOM     20  C   UNL     1      -4.798  -8.005   1.177  0.00  0.00    +0.003 A 
ATOM     21  C   UNL     1      -4.597  -7.833   2.547  0.00  0.00    +0.010 A 
ATOM     22  C   UNL     1      -4.850  -8.866   3.405  0.00  0.00    +0.001 A 
ATOM     23  C   UNL     1      -5.304 -10.086   2.924  0.00  0.00    +0.002 A 
ATOM     24  C   UNL     1      -5.509 -10.278   1.575  0.00  0.00    +0.026 A 
ENDBRANCH  14  15
ENDBRANCH  13  14
ENDBRANCH  11  13
ENDBRANCH   3   9
BRANCH   7  25
ATOM     25  S   UNL     1       1.406   2.222   0.001  0.00  0.00    +0.074 S 
ATOM     26  O   UNL     1       1.058   3.599  -0.016  0.00  0.00    -0.150 OA
ATOM     27  O   UNL     1       2.223   1.654   1.015  0.00  0.00    -0.150 OA
BRANCH  25  28
ATOM     28  C   UNL     1       2.203   1.885  -1.534  0.00  0.00    +0.109 A 
ATOM     29  C   UNL     1       3.080   0.822  -1.639  0.00  0.00    +0.029 A 
ATOM     30  C   UNL     1       3.701   0.555  -2.845  0.00  0.00    +0.002 A 
ATOM     31  C   UNL     1       3.454   1.358  -3.943  0.00  0.00    +0.000 A 
ATOM     32  C   UNL     1       2.581   2.425  -3.836  0.00  0.00    +0.002 A 
ATOM     33  C   UNL     1       1.956   2.688  -2.632  0.00  0.00    +0.029 A 
ENDBRANCH  25  28
ENDBRANCH   7  25
TORSDOF 6
