REMARK  Name = ZINC65203595
REMARK  7 active torsions:
REMARK  status: ('A' for Active; 'I' for Inactive)
REMARK    1  A    between atoms: C_1  and  C_2
REMARK    2  A    between atoms: C_3  and  C_26
REMARK    3  A    between atoms: C_9  and  C_12
REMARK    4  A    between atoms: N_14  and  N_15
REMARK    5  A    between atoms: N_18  and  C_19
REMARK    6  A    between atoms: C_19  and  C_20
REMARK    7  A    between atoms: C_20  and  C_21
REMARK                            x       y       z     vdW  Elec       q    Type
REMARK                         _______ _______ _______ _____ _____    ______ ____
ROOT
ATOM      1  C   UNL     1       0.068  -1.528   4.877  0.00  0.00    +0.260 C 
ATOM      2  O   UNL     1       0.057  -0.396   5.321  0.00  0.00    -0.269 OA
ATOM      3  N   UNL     1       0.090  -2.581   5.718  0.00  0.00    -0.229 N 
ATOM      4  H   UNL     1       0.099  -3.484   5.364  0.00  0.00    +0.173 HD
ENDROOT
BRANCH   1  13
ATOM      5  C   UNL     1      -0.018   1.503   0.010  0.00  0.00    +0.046 C 
ATOM      6  C   UNL     1       0.002  -0.004   0.002  0.00  0.00    -0.022 A 
ATOM      7  C   UNL     1       0.009  -0.797  -1.081  0.00  0.00    +0.017 A 
ATOM      8  N   UNL     1       0.028  -2.111  -0.697  0.00  0.00    -0.358 N 
ATOM      9  H   UNL     1       0.036  -2.868  -1.304  0.00  0.00    +0.166 HD
ATOM     10  C   UNL     1       0.035  -2.200   0.674  0.00  0.00    +0.047 A 
ATOM     11  C   UNL     1       0.025  -0.883   1.175  0.00  0.00    +0.004 A 
ATOM     12  C   UNL     1       0.035  -0.661   2.549  0.00  0.00    +0.023 A 
ATOM     13  C   UNL     1       0.058  -1.749   3.417  0.00  0.00    +0.039 A 
ATOM     14  C   UNL     1       0.071  -3.054   2.906  0.00  0.00    +0.015 A 
ATOM     15  C   UNL     1       0.053  -3.275   1.561  0.00  0.00    +0.027 A 
ATOM     16  C   UNL     1      -0.005  -0.313  -2.507  0.00  0.00    +0.063 C 
ENDBRANCH   1  13
BRANCH   3  17
ATOM     17  N   UNL     1       0.100  -2.372   7.103  0.00  0.00    -0.218 N 
ATOM     18  C   UNL     1       0.122  -3.425   7.944  0.00  0.00    +0.316 C 
ATOM     19  O   UNL     1       0.130  -3.243   9.146  0.00  0.00    -0.251 OA
ATOM     20  N   UNL     1       0.134  -4.679   7.452  0.00  0.00    -0.298 N 
ATOM     21  H   UNL     1       0.091  -1.468   7.457  0.00  0.00    +0.174 HD
ATOM     22  H   UNL     1       0.127  -4.824   6.493  0.00  0.00    +0.150 HD
BRANCH  20  23
ATOM     23  C   UNL     1       0.158  -5.824   8.366  0.00  0.00    +0.111 C 
BRANCH  23  24
ATOM     24  C   UNL     1       0.168  -7.123   7.556  0.00  0.00    +0.061 C 
BRANCH  24  25
ATOM     25  C   UNL     1       0.193  -8.300   8.497  0.00  0.00    -0.009 A 
ATOM     26  C   UNL     1      -0.846  -8.985   9.034  0.00  0.00    +0.011 A 
ATOM     27  C   UNL     1      -0.584 -10.045   9.882  0.00  0.00    +0.008 A 
ATOM     28  C   UNL     1       0.705 -10.368  10.150  0.00  0.00    +0.045 A 
ATOM     29  S   UNL     1       1.597  -9.160   9.185  0.00  0.00    -0.102 S 
ENDBRANCH  24  25
ENDBRANCH  23  24
ENDBRANCH  20  23
ENDBRANCH   3  17
TORSDOF 5
