REMARK  Name = ZINC39597648
REMARK  7 active torsions:
REMARK  status: ('A' for Active; 'I' for Inactive)
REMARK    1  A    between atoms: C_7  and  C_10
REMARK    2  A    between atoms: C_10  and  C_11
REMARK    3  A    between atoms: C_11  and  N_12
REMARK    4  A    between atoms: C_13  and  C_15
REMARK    5  A    between atoms: C_26  and  C_28
REMARK    6  A    between atoms: C_31  and  O_34
REMARK    7  A    between atoms: O_34  and  C_35
REMARK                            x       y       z     vdW  Elec       q    Type
REMARK                         _______ _______ _______ _____ _____    ______ ____
ROOT
ATOM      1  C   UNL     1      -6.072   6.600  -2.694  0.00  0.00    +0.100 C 
ATOM      2  C   UNL     1      -7.459   6.907  -2.086  0.00  0.00    +0.121 C 
ATOM      3  N   UNL     1      -8.005   7.995  -2.930  0.00  0.00    -0.296 N 
ATOM      4  C   UNL     1      -7.595   7.635  -4.308  0.00  0.00    +0.115 C 
ATOM      5  C   UNL     1      -6.166   7.079  -4.153  0.00  0.00    -0.004 C 
ATOM      6  C   UNL     1      -5.949   5.909  -5.107  0.00  0.00    -0.010 C 
ATOM      7  C   UNL     1      -5.988   6.419  -6.551  0.00  0.00    -0.082 C 
ATOM      8  N   UNL     1      -4.944   7.433  -6.742  0.00  0.00    +0.379 N 
ATOM      9  C   UNL     1      -5.213   8.595  -5.887  0.00  0.00    -0.082 C 
ATOM     10  C   UNL     1      -5.140   8.177  -4.416  0.00  0.00    -0.010 C 
ATOM     11  C   UNL     1      -8.715   9.071  -2.534  0.00  0.00    +0.247 C 
ATOM     12  O   UNL     1      -8.863   9.298  -1.349  0.00  0.00    -0.270 OA
ATOM     13  H   UNL     1      -4.047   7.040  -6.501  0.00  0.00    -0.086 HD
ATOM     14  H   UNL     1      -4.933   7.723  -7.708  0.00  0.00    -0.086 HD
ENDROOT
BRANCH  11  15
ATOM     15  C   UNL     1      -9.311   9.972  -3.539  0.00  0.00    +0.037 A 
ATOM     16  C   UNL     1      -9.531   9.520  -4.843  0.00  0.00    +0.016 A 
ATOM     17  C   UNL     1     -10.088  10.364  -5.778  0.00  0.00    +0.047 A 
ATOM     18  C   UNL     1     -10.432  11.664  -5.426  0.00  0.00    +0.130 A 
ATOM     19  C   UNL     1     -10.215  12.118  -4.130  0.00  0.00    +0.047 A 
ATOM     20  C   UNL     1      -9.663  11.278  -3.188  0.00  0.00    +0.016 A 
BRANCH  18  21
ATOM     21  O   UNL     1     -10.980  12.493  -6.350  0.00  0.00    -0.406 OA
BRANCH  21  22
ATOM     22  C   UNL     1     -11.309  13.816  -5.921  0.00  0.00    +0.575 C 
ATOM     23  F   UNL     1     -10.151  14.463  -5.475  0.00  0.00    -0.133 F 
ATOM     24  F   UNL     1     -11.859  14.530  -6.991  0.00  0.00    -0.133 F 
ATOM     25  F   UNL     1     -12.238  13.750  -4.877  0.00  0.00    -0.133 F 
ENDBRANCH  21  22
ENDBRANCH  18  21
ENDBRANCH  11  15
BRANCH   1  27
ATOM     26  N   UNL     1      -4.524   4.677  -2.533  0.00  0.00    -0.315 N 
ATOM     27  C   UNL     1      -5.792   5.120  -2.644  0.00  0.00    +0.218 C 
ATOM     28  O   UNL     1      -6.708   4.328  -2.704  0.00  0.00    -0.275 OA
ATOM     29  H   UNL     1      -3.792   5.311  -2.485  0.00  0.00    +0.149 HD
BRANCH  26  30
ATOM     30  C   UNL     1      -4.253   3.239  -2.484  0.00  0.00    +0.109 C 
BRANCH  30  31
ATOM     31  C   UNL     1      -2.745   3.008  -2.357  0.00  0.00    +0.056 C 
BRANCH  31  38
ATOM     32  C   UNL     1      -2.168  -0.261  -5.667  0.00  0.00    +0.001 A 
ATOM     33  C   UNL     1      -1.924  -1.523  -5.144  0.00  0.00    +0.002 A 
ATOM     34  C   UNL     1      -1.872  -1.721  -3.781  0.00  0.00    +0.026 A 
ATOM     35  C   UNL     1      -2.064  -0.646  -2.919  0.00  0.00    +0.047 A 
ATOM     36  N   UNL     1      -2.072  -0.520  -1.548  0.00  0.00    -0.360 N 
ATOM     37  C   UNL     1      -2.313   0.781  -1.202  0.00  0.00    +0.087 A 
ATOM     38  C   UNL     1      -2.466   1.528  -2.307  0.00  0.00    -0.021 A 
ATOM     39  C   UNL     1      -2.310   0.631  -3.455  0.00  0.00    +0.003 A 
ATOM     40  C   UNL     1      -2.354   0.810  -4.839  0.00  0.00    +0.010 A 
ATOM     41  H   UNL     1      -1.929  -1.246  -0.921  0.00  0.00    +0.165 HD
ENDBRANCH  31  38
ENDBRANCH  30  31
ENDBRANCH  26  30
ENDBRANCH   1  27
TORSDOF 7
