REMARK  Name = ZINC08926232
REMARK  10 active torsions:
REMARK  status: ('A' for Active; 'I' for Inactive)
REMARK    1  A    between atoms: C_1  and  C_2
REMARK    2  A    between atoms: C_2  and  C_3
REMARK    3  A    between atoms: C_3  and  C_4
REMARK    4  A    between atoms: C_8  and  C_10
REMARK    5  A    between atoms: C_8  and  C_28
REMARK    6  A    between atoms: C_10  and  N_11
REMARK    7  A    between atoms: N_13  and  C_16
REMARK    8  A    between atoms: C_16  and  C_17
REMARK    9  A    between atoms: C_17  and  C_19
REMARK   10  A    between atoms: C_22  and  N_25
REMARK                            x       y       z     vdW  Elec       q    Type
REMARK                         _______ _______ _______ _____ _____    ______ ____
ROOT
ATOM      1  C   UNL     1      -1.119   2.404  -0.104  0.00  0.00    +0.215 C 
ENDROOT
BRANCH   1   5
ATOM      2  C   UNL     1      -1.982  -0.217  -2.090  0.00  0.00    +0.148 C 
ATOM      3  C   UNL     1      -0.952   0.733  -2.750  0.00  0.00    +0.195 C 
ATOM      4  O   UNL     1      -1.526   2.031  -2.467  0.00  0.00    -0.341 OA
ATOM      5  C   UNL     1      -2.107   1.899  -1.159  0.00  0.00    +0.218 C 
ATOM      6  O   UNL     1      -2.400   0.516  -0.921  0.00  0.00    -0.338 OA
BRANCH   5   7
ATOM      7  C   UNL     1      -3.379   2.704  -1.086  0.00  0.00    +0.031 A 
ATOM      8  C   UNL     1      -3.719   3.555  -2.121  0.00  0.00    +0.012 A 
ATOM      9  C   UNL     1      -4.885   4.293  -2.055  0.00  0.00    +0.020 A 
ATOM     10  C   UNL     1      -5.715   4.179  -0.953  0.00  0.00    +0.042 A 
ATOM     11  C   UNL     1      -5.376   3.328   0.083  0.00  0.00    +0.040 A 
ATOM     12  C   UNL     1      -4.210   2.585   0.014  0.00  0.00    +0.051 A 
ATOM     13 CL   UNL     1      -3.788   1.510   1.309  0.00  0.00    -0.083 Cl
ATOM     14 CL   UNL     1      -7.181   5.105  -0.871  0.00  0.00    -0.083 Cl
ENDBRANCH   5   7
BRANCH   2  15
ATOM     15  C   UNL     1      -1.321  -1.538  -1.691  0.00  0.00    +0.034 C 
BRANCH  15  17
ATOM     16  C   UNL     1      -1.723  -3.821  -0.759  0.00  0.00    +0.004 C 
ATOM     17  C   UNL     1      -2.384  -2.500  -1.158  0.00  0.00    -0.001 C 
ENDBRANCH  15  17
ENDBRANCH   2  15
ENDBRANCH   1   5
BRANCH   1  18
ATOM     18  N   UNL     1       0.145   1.675  -0.232  0.00  0.00    -0.248 N 
ATOM     19  C   UNL     1       1.368   2.208  -0.404  0.00  0.00    +0.197 A 
ATOM     20  N   UNL     1       2.231   1.227  -0.478  0.00  0.00    -0.314 N 
ATOM     21  C   UNL     1       1.600   0.060  -0.358  0.00  0.00    +0.223 A 
ATOM     22  N   UNL     1       0.321   0.282  -0.206  0.00  0.00    -0.160 NA
BRANCH  20  23
ATOM     23  C   UNL     1       3.675   1.389  -0.664  0.00  0.00    +0.203 C 
BRANCH  23  24
ATOM     24  C   UNL     1       3.994   1.395  -2.137  0.00  0.00    +0.183 C 
ATOM     25  O   UNL     1       3.103   1.275  -2.950  0.00  0.00    -0.290 OA
BRANCH  24  26
ATOM     26  C   UNL     1       5.387   1.545  -2.587  0.00  0.00    +0.019 A 
ATOM     27  C   UNL     1       6.417   1.688  -1.651  0.00  0.00    +0.013 A 
ATOM     28  C   UNL     1       7.720   1.823  -2.081  0.00  0.00    +0.033 A 
ATOM     29  C   UNL     1       8.009   1.828  -3.435  0.00  0.00    +0.126 A 
ATOM     30  C   UNL     1       6.995   1.692  -4.367  0.00  0.00    +0.033 A 
ATOM     31  C   UNL     1       5.688   1.550  -3.953  0.00  0.00    +0.013 A 
BRANCH  29  32
ATOM     32  N   UNL     1       9.410   1.979  -3.888  0.00  0.00    +0.056 N 
ATOM     33  O   UNL     1       9.668   1.984  -5.078  0.00  0.00    -0.126 OA
ATOM     34  O   UNL     1      10.305   2.099  -3.070  0.00  0.00    -0.126 OA
ENDBRANCH  29  32
ENDBRANCH  24  26
ENDBRANCH  23  24
ENDBRANCH  20  23
ENDBRANCH   1  18
TORSDOF 9
