REMARK  Name = ZINC39640026
REMARK  10 active torsions:
REMARK  status: ('A' for Active; 'I' for Inactive)
REMARK    1  A    between atoms: C_1  and  C_2
REMARK    2  A    between atoms: C_8  and  N_10
REMARK    3  A    between atoms: C_11  and  C_13
REMARK    4  A    between atoms: C_13  and  N_14
REMARK    5  A    between atoms: C_17  and  C_21
REMARK    6  A    between atoms: C_17  and  C_22
REMARK    7  A    between atoms: C_22  and  C_23
REMARK    8  A    between atoms: C_23  and  C_24
REMARK    9  A    between atoms: C_27  and  O_30
REMARK   10  A    between atoms: O_30  and  C_31
REMARK                            x       y       z     vdW  Elec       q    Type
REMARK                         _______ _______ _______ _____ _____    ______ ____
ROOT
ATOM      1  N   UNL     1       0.984   0.635   5.955  0.00  0.00    -0.215 N 
ATOM      2  C   UNL     1       1.227  -0.390   6.795  0.00  0.00    +0.247 C 
ATOM      3  O   UNL     1       0.719  -1.490   6.774  0.00  0.00    -0.273 OA
ATOM      4  C   UNL     1       2.268   0.119   7.772  0.00  0.00    +0.110 C 
ATOM      5  N   UNL     1       2.514   1.502   7.327  0.00  0.00    -0.285 N 
ATOM      6  C   UNL     1       1.723   1.708   6.258  0.00  0.00    +0.310 C 
ATOM      7  O   UNL     1       1.681   2.754   5.640  0.00  0.00    -0.252 OA
ATOM      8  C   UNL     1       1.720   0.104   9.200  0.00  0.00    +0.041 C 
ATOM      9  H   UNL     1       3.129   2.138   7.724  0.00  0.00    +0.151 HD
ENDROOT
BRANCH   1  10
ATOM     10  C   UNL     1       0.033   0.579   4.842  0.00  0.00    +0.213 C 
BRANCH  10  12
ATOM     11  N   UNL     1       0.056  -0.038   2.447  0.00  0.00    -0.311 N 
ATOM     12  C   UNL     1       0.738   0.093   3.602  0.00  0.00    +0.231 C 
ATOM     13  O   UNL     1       1.919  -0.179   3.644  0.00  0.00    -0.274 OA
ATOM     14  H   UNL     1      -0.888   0.180   2.413  0.00  0.00    +0.149 HD
BRANCH  11  21
ATOM     15  C   UNL     1      -0.019   1.526   0.010  0.00  0.00    +0.009 C 
ATOM     16  C   UNL     1       0.002  -0.004   0.002  0.00  0.00    +0.006 C 
ATOM     17  C   UNL     1       0.718  -0.497  -1.257  0.00  0.00    +0.005 C 
ATOM     18  C   UNL     1       0.739  -2.027  -1.265  0.00  0.00    +0.000 C 
ATOM     19  C   UNL     1       1.479  -2.534  -0.026  0.00  0.00    +0.002 C 
ATOM     20  C   UNL     1       0.763  -2.041   1.233  0.00  0.00    +0.022 C 
ATOM     21  C   UNL     1       0.742  -0.511   1.242  0.00  0.00    +0.076 C 
ENDBRANCH  11  21
ENDBRANCH  10  12
ENDBRANCH   1  10
BRANCH   4  22
ATOM     22  C   UNL     1       3.549  -0.713   7.676  0.00  0.00    +0.039 C 
BRANCH  22  23
ATOM     23  C   UNL     1       4.580  -0.177   8.671  0.00  0.00    +0.038 C 
BRANCH  23  24
ATOM     24  C   UNL     1       5.841  -0.997   8.577  0.00  0.00    -0.047 A 
ATOM     25  C   UNL     1       5.995  -2.121   9.368  0.00  0.00    +0.007 A 
ATOM     26  C   UNL     1       7.150  -2.874   9.284  0.00  0.00    +0.046 A 
ATOM     27  C   UNL     1       8.156  -2.502   8.404  0.00  0.00    +0.127 A 
ATOM     28  C   UNL     1       8.000  -1.374   7.612  0.00  0.00    +0.046 A 
ATOM     29  C   UNL     1       6.840  -0.627   7.696  0.00  0.00    +0.007 A 
BRANCH  27  30
ATOM     30  O   UNL     1       9.294  -3.240   8.320  0.00  0.00    -0.434 OA
BRANCH  30  31
ATOM     31  C   UNL     1      10.288  -2.798   7.393  0.00  0.00    +0.541 C 
ATOM     32  F   UNL     1       9.749  -2.788   6.102  0.00  0.00    -0.166 F 
ATOM     33  F   UNL     1      10.703  -1.506   7.735  0.00  0.00    -0.166 F 
ENDBRANCH  30  31
ENDBRANCH  27  30
ENDBRANCH  23  24
ENDBRANCH  22  23
ENDBRANCH   4  22
TORSDOF 8
