REMARK  Name = ZINC01687415
REMARK  4 active torsions:
REMARK  status: ('A' for Active; 'I' for Inactive)
REMARK    1  A    between atoms: C_4  and  C_7
REMARK    2  A    between atoms: C_7  and  S_8
REMARK    3  A    between atoms: S_8  and  C_9
REMARK    4  A    between atoms: N_16  and  C_19
REMARK                            x       y       z     vdW  Elec       q    Type
REMARK                         _______ _______ _______ _____ _____    ______ ____
ROOT
ATOM      1  C   UNL     1      -1.639   5.355   5.539  0.00  0.00    +0.130 A 
ATOM      2  C   UNL     1      -1.918   4.567   4.408  0.00  0.00    +0.140 A 
ATOM      3  C   UNL     1      -0.896   4.371   3.465  0.00  0.00    +0.167 A 
ATOM      4  N   UNL     1       0.292   4.931   3.671  0.00  0.00    -0.195 NA
ATOM      5  C   UNL     1       0.514   5.662   4.751  0.00  0.00    +0.216 A 
ATOM      6  N   UNL     1      -0.421   5.871   5.669  0.00  0.00    -0.206 NA
ATOM      7  N   UNL     1       1.765   6.229   4.929  0.00  0.00    -0.327 N 
ATOM      8  N   UNL     1      -1.435   3.582   2.481  0.00  0.00    -0.312 N 
ATOM      9  C   UNL     1      -2.725   3.312   2.833  0.00  0.00    +0.201 A 
ATOM     10  N   UNL     1      -3.006   3.891   3.964  0.00  0.00    -0.231 NA
ATOM     11  H   UNL     1       2.460   6.088   4.268  0.00  0.00    +0.145 HD
ATOM     12  H   UNL     1       1.945   6.768   5.715  0.00  0.00    +0.145 HD
ENDROOT
BRANCH   8  13
ATOM     13  C   UNL     1      -0.750   3.109   1.275  0.00  0.00    +0.090 C 
ATOM     14  C   UNL     1      -0.729   1.579   1.267  0.00  0.00    +0.025 C 
ATOM     15  C   UNL     1      -0.013   1.086   0.008  0.00  0.00    +0.002 C 
ATOM     16  C   UNL     1      -0.753   1.593  -1.232  0.00  0.00    +0.000 C 
ATOM     17  C   UNL     1      -0.773   3.123  -1.223  0.00  0.00    +0.002 C 
ATOM     18  C   UNL     1      -1.490   3.616   0.036  0.00  0.00    +0.025 C 
ENDBRANCH   8  13
BRANCH   1  19
ATOM     19  S   UNL     1      -2.872   5.636   6.766  0.00  0.00    -0.099 S 
BRANCH  19  20
ATOM     20  C   UNL     1      -1.939   6.679   7.915  0.00  0.00    +0.111 C 
BRANCH  20  24
ATOM     21  C   UNL     1      -4.433   7.744  11.216  0.00  0.00    +0.000 A 
ATOM     22  C   UNL     1      -3.665   6.596  11.272  0.00  0.00    +0.000 A 
ATOM     23  C   UNL     1      -2.858   6.251  10.203  0.00  0.00    +0.004 A 
ATOM     24  C   UNL     1      -2.819   7.054   9.079  0.00  0.00    -0.037 A 
ATOM     25  C   UNL     1      -3.583   8.206   9.026  0.00  0.00    +0.004 A 
ATOM     26  C   UNL     1      -4.394   8.547  10.092  0.00  0.00    +0.000 A 
ENDBRANCH  20  24
ENDBRANCH  19  20
ENDBRANCH   1  19
TORSDOF 4
