REMARK  Name = ZINC12717506
REMARK  13 active torsions:
REMARK  status: ('A' for Active; 'I' for Inactive)
REMARK    1  A    between atoms: C_1  and  C_2
REMARK    2  A    between atoms: C_2  and  C_3
REMARK    3  A    between atoms: C_10  and  C_15
REMARK    4  A    between atoms: C_15  and  N_65
REMARK    5  A    between atoms: C_16  and  C_17
REMARK    6  A    between atoms: C_16  and  N_65
REMARK    7  A    between atoms: C_26  and  C_27
REMARK    8  A    between atoms: C_26  and  N_65
REMARK    9  A    between atoms: N_31  and  C_32
REMARK   10  A    between atoms: C_32  and  C_33
REMARK   11  A    between atoms: C_33  and  O_35
REMARK   12  A    between atoms: O_35  and  C_36
REMARK   13  A    between atoms: C_36  and  C_37
REMARK                            x       y       z     vdW  Elec       q    Type
REMARK                         _______ _______ _______ _____ _____    ______ ____
ROOT
ATOM      1  N   UNL     1       5.930  -1.117   1.125  0.00  0.00    +0.390 N 
ATOM      2  H   UNL     1       6.001  -0.595   0.244  0.00  0.00    -0.080 HD
ENDROOT
BRANCH   1   3
ATOM      3  C   UNL     1       5.621  -2.530   0.822  0.00  0.00    -0.036 C 
BRANCH   3  11
ATOM      4  C   UNL     1      10.457  -5.210  -1.956  0.00  0.00    -0.047 A 
ATOM      5  C   UNL     1      10.076  -4.909  -3.256  0.00  0.00    +0.005 A 
ATOM      6  C   UNL     1       8.913  -4.213  -3.505  0.00  0.00    +0.026 A 
ATOM      7  C   UNL     1       8.112  -3.804  -2.444  0.00  0.00    +0.049 A 
ATOM      8  C   UNL     1       8.502  -4.111  -1.126  0.00  0.00    -0.001 A 
ATOM      9  C   UNL     1       9.686  -4.820  -0.897  0.00  0.00    +0.013 A 
ATOM     10  C   UNL     1       7.655  -3.672  -0.015  0.00  0.00    +0.017 A 
ATOM     11  C   UNL     1       6.517  -2.992  -0.298  0.00  0.00    +0.001 A 
ATOM     12  C   UNL     1       6.171  -2.710  -1.637  0.00  0.00    +0.251 A 
ATOM     13  O   UNL     1       5.146  -2.094  -1.869  0.00  0.00    -0.268 OA
ATOM     14  N   UNL     1       6.945  -3.105  -2.664  0.00  0.00    -0.322 N 
ATOM     15  H   UNL     1       6.678  -2.895  -3.572  0.00  0.00    +0.169 HD
BRANCH   4  17
ATOM     16  C   UNL     1      11.435  -7.474  -1.698  0.00  0.00    +0.009 C 
ATOM     17  C   UNL     1      11.733  -5.973  -1.709  0.00  0.00    +0.032 C 
ENDBRANCH   4  17
ENDBRANCH   3  11
ENDBRANCH   1   3
BRANCH   1  18
ATOM     18  C   UNL     1       4.850  -0.529   1.946  0.00  0.00    -0.042 C 
BRANCH  18  19
ATOM     19  C   UNL     1       3.648  -0.295   1.068  0.00  0.00    -0.060 A 
ATOM     20  C   UNL     1       2.627  -1.227   1.034  0.00  0.00    +0.005 A 
ATOM     21  C   UNL     1       1.522  -1.018   0.230  0.00  0.00    +0.050 A 
ATOM     22  C   UNL     1       1.435   0.129  -0.543  0.00  0.00    +0.166 A 
ATOM     23  C   UNL     1       2.462   1.069  -0.507  0.00  0.00    +0.166 A 
ATOM     24  C   UNL     1       3.566   0.852   0.300  0.00  0.00    +0.051 A 
ATOM     25  O   UNL     1       2.142   2.096  -1.347  0.00  0.00    -0.453 OA
ATOM     26  C   UNL     1       0.727   1.974  -1.583  0.00  0.00    +0.466 C 
ATOM     27  O   UNL     1       0.471   0.568  -1.404  0.00  0.00    -0.453 OA
ENDBRANCH  18  19
ENDBRANCH   1  18
BRANCH   1  28
ATOM     28  C   UNL     1       7.218  -1.024   1.843  0.00  0.00    +0.001 C 
BRANCH  28  29
ATOM     29  C   UNL     1       7.615   0.426   1.944  0.00  0.00    +0.136 A 
ATOM     30  N   UNL     1       7.321   1.252   2.918  0.00  0.00    -0.115 NA
ATOM     31  N   UNL     1       7.839   2.398   2.638  0.00  0.00    -0.023 NA
ATOM     32  N   UNL     1       8.457   2.324   1.511  0.00  0.00    -0.043 NA
ATOM     33  N   UNL     1       8.347   1.123   1.054  0.00  0.00    -0.220 N 
BRANCH  33  34
ATOM     34  C   UNL     1       8.908   0.614  -0.200  0.00  0.00    +0.267 C 
BRANCH  34  35
ATOM     35  C   UNL     1       7.912   0.812  -1.313  0.00  0.00    +0.329 C 
ATOM     36  O   UNL     1       6.843   1.327  -1.083  0.00  0.00    -0.249 OA
BRANCH  35  37
ATOM     37  O   UNL     1       8.213   0.418  -2.561  0.00  0.00    -0.464 OA
BRANCH  37  38
ATOM     38  C   UNL     1       7.207   0.641  -3.583  0.00  0.00    +0.229 C 
ATOM     39  C   UNL     1       7.725   0.131  -4.929  0.00  0.00    +0.048 C 
ENDBRANCH  37  38
ENDBRANCH  35  37
ENDBRANCH  34  35
ENDBRANCH  33  34
ENDBRANCH  28  29
ENDBRANCH   1  28
TORSDOF 11
