REMARK  Name = ZINC01110378
REMARK  10 active torsions:
REMARK  status: ('A' for Active; 'I' for Inactive)
REMARK    1  A    between atoms: C_1  and  C_2
REMARK    2  A    between atoms: C_2  and  O_3
REMARK    3  A    between atoms: O_3  and  C_4
REMARK    4  A    between atoms: C_4  and  C_6
REMARK    5  A    between atoms: C_7  and  C_30
REMARK    6  A    between atoms: N_8  and  C_24
REMARK    7  A    between atoms: C_12  and  C_14
REMARK    8  A    between atoms: C_16  and  O_22
REMARK    9  A    between atoms: C_17  and  O_21
REMARK   10  A    between atoms: O_22  and  C_23
REMARK                            x       y       z     vdW  Elec       q    Type
REMARK                         _______ _______ _______ _____ _____    ______ ____
ROOT
ATOM      1  C   UNL     1      -0.100  -0.815   1.368  0.00  0.00    +0.078 C 
ATOM      2  C   UNL     1      -0.513  -0.021   0.357  0.00  0.00    +0.029 C 
ATOM      3  N   UNL     1      -0.536  -0.475  -0.932  0.00  0.00    -0.228 N 
ATOM      4  C   UNL     1      -0.151  -1.706  -1.292  0.00  0.00    +0.311 C 
ATOM      5  O   UNL     1      -0.202  -2.018  -2.466  0.00  0.00    -0.252 OA
ATOM      6  N   UNL     1       0.285  -2.612  -0.395  0.00  0.00    -0.288 N 
ATOM      7  C   UNL     1       0.342  -2.223   1.024  0.00  0.00    +0.144 C 
ATOM      8  C   UNL     1      -0.962   1.387   0.656  0.00  0.00    +0.062 C 
ATOM      9  H   UNL     1       0.555  -3.500  -0.678  0.00  0.00    +0.151 HD
ENDROOT
BRANCH   7  10
ATOM     10  C   UNL     1       1.764  -2.391   1.495  0.00  0.00    -0.018 A 
ATOM     11  C   UNL     1       2.788  -1.719   0.853  0.00  0.00    +0.055 A 
ATOM     12  C   UNL     1       4.094  -1.868   1.288  0.00  0.00    +0.163 A 
ATOM     13  C   UNL     1       4.375  -2.705   2.364  0.00  0.00    +0.173 A 
ATOM     14  C   UNL     1       3.345  -3.380   3.000  0.00  0.00    +0.063 A 
ATOM     15  C   UNL     1       2.042  -3.222   2.564  0.00  0.00    +0.025 A 
ATOM     16 BR   UNL     1       3.722  -4.518   4.463  0.00  0.00    -0.046 Br
BRANCH  13  17
ATOM     17  O   UNL     1       5.657  -2.859   2.792  0.00  0.00    -0.503 OA
ATOM     18  H   UNL     1       6.131  -3.583   2.360  0.00  0.00    +0.292 HD
ENDBRANCH  13  17
BRANCH  12  19
ATOM     19  O   UNL     1       5.101  -1.203   0.661  0.00  0.00    -0.491 OA
ATOM     20  C   UNL     1       4.759  -0.465  -0.513  0.00  0.00    +0.277 C 
ENDBRANCH  12  19
ENDBRANCH   7  10
BRANCH   3  21
ATOM     21  C   UNL     1      -0.981   0.398  -1.933  0.00  0.00    +0.042 A 
ATOM     22  C   UNL     1      -2.231   0.217  -2.509  0.00  0.00    +0.024 A 
ATOM     23  C   UNL     1      -2.670   1.084  -3.491  0.00  0.00    +0.002 A 
ATOM     24  C   UNL     1      -1.860   2.123  -3.909  0.00  0.00    +0.000 A 
ATOM     25  C   UNL     1      -0.611   2.303  -3.342  0.00  0.00    +0.002 A 
ATOM     26  C   UNL     1      -0.170   1.443  -2.355  0.00  0.00    +0.024 A 
ENDBRANCH   3  21
BRANCH   1  27
ATOM     27  C   UNL     1      -0.081  -0.348   2.704  0.00  0.00    +0.339 C 
ATOM     28  O   UNL     1      -0.320   0.820   2.943  0.00  0.00    -0.245 OA
BRANCH  27  29
ATOM     29  O   UNL     1       0.203  -1.200   3.712  0.00  0.00    -0.462 OA
BRANCH  29  31
ATOM     30  C   UNL     1       0.560  -1.754   6.037  0.00  0.00    +0.048 C 
ATOM     31  C   UNL     1       0.092  -0.690   5.042  0.00  0.00    +0.229 C 
ENDBRANCH  29  31
ENDBRANCH  27  29
ENDBRANCH   1  27
TORSDOF 7
