REMARK  Name = ZINC08209544
REMARK  11 active torsions:
REMARK  status: ('A' for Active; 'I' for Inactive)
REMARK    1  A    between atoms: C_1  and  C_2
REMARK    2  A    between atoms: C_2  and  C_3
REMARK    3  A    between atoms: C_2  and  C_4
REMARK    4  A    between atoms: C_4  and  C_5
REMARK    5  A    between atoms: C_5  and  C_7
REMARK    6  A    between atoms: C_5  and  N_27
REMARK    7  A    between atoms: N_12  and  S_15
REMARK    8  A    between atoms: S_15  and  C_18
REMARK    9  A    between atoms: C_21  and  C_24
REMARK   10  A    between atoms: C_24  and  C_25
REMARK   11  A    between atoms: C_24  and  C_26
REMARK                            x       y       z     vdW  Elec       q    Type
REMARK                         _______ _______ _______ _____ _____    ______ ____
ROOT
ATOM      1  C   UNL     1      -3.761   3.409  -3.634  0.00  0.00    +0.236 C 
ATOM      2  O   UNL     1      -3.590   4.508  -4.118  0.00  0.00    -0.274 OA
ATOM      3  N   UNL     1      -3.046   3.028  -2.557  0.00  0.00    -0.297 N 
ATOM      4  C   UNL     1      -2.054   3.934  -1.959  0.00  0.00    +0.125 C 
ATOM      5  C   UNL     1      -0.701   3.214  -1.909  0.00  0.00    +0.128 C 
ATOM      6  N   UNL     1      -0.897   1.885  -1.312  0.00  0.00    -0.174 NA
ATOM      7  C   UNL     1      -1.885   0.978  -1.913  0.00  0.00    +0.128 C 
ATOM      8  C   UNL     1      -3.242   1.700  -1.960  0.00  0.00    +0.125 C 
ENDROOT
BRANCH   6   9
ATOM      9  S   UNL     1      -0.017   1.417   0.010  0.00  0.00    +0.061 S 
ATOM     10  O   UNL     1       0.002  -0.004   0.002  0.00  0.00    -0.153 OA
ATOM     11  O   UNL     1       1.172   2.195   0.003  0.00  0.00    -0.153 OA
BRANCH   9  12
ATOM     12  C   UNL     1      -0.927   1.900   1.439  0.00  0.00    +0.105 A 
ATOM     13  C   UNL     1      -0.717   3.145   2.004  0.00  0.00    +0.029 A 
ATOM     14  C   UNL     1      -1.434   3.526   3.123  0.00  0.00    +0.006 A 
ATOM     15  C   UNL     1      -2.354   2.659   3.683  0.00  0.00    -0.045 A 
ATOM     16  C   UNL     1      -2.559   1.412   3.121  0.00  0.00    +0.006 A 
ATOM     17  C   UNL     1      -1.846   1.033   2.000  0.00  0.00    +0.029 A 
BRANCH  15  18
ATOM     18  C   UNL     1      -3.132   3.072   4.905  0.00  0.00    +0.013 C 
ATOM     19  C   UNL     1      -2.163   3.372   6.050  0.00  0.00    +0.012 C 
ATOM     20  C   UNL     1      -3.950   4.326   4.588  0.00  0.00    +0.012 C 
ENDBRANCH  15  18
ENDBRANCH   9  12
ENDBRANCH   6   9
BRANCH   1  21
ATOM     21  C   UNL     1      -4.775   2.470  -4.236  0.00  0.00    +0.161 C 
BRANCH  21  22
ATOM     22  N   UNL     1      -5.062   2.880  -5.613  0.00  0.00    -0.288 N 
ATOM     23  C   UNL     1      -5.566   4.105  -5.860  0.00  0.00    +0.298 C 
ATOM     24  O   UNL     1      -5.783   4.870  -4.941  0.00  0.00    -0.253 OA
ATOM     25  N   UNL     1      -5.830   4.481  -7.127  0.00  0.00    -0.313 N 
ATOM     26  H   UNL     1      -4.889   2.269  -6.346  0.00  0.00    +0.151 HD
ATOM     27  H   UNL     1      -5.658   3.871  -7.861  0.00  0.00    +0.146 HD
ATOM     28  H   UNL     1      -6.193   5.363  -7.305  0.00  0.00    +0.146 HD
ENDBRANCH  21  22
BRANCH  21  29
ATOM     29  C   UNL     1      -6.063   2.513  -3.412  0.00  0.00    +0.034 C 
BRANCH  29  31
ATOM     30  C   UNL     1      -6.472   0.069  -3.728  0.00  0.00    +0.007 C 
ATOM     31  C   UNL     1      -7.046   1.470  -3.947  0.00  0.00    -0.015 C 
ATOM     32  C   UNL     1      -8.378   1.597  -3.206  0.00  0.00    +0.007 C 
ENDBRANCH  29  31
ENDBRANCH  21  29
ENDBRANCH   1  21
TORSDOF 7
