REMARK  Name = ZINC49963190
REMARK  4 active torsions:
REMARK  status: ('A' for Active; 'I' for Inactive)
REMARK    1  A    between atoms: C_6  and  N_7
REMARK    2  A    between atoms: N_7  and  C_8
REMARK    3  A    between atoms: C_8  and  C_9
REMARK    4  A    between atoms: C_12  and  N_16
REMARK                            x       y       z     vdW  Elec       q    Type
REMARK                         _______ _______ _______ _____ _____    ______ ____
ROOT
ATOM      1  C   UNL     1      -1.176  -2.185   0.002  0.00  0.00    +0.138 C 
ENDROOT
BRANCH   1   2
ATOM      2  C   UNL     1      -2.589  -2.708   0.013  0.00  0.00    -0.012 A 
ATOM      3  C   UNL     1      -3.156  -3.144   1.196  0.00  0.00    +0.009 A 
ATOM      4  C   UNL     1      -4.452  -3.625   1.207  0.00  0.00    +0.033 A 
ATOM      5  C   UNL     1      -5.182  -3.670   0.034  0.00  0.00    +0.128 A 
ATOM      6  C   UNL     1      -4.617  -3.234  -1.149  0.00  0.00    +0.053 A 
ATOM      7  C   UNL     1      -3.322  -2.747  -1.159  0.00  0.00    +0.048 A 
ATOM      8 CL   UNL     1      -2.614  -2.193  -2.644  0.00  0.00    -0.083 Cl
BRANCH   5   9
ATOM      9  N   UNL     1      -6.570  -4.185   0.046  0.00  0.00    +0.056 N 
ATOM     10  O   UNL     1      -7.064  -4.567   1.081  0.00  0.00    -0.126 OA
ATOM     11  O   UNL     1      -7.209  -4.224  -0.980  0.00  0.00    -0.126 OA
ENDBRANCH   5   9
ENDBRANCH   1   2
BRANCH   1  12
ATOM     12  N   UNL     1      -1.198  -0.720   0.010  0.00  0.00    -0.340 N 
ATOM     13  H   UNL     1      -2.045  -0.248   0.021  0.00  0.00    +0.146 HD
BRANCH  12  19
ATOM     14  C   UNL     1      -0.017   1.385   0.010  0.00  0.00    +0.024 A 
ATOM     15  C   UNL     1       1.171   2.090   0.002  0.00  0.00    +0.017 A 
ATOM     16  C   UNL     1       2.378   1.415  -0.013  0.00  0.00    +0.018 A 
ATOM     17  C   UNL     1       2.400   0.031  -0.021  0.00  0.00    +0.017 A 
ATOM     18  C   UNL     1       1.216  -0.679  -0.014  0.00  0.00    +0.024 A 
ATOM     19  C   UNL     1       0.002  -0.004   0.002  0.00  0.00    +0.027 A 
ATOM     20 BR   UNL     1       4.002   2.384  -0.025  0.00  0.00    -0.050 Br
ENDBRANCH  12  19
ENDBRANCH   1  12
TORSDOF 4
