REMARK  Name = ZINC39534509
REMARK  11 active torsions:
REMARK  status: ('A' for Active; 'I' for Inactive)
REMARK    1  A    between atoms: C_1  and  C_2
REMARK    2  A    between atoms: C_2  and  C_3
REMARK    3  A    between atoms: C_2  and  S_4
REMARK    4  A    between atoms: S_4  and  C_7
REMARK    5  A    between atoms: C_10  and  C_13
REMARK    6  A    between atoms: C_13  and  C_15
REMARK    7  A    between atoms: C_13  and  N_24
REMARK    8  A    between atoms: C_15  and  N_16
REMARK    9  A    between atoms: N_16  and  C_17
REMARK   10  A    between atoms: C_22  and  O_23
REMARK   11  A    between atoms: C_28  and  O_31
REMARK                            x       y       z     vdW  Elec       q    Type
REMARK                         _______ _______ _______ _____ _____    ______ ____
ROOT
ATOM      1  C   UNL     1      -4.230   1.558  -4.920  0.00  0.00    +0.104 C 
ENDROOT
BRANCH   1   2
ATOM      2  N   UNL     1      -4.782   0.377  -5.594  0.00  0.00    -0.295 NA
ATOM      3  C   UNL     1      -5.225   0.707  -6.956  0.00  0.00    +0.066 C 
ATOM      4  C   UNL     1      -5.738  -0.561  -7.644  0.00  0.00    -0.063 C 
ATOM      5  N   UNL     1      -6.853  -1.121  -6.870  0.00  0.00    +0.398 N 
ATOM      6  C   UNL     1      -6.389  -1.469  -5.520  0.00  0.00    +0.073 C 
ATOM      7  C   UNL     1      -5.882  -0.209  -4.815  0.00  0.00    +0.096 C 
ATOM      8  H   UNL     1      -7.594  -0.439  -6.806  0.00  0.00    -0.082 HD
ATOM      9  H   UNL     1      -7.199  -1.950  -7.330  0.00  0.00    -0.082 HD
BRANCH   6  10
ATOM     10  O   UNL     1      -7.471  -2.030  -4.774  0.00  0.00    -0.409 OA
ATOM     11  H   UNL     1      -7.843  -2.833  -5.164  0.00  0.00    +0.207 HD
ENDBRANCH   6  10
ENDBRANCH   1   2
BRANCH   1  15
ATOM     12  C   UNL     1      -2.806   0.450  -1.048  0.00  0.00    +0.088 A 
ATOM     13  C   UNL     1      -3.470   1.650  -1.222  0.00  0.00    +0.027 A 
ATOM     14  C   UNL     1      -3.931   2.009  -2.475  0.00  0.00    +0.007 A 
ATOM     15  C   UNL     1      -3.727   1.168  -3.554  0.00  0.00    -0.029 A 
ATOM     16  C   UNL     1      -3.062  -0.031  -3.379  0.00  0.00    +0.007 A 
ATOM     17  C   UNL     1      -2.597  -0.388  -2.127  0.00  0.00    +0.027 A 
BRANCH  12  18
ATOM     18  S   UNL     1      -2.219  -0.007   0.550  0.00  0.00    -0.001 S 
ATOM     19  O   UNL     1      -2.169  -1.427   0.525  0.00  0.00    -0.169 OA
ATOM     20  O   UNL     1      -3.075   0.672   1.458  0.00  0.00    -0.169 OA
BRANCH  18  22
ATOM     21  C   UNL     1      -0.598   2.195   0.474  0.00  0.00    +0.032 C 
ATOM     22  C   UNL     1      -0.541   0.676   0.642  0.00  0.00    +0.130 C 
ATOM     23  C   UNL     1       0.073   0.336   2.002  0.00  0.00    +0.032 C 
ENDBRANCH  18  22
ENDBRANCH  12  18
ENDBRANCH   1  15
BRANCH   1  24
ATOM     24  C   UNL     1      -3.073   2.124  -5.747  0.00  0.00    +0.125 C 
BRANCH  24  25
ATOM     25  N   UNL     1      -2.574   3.348  -5.115  0.00  0.00    -0.339 N 
ATOM     26  H   UNL     1      -2.947   3.645  -4.271  0.00  0.00    +0.146 HD
BRANCH  25  27
ATOM     27  C   UNL     1      -1.558   4.089  -5.730  0.00  0.00    +0.069 A 
ATOM     28  C   UNL     1      -1.027   3.668  -6.941  0.00  0.00    +0.026 A 
ATOM     29  C   UNL     1      -0.024   4.402  -7.547  0.00  0.00    +0.002 A 
ATOM     30  C   UNL     1       0.452   5.554  -6.949  0.00  0.00    +0.004 A 
ATOM     31  C   UNL     1      -0.073   5.979  -5.742  0.00  0.00    +0.047 A 
ATOM     32  C   UNL     1      -1.082   5.253  -5.131  0.00  0.00    +0.138 A 
BRANCH  32  33
ATOM     33  O   UNL     1      -1.603   5.673  -3.947  0.00  0.00    -0.505 OA
ATOM     34  H   UNL     1      -1.146   5.322  -3.170  0.00  0.00    +0.292 HD
ENDBRANCH  32  33
ENDBRANCH  25  27
ENDBRANCH  24  25
ENDBRANCH   1  24
TORSDOF 9
