REMARK  Name = ZINC33635489
REMARK  9 active torsions:
REMARK  status: ('A' for Active; 'I' for Inactive)
REMARK    1  A    between atoms: C_1  and  C_2
REMARK    2  A    between atoms: C_2  and  O_4
REMARK    3  A    between atoms: O_4  and  C_5
REMARK    4  A    between atoms: C_8  and  C_11
REMARK    5  A    between atoms: N_19  and  C_22
REMARK    6  A    between atoms: C_28  and  C_30
REMARK    7  A    between atoms: C_28  and  C_38
REMARK    8  A    between atoms: C_30  and  C_31
REMARK    9  A    between atoms: C_34  and  O_37
REMARK                            x       y       z     vdW  Elec       q    Type
REMARK                         _______ _______ _______ _____ _____    ______ ____
ROOT
ATOM      1  C   UNL     1      -0.066  -1.439  -1.892  0.00  0.00    -0.027 C 
ATOM      2  C   UNL     1      -0.923  -1.903  -0.738  0.00  0.00    +0.077 C 
ATOM      3  C   UNL     1      -1.221  -0.485  -0.107  0.00  0.00    +0.086 C 
ATOM      4  C   UNL     1      -2.216  -0.870   0.891  0.00  0.00    +0.225 C 
ATOM      5  O   UNL     1      -2.369  -0.404   1.999  0.00  0.00    -0.275 OA
ATOM      6  N   UNL     1      -2.939  -1.875   0.298  0.00  0.00    -0.239 N 
ATOM      7  C   UNL     1      -2.322  -2.379  -0.817  0.00  0.00    +0.225 C 
ATOM      8  O   UNL     1      -2.817  -3.068  -1.683  0.00  0.00    -0.275 OA
ATOM      9  C   UNL     1       0.148   0.084  -0.023  0.00  0.00    +0.052 C 
ATOM     10  N   UNL     1       0.853  -0.450  -1.234  0.00  0.00    +0.396 N 
ATOM     11  H   UNL     1       1.787  -0.954  -0.944  0.00  0.00    -0.083 HD
ATOM     12  H   UNL     1       1.079   0.365  -1.938  0.00  0.00    -0.083 HD
ENDROOT
BRANCH   1  16
ATOM     13  C   UNL     1       2.145  -4.700  -3.547  0.00  0.00    +0.132 A 
ATOM     14  C   UNL     1       1.049  -4.188  -4.226  0.00  0.00    +0.046 A 
ATOM     15  C   UNL     1       0.336  -3.134  -3.689  0.00  0.00    +0.005 A 
ATOM     16  C   UNL     1       0.714  -2.589  -2.476  0.00  0.00    -0.060 A 
ATOM     17  C   UNL     1       1.809  -3.094  -1.800  0.00  0.00    +0.005 A 
ATOM     18  C   UNL     1       2.522  -4.152  -2.330  0.00  0.00    +0.046 A 
BRANCH  13  19
ATOM     19  O   UNL     1       2.848  -5.737  -4.074  0.00  0.00    -0.426 OA
BRANCH  19  21
ATOM     20  C   UNL     1       3.611  -8.078  -3.887  0.00  0.00    +0.136 C 
ATOM     21  C   UNL     1       2.760  -6.918  -3.440  0.00  0.00    +0.309 C 
ATOM     22  O   UNL     1       1.998  -7.050  -2.512  0.00  0.00    -0.251 OA
ENDBRANCH  19  21
ENDBRANCH  13  19
ENDBRANCH   1  16
BRANCH   6  23
ATOM     23  C   UNL     1      -4.227  -2.356   0.802  0.00  0.00    +0.084 C 
ATOM     24  C   UNL     1      -4.118  -3.843   1.146  0.00  0.00    +0.023 C 
ATOM     25  C   UNL     1      -5.464  -4.345   1.672  0.00  0.00    +0.002 C 
ATOM     26  C   UNL     1      -6.537  -4.147   0.599  0.00  0.00    +0.000 C 
ATOM     27  C   UNL     1      -6.646  -2.660   0.255  0.00  0.00    +0.002 C 
ATOM     28  C   UNL     1      -5.300  -2.158  -0.271  0.00  0.00    +0.023 C 
ENDBRANCH   6  23
BRANCH   9  29
ATOM     29  C   UNL     1       0.837  -0.382   1.234  0.00  0.00    +0.347 C 
ATOM     30  O   UNL     1       0.183  -0.685   2.204  0.00  0.00    -0.248 OA
ATOM     31  O   UNL     1       2.176  -0.460   1.276  0.00  0.00    -0.248 OA
ENDBRANCH   9  29
BRANCH   9  32
ATOM     32  C   UNL     1       0.095   1.612  -0.067  0.00  0.00    +0.035 C 
BRANCH  32  33
ATOM     33  C   UNL     1       1.494   2.160  -0.188  0.00  0.00    -0.048 A 
ATOM     34  C   UNL     1       2.221   2.454   0.951  0.00  0.00    +0.007 A 
ATOM     35  C   UNL     1       3.505   2.951   0.843  0.00  0.00    +0.045 A 
ATOM     36  C   UNL     1       4.061   3.167  -0.410  0.00  0.00    +0.117 A 
ATOM     37  C   UNL     1       3.327   2.877  -1.551  0.00  0.00    +0.045 A 
ATOM     38  C   UNL     1       2.045   2.374  -1.437  0.00  0.00    +0.007 A 
BRANCH  36  39
ATOM     39  O   UNL     1       5.322   3.662  -0.519  0.00  0.00    -0.507 OA
ATOM     40  H   UNL     1       5.762   3.832  -1.513  0.00  0.00    +0.292 HD
ENDBRANCH  36  39
ENDBRANCH  32  33
ENDBRANCH   9  32
TORSDOF 8
