REMARK  Name = ZINC37628096
REMARK  8 active torsions:
REMARK  status: ('A' for Active; 'I' for Inactive)
REMARK    1  A    between atoms: C_1  and  C_2
REMARK    2  A    between atoms: C_2  and  O_3
REMARK    3  A    between atoms: O_3  and  C_4
REMARK    4  A    between atoms: C_5  and  N_12
REMARK    5  A    between atoms: C_13  and  C_15
REMARK    6  A    between atoms: C_15  and  C_17
REMARK    7  A    between atoms: C_15  and  N_21
REMARK    8  A    between atoms: C_17  and  C_18
REMARK                            x       y       z     vdW  Elec       q    Type
REMARK                         _______ _______ _______ _____ _____    ______ ____
ROOT
ATOM      1  N   UNL     1      -1.288  -1.862   2.527  0.00  0.00    -0.284 N 
ATOM      2  C   UNL     1      -2.289  -2.560   3.098  0.00  0.00    +0.203 C 
ATOM      3  O   UNL     1      -2.193  -3.763   3.228  0.00  0.00    -0.277 OA
ATOM      4  H   UNL     1      -1.336  -0.895   2.481  0.00  0.00    +0.155 HD
ENDROOT
BRANCH   1   6
ATOM      5  C   UNL     1       0.457  -2.046   0.859  0.00  0.00    +0.156 A 
ATOM      6  C   UNL     1      -0.178  -2.534   1.998  0.00  0.00    +0.078 A 
ATOM      7  C   UNL     1       0.292  -3.688   2.609  0.00  0.00    +0.047 A 
ATOM      8  C   UNL     1       1.388  -4.350   2.086  0.00  0.00    +0.044 A 
ATOM      9  C   UNL     1       2.019  -3.864   0.955  0.00  0.00    +0.039 A 
ATOM     10  C   UNL     1       1.552  -2.717   0.338  0.00  0.00    +0.063 A 
ATOM     11 BR   UNL     1       2.412  -2.061  -1.213  0.00  0.00    -0.046 Br
ATOM     12 CL   UNL     1       1.974  -5.794   2.852  0.00  0.00    -0.083 Cl
BRANCH   5  13
ATOM     13  O   UNL     1       0.001  -0.915   0.257  0.00  0.00    -0.489 OA
BRANCH  13  15
ATOM     14  C   UNL     1      -1.380   0.294  -1.315  0.00  0.00    +0.048 C 
ATOM     15  C   UNL     1      -0.993  -1.077  -0.758  0.00  0.00    +0.226 C 
ENDBRANCH  13  15
ENDBRANCH   5  13
ENDBRANCH   1   6
BRANCH   2  16
ATOM     16  C   UNL     1      -3.528  -1.847   3.576  0.00  0.00    +0.022 C 
BRANCH  16  17
ATOM     17  N   UNL     1      -4.629  -2.811   3.705  0.00  0.00    +0.386 N 
ATOM     18  H   UNL     1      -4.374  -3.526   4.371  0.00  0.00    -0.089 HD
ATOM     19  H   UNL     1      -5.458  -2.334   4.025  0.00  0.00    -0.089 HD
ATOM     20  H   UNL     1      -4.810  -3.237   2.808  0.00  0.00    -0.089 HD
ENDBRANCH  16  17
BRANCH  16  21
ATOM     21  C   UNL     1      -3.253  -1.202   4.936  0.00  0.00    +0.088 C 
BRANCH  21  22
ATOM     22  C   UNL     1      -4.449  -0.388   5.357  0.00  0.00    +0.209 C 
ATOM     23  O   UNL     1      -5.425  -0.329   4.639  0.00  0.00    -0.276 OA
ATOM     24  N   UNL     1      -4.433   0.275   6.530  0.00  0.00    -0.329 N 
ATOM     25  H   UNL     1      -3.652   0.228   7.103  0.00  0.00    +0.145 HD
ATOM     26  H   UNL     1      -5.203   0.800   6.801  0.00  0.00    +0.145 HD
ENDBRANCH  21  22
ENDBRANCH  16  21
ENDBRANCH   2  16
TORSDOF 7
