REMARK  Name = ZINC46576970
REMARK  5 active torsions:
REMARK  status: ('A' for Active; 'I' for Inactive)
REMARK    1  A    between atoms: C_1  and  C_2
REMARK    2  A    between atoms: C_2  and  C_26
REMARK    3  A    between atoms: N_5  and  C_9
REMARK    4  A    between atoms: C_9  and  C_10
REMARK    5  A    between atoms: C_14  and  C_23
REMARK                            x       y       z     vdW  Elec       q    Type
REMARK                         _______ _______ _______ _____ _____    ______ ____
ROOT
ATOM      1  C   UNL     1       2.865  -1.892  -1.421  0.00  0.00    +0.214 C 
ENDROOT
BRANCH   1   2
ATOM      2  C   UNL     1       4.020  -0.950  -1.644  0.00  0.00    +0.238 C 
ATOM      3  O   UNL     1       3.943   0.202  -1.273  0.00  0.00    -0.274 OA
ATOM      4  N   UNL     1       5.139  -1.388  -2.254  0.00  0.00    -0.263 N 
ATOM      5  C   UNL     1       5.223  -2.753  -2.802  0.00  0.00    +0.168 C 
ATOM      6  C   UNL     1       6.610  -3.309  -2.448  0.00  0.00    +0.276 C 
ATOM      7  O   UNL     1       7.607  -2.445  -2.996  0.00  0.00    -0.476 OA
ATOM      8  C   UNL     1       7.489  -1.112  -2.760  0.00  0.00    +0.143 A 
ATOM      9  C   UNL     1       6.263  -0.557  -2.396  0.00  0.00    +0.078 A 
ATOM     10  C   UNL     1       6.153   0.805  -2.168  0.00  0.00    +0.027 A 
ATOM     11  C   UNL     1       7.263   1.618  -2.306  0.00  0.00    +0.002 A 
ATOM     12  C   UNL     1       8.480   1.073  -2.669  0.00  0.00    +0.004 A 
ATOM     13  C   UNL     1       8.599  -0.290  -2.889  0.00  0.00    +0.047 A 
BRANCH   6  14
ATOM     14  C   UNL     1       6.762  -4.692  -3.028  0.00  0.00    +0.253 C 
ATOM     15  O   UNL     1       7.588  -4.900  -3.892  0.00  0.00    -0.272 OA
ATOM     16  N   UNL     1       5.981  -5.698  -2.587  0.00  0.00    -0.326 N 
ATOM     17  H   UNL     1       5.321  -5.532  -1.896  0.00  0.00    +0.145 HD
ATOM     18  H   UNL     1       6.079  -6.588  -2.960  0.00  0.00    +0.145 HD
ENDBRANCH   6  14
ENDBRANCH   1   2
BRANCH   1  23
ATOM     19  C   UNL     1      -0.011   1.532   0.019  0.00  0.00    +0.047 C 
ATOM     20  C   UNL     1       0.000   0.002  -0.006  0.00  0.00    +0.136 C 
ATOM     21  C   UNL     1       0.815  -0.506  -1.179  0.00  0.00    +0.251 C 
ATOM     22  O   UNL     1       0.602  -0.313  -2.357  0.00  0.00    -0.272 OA
ATOM     23  N   UNL     1       1.826  -1.215  -0.640  0.00  0.00    -0.215 N 
ATOM     24  C   UNL     1       1.764  -1.226   0.696  0.00  0.00    +0.310 C 
ATOM     25  O   UNL     1       2.567  -1.801   1.405  0.00  0.00    -0.252 OA
ATOM     26  N   UNL     1       0.714  -0.530   1.167  0.00  0.00    -0.281 N 
ATOM     27  H   UNL     1       0.473  -0.403   2.099  0.00  0.00    +0.152 HD
BRANCH  20  28
ATOM     28  C   UNL     1      -1.406  -0.536  -0.061  0.00  0.00    +0.003 A 
ATOM     29  C   UNL     1      -1.877  -1.343   0.958  0.00  0.00    +0.009 A 
ATOM     30  C   UNL     1      -3.167  -1.837   0.909  0.00  0.00    +0.020 A 
ATOM     31  C   UNL     1      -3.988  -1.524  -0.160  0.00  0.00    +0.042 A 
ATOM     32  C   UNL     1      -3.517  -0.717  -1.180  0.00  0.00    +0.040 A 
ATOM     33  C   UNL     1      -2.228  -0.218  -1.128  0.00  0.00    +0.048 A 
ATOM     34 CL   UNL     1      -1.638   0.800  -2.404  0.00  0.00    -0.083 Cl
ATOM     35 CL   UNL     1      -5.608  -2.145  -0.222  0.00  0.00    -0.083 Cl
ENDBRANCH  20  28
ENDBRANCH   1  23
TORSDOF 4
