REMARK  Name = ZINC39462135
REMARK  11 active torsions:
REMARK  status: ('A' for Active; 'I' for Inactive)
REMARK    1  A    between atoms: C_1  and  C_2
REMARK    2  A    between atoms: C_2  and  C_3
REMARK    3  A    between atoms: C_3  and  N_4
REMARK    4  A    between atoms: N_4  and  C_5
REMARK    5  A    between atoms: N_4  and  C_16
REMARK    6  A    between atoms: C_5  and  C_6
REMARK    7  A    between atoms: C_9  and  C_11
REMARK    8  A    between atoms: C_16  and  C_17
REMARK    9  A    between atoms: N_19  and  C_20
REMARK   10  A    between atoms: C_25  and  C_30
REMARK   11  A    between atoms: C_31  and  C_34
REMARK                            x       y       z     vdW  Elec       q    Type
REMARK                         _______ _______ _______ _____ _____    ______ ____
ROOT
ATOM      1  C   UNL     1       1.472  -2.846  -2.099  0.00  0.00    +0.019 C 
ENDROOT
BRANCH   1   2
ATOM      2  C   UNL     1       2.927  -2.744  -1.722  0.00  0.00    +0.199 C 
ATOM      3  O   UNL     1       3.251  -2.167  -0.706  0.00  0.00    -0.278 OA
ATOM      4  N   UNL     1       3.869  -3.293  -2.515  0.00  0.00    -0.288 N 
ATOM      5  H   UNL     1       3.610  -3.754  -3.328  0.00  0.00    +0.151 HD
BRANCH   4   6
ATOM      6  C   UNL     1       5.284  -3.193  -2.148  0.00  0.00    +0.243 C 
ATOM      7  C   UNL     1       6.021  -4.434  -2.581  0.00  0.00    +0.072 A 
ATOM      8  H   UNL     1       6.454  -7.632  -2.973  0.00  0.00    +0.192 HD
ATOM      9  C   UNL     1       7.204  -4.041  -3.142  0.00  0.00    +0.016 A 
ATOM     10  C   UNL     1       8.074  -5.025  -3.625  0.00  0.00    +0.065 A 
ATOM     11  N   UNL     1       7.749  -6.287  -3.535  0.00  0.00    -0.176 NA
ATOM     12  N   UNL     1       6.644  -6.682  -3.013  0.00  0.00    -0.243 N 
ATOM     13  C   UNL     1       5.740  -5.810  -2.521  0.00  0.00    +0.272 A 
ATOM     14  O   UNL     1       4.696  -6.209  -2.029  0.00  0.00    -0.266 OA
ATOM     15  C   UNL     1       9.387  -4.628  -4.250  0.00  0.00    +0.068 C 
ATOM     16  C   UNL     1       7.257  -2.535  -3.083  0.00  0.00    +0.150 C 
ATOM     17  O   UNL     1       5.903  -2.099  -2.851  0.00  0.00    -0.347 OA
ATOM     18  C   UNL     1       8.161  -2.084  -1.934  0.00  0.00    +0.043 C 
ENDBRANCH   4   6
ENDBRANCH   1   2
BRANCH   1  19
ATOM     19  N   UNL     1       0.654  -2.173  -1.082  0.00  0.00    +0.391 N 
ATOM     20  H   UNL     1       0.862  -2.559  -0.173  0.00  0.00    -0.080 HD
BRANCH  19  21
ATOM     21  C   UNL     1       0.955  -0.735  -1.083  0.00  0.00    -0.078 C 
BRANCH  21  23
ATOM     22  C   UNL     1       0.974   1.343  -2.469  0.00  0.00    +0.002 C 
ATOM     23  C   UNL     1       0.690  -0.160  -2.476  0.00  0.00    -0.022 C 
ENDBRANCH  21  23
ENDBRANCH  19  21
BRANCH  19  24
ATOM     24  C   UNL     1      -0.769  -2.375  -1.385  0.00  0.00    +0.021 C 
BRANCH  24  25
ATOM     25  C   UNL     1      -1.607  -1.787  -0.279  0.00  0.00    +0.202 A 
ATOM     26  N   UNL     1      -2.142  -0.598  -0.269  0.00  0.00    -0.114 NA
ATOM     27  N   UNL     1      -2.791  -0.427   0.829  0.00  0.00    -0.107 NA
ATOM     28  C   UNL     1      -2.691  -1.512   1.565  0.00  0.00    +0.255 A 
ATOM     29  O   UNL     1      -1.942  -2.396   0.873  0.00  0.00    -0.422 OA
BRANCH  28  30
ATOM     30  C   UNL     1      -3.287  -1.725   2.893  0.00  0.00    +0.076 A 
ATOM     31  C   UNL     1      -4.068  -0.867   3.645  0.00  0.00    +0.021 A 
ATOM     32  C   UNL     1      -4.515  -1.296   4.873  0.00  0.00    +0.008 A 
ATOM     33  C   UNL     1      -4.179  -2.539   5.306  0.00  0.00    +0.046 A 
ATOM     34  S   UNL     1      -3.198  -3.161   3.950  0.00  0.00    -0.092 S 
ENDBRANCH  28  30
ENDBRANCH  24  25
ENDBRANCH  19  24
ENDBRANCH   1  19
TORSDOF 8
