REMARK  Name = ZINC35926834
REMARK  8 active torsions:
REMARK  status: ('A' for Active; 'I' for Inactive)
REMARK    1  A    between atoms: C_4  and  C_7
REMARK    2  A    between atoms: C_7  and  C_8
REMARK    3  A    between atoms: C_8  and  N_9
REMARK    4  A    between atoms: N_12  and  C_15
REMARK    5  A    between atoms: C_15  and  C_16
REMARK    6  A    between atoms: N_28  and  C_31
REMARK    7  A    between atoms: C_31  and  C_32
REMARK    8  A    between atoms: C_37  and  N_38
REMARK                            x       y       z     vdW  Elec       q    Type
REMARK                         _______ _______ _______ _____ _____    ______ ____
ROOT
ATOM      1  C   UNL     1      10.184  -2.804   3.506  0.00  0.00    +0.064 A 
ATOM      2  C   UNL     1      10.118  -4.032   4.098  0.00  0.00    +0.094 A 
ATOM      3  C   UNL     1      10.341  -4.132   5.483  0.00  0.00    +0.253 A 
ATOM      4  O   UNL     1      10.290  -5.214   6.044  0.00  0.00    -0.268 OA
ATOM      5  N   UNL     1      10.613  -3.007   6.179  0.00  0.00    -0.295 N 
ATOM      6  H   UNL     1      10.770  -3.053   7.135  0.00  0.00    +0.172 HD
ATOM      7  C   UNL     1      10.665  -1.810   5.535  0.00  0.00    +0.198 A 
ATOM      8  N   UNL     1      10.460  -1.726   4.235  0.00  0.00    -0.219 NA
ATOM      9  N   UNL     1      10.941  -0.674   6.247  0.00  0.00    -0.303 N 
ATOM     10  C   UNL     1      10.873   0.631   5.560  0.00  0.00    +0.106 C 
ATOM     11  C   UNL     1      10.204   1.692   6.452  0.00  0.00    +0.000 C 
ATOM     12  C   UNL     1       9.040   1.068   7.190  0.00  0.00    -0.077 C 
ATOM     13  N   UNL     1       9.493   0.601   8.498  0.00  0.00    +0.383 N 
ATOM     14  C   UNL     1      10.010  -0.714   8.514  0.00  0.00    -0.059 C 
ATOM     15  C   UNL     1      11.283  -0.796   7.649  0.00  0.00    +0.089 C 
ATOM     16  H   UNL     1      10.209   1.229   8.830  0.00  0.00    -0.081 HD
ENDROOT
BRANCH   1  17
ATOM     17  C   UNL     1       9.949  -2.671   2.023  0.00  0.00    +0.140 C 
BRANCH  17  21
ATOM     18  N   UNL     1       6.171  -1.383   0.631  0.00  0.00    +0.382 N 
ATOM     19  C   UNL     1       7.361  -0.650   0.177  0.00  0.00    -0.063 C 
ATOM     20  C   UNL     1       8.602  -1.524   0.369  0.00  0.00    +0.066 C 
ATOM     21  N   UNL     1       8.735  -1.877   1.789  0.00  0.00    -0.300 NA
ATOM     22  C   UNL     1       7.541  -2.590   2.264  0.00  0.00    +0.066 C 
ATOM     23  C   UNL     1       6.308  -1.707   2.057  0.00  0.00    -0.063 C 
ATOM     24  H   UNL     1       6.080  -2.236   0.099  0.00  0.00    -0.082 HD
BRANCH  18  25
ATOM     25  C   UNL     1       4.978  -0.551   0.430  0.00  0.00    -0.074 C 
BRANCH  25  26
ATOM     26  C   UNL     1       4.765  -0.317  -1.067  0.00  0.00    +0.016 C 
BRANCH  26  30
ATOM     27  C   UNL     1       1.294   2.103  -1.653  0.00  0.00    +0.000 A 
ATOM     28  C   UNL     1       2.533   2.697  -1.500  0.00  0.00    +0.000 A 
ATOM     29  C   UNL     1       3.656   1.914  -1.310  0.00  0.00    +0.003 A 
ATOM     30  C   UNL     1       3.540   0.537  -1.273  0.00  0.00    -0.049 A 
ATOM     31  C   UNL     1       2.301  -0.057  -1.426  0.00  0.00    +0.003 A 
ATOM     32  C   UNL     1       1.179   0.726  -1.617  0.00  0.00    +0.000 A 
ENDBRANCH  26  30
ENDBRANCH  25  26
ENDBRANCH  18  25
ENDBRANCH  17  21
ENDBRANCH   1  17
BRANCH  13  33
ATOM     33  C   UNL     1       8.359   0.664   9.430  0.00  0.00    -0.041 C 
BRANCH  33  34
ATOM     34  C   UNL     1       8.828   0.304  10.816  0.00  0.00    -0.034 A 
ATOM     35  C   UNL     1       8.616  -0.970  11.309  0.00  0.00    +0.004 A 
ATOM     36  C   UNL     1       9.046  -1.301  12.580  0.00  0.00    +0.000 A 
ATOM     37  C   UNL     1       9.689  -0.357  13.359  0.00  0.00    +0.002 A 
ATOM     38  C   UNL     1       9.902   0.917  12.867  0.00  0.00    +0.033 A 
ATOM     39  C   UNL     1       9.476   1.246  11.594  0.00  0.00    +0.128 A 
BRANCH  39  40
ATOM     40  N   UNL     1       9.709   2.609  11.064  0.00  0.00    +0.057 N 
ATOM     41  O   UNL     1      10.275   3.433  11.744  0.00  0.00    -0.126 OA
ATOM     42  O   UNL     1       9.333   2.898   9.952  0.00  0.00    -0.126 OA
ENDBRANCH  39  40
ENDBRANCH  33  34
ENDBRANCH  13  33
TORSDOF 8
