REMARK  Name = ZINC14470792
REMARK  8 active torsions:
REMARK  status: ('A' for Active; 'I' for Inactive)
REMARK    1  A    between atoms: C_1  and  C_2
REMARK    2  A    between atoms: C_2  and  C_3
REMARK    3  A    between atoms: C_2  and  C_4
REMARK    4  A    between atoms: C_2  and  N_5
REMARK    5  A    between atoms: N_5  and  S_6
REMARK    6  A    between atoms: S_6  and  C_9
REMARK    7  A    between atoms: C_22  and  C_25
REMARK    8  A    between atoms: C_29  and  N_31
REMARK                            x       y       z     vdW  Elec       q    Type
REMARK                         _______ _______ _______ _____ _____    ______ ____
ROOT
ATOM      1  C   UNL     1       0.884   2.988   0.109  0.00  0.00    +0.106 A 
ATOM      2  C   UNL     1       1.214   1.783   0.702  0.00  0.00    +0.030 A 
ATOM      3  C   UNL     1       2.517   1.329   0.648  0.00  0.00    +0.025 A 
ATOM      4  C   UNL     1       3.489   2.081   0.000  0.00  0.00    +0.031 A 
ATOM      5  C   UNL     1       3.163   3.291  -0.593  0.00  0.00    -0.018 A 
ATOM      6  C   UNL     1       1.849   3.736  -0.533  0.00  0.00    +0.034 A 
ATOM      7  C   UNL     1       4.173   4.136  -1.274  0.00  0.00    +0.049 C 
ATOM      8  C   UNL     1       4.017   4.057  -2.795  0.00  0.00    -0.023 C 
ATOM      9  C   UNL     1       5.190   4.091  -3.379  0.00  0.00    -0.030 C 
ATOM     10  C   UNL     1       6.294   4.204  -2.346  0.00  0.00    +0.033 C 
ATOM     11  C   UNL     1       5.625   3.677  -1.043  0.00  0.00    +0.029 C 
ATOM     12  C   UNL     1       5.700   2.147  -1.077  0.00  0.00    +0.105 C 
ATOM     13  N   UNL     1       4.804   1.605  -0.050  0.00  0.00    -0.336 N 
ATOM     14  H   UNL     1       5.115   0.935   0.578  0.00  0.00    +0.147 HD
ENDROOT
BRANCH  12  15
ATOM     15  C   UNL     1       5.273   1.651  -2.434  0.00  0.00    -0.025 A 
ATOM     16  C   UNL     1       3.958   1.282  -2.652  0.00  0.00    +0.007 A 
ATOM     17  C   UNL     1       3.564   0.832  -3.898  0.00  0.00    +0.022 A 
ATOM     18  C   UNL     1       4.488   0.741  -4.924  0.00  0.00    +0.071 A 
ATOM     19  C   UNL     1       5.804   1.105  -4.704  0.00  0.00    +0.145 A 
ATOM     20  C   UNL     1       6.196   1.560  -3.459  0.00  0.00    +0.039 A 
ATOM     21 CL   UNL     1       3.995   0.168  -6.487  0.00  0.00    -0.081 Cl
BRANCH  19  22
ATOM     22  N   UNL     1       6.792   1.008  -5.801  0.00  0.00    +0.058 N 
ATOM     23  O   UNL     1       7.951   1.329  -5.607  0.00  0.00    -0.126 OA
ATOM     24  O   UNL     1       6.447   0.607  -6.898  0.00  0.00    -0.126 OA
ENDBRANCH  19  22
ENDBRANCH  12  15
BRANCH   1  25
ATOM     25  S   UNL     1      -0.780   3.566   0.167  0.00  0.00    +0.059 S 
ATOM     26  O   UNL     1      -0.883   4.602  -0.800  0.00  0.00    -0.153 OA
ATOM     27  O   UNL     1      -1.611   2.414   0.141  0.00  0.00    -0.153 OA
BRANCH  25  28
ATOM     28  N   UNL     1      -1.000   4.276   1.646  0.00  0.00    -0.185 NA
ATOM     29  H   UNL     1      -1.600   3.874   2.293  0.00  0.00    +0.149 HD
BRANCH  28  31
ATOM     30  C   UNL     1      -0.795   6.649   1.089  0.00  0.00    +0.029 C 
ATOM     31  C   UNL     1      -0.287   5.513   1.979  0.00  0.00    +0.032 C 
ATOM     32  C   UNL     1      -0.535   5.864   3.447  0.00  0.00    +0.029 C 
ATOM     33  C   UNL     1       1.212   5.315   1.748  0.00  0.00    +0.029 C 
ENDBRANCH  28  31
ENDBRANCH  25  28
ENDBRANCH   1  25
TORSDOF 5
