REMARK  Name = ZINC63478761
REMARK  6 active torsions:
REMARK  status: ('A' for Active; 'I' for Inactive)
REMARK    1  A    between atoms: C_1  and  C_2
REMARK    2  A    between atoms: N_16  and  C_17
REMARK    3  A    between atoms: C_20  and  C_23
REMARK    4  A    between atoms: N_25  and  C_26
REMARK    5  A    between atoms: C_26  and  C_27
REMARK    6  A    between atoms: C_27  and  C_28
REMARK                            x       y       z     vdW  Elec       q    Type
REMARK                         _______ _______ _______ _____ _____    ______ ____
ROOT
ATOM      1  C   UNL     1      -2.532   0.061   0.657  0.00  0.00    +0.042 A 
ATOM      2  C   UNL     1      -2.337   1.287   1.284  0.00  0.00    +0.024 A 
ATOM      3  C   UNL     1      -3.370   1.881   1.973  0.00  0.00    +0.015 A 
ATOM      4  C   UNL     1      -4.616   1.252   2.042  0.00  0.00    +0.037 A 
ATOM      5  C   UNL     1      -4.808   0.020   1.410  0.00  0.00    +0.015 A 
ATOM      6  C   UNL     1      -3.772  -0.567   0.719  0.00  0.00    +0.024 A 
ENDROOT
BRANCH   1  21
ATOM      7  C   UNL     1      -0.499  -1.170   2.102  0.00  0.00    +0.079 C 
ATOM      8  C   UNL     1      -0.676  -1.553   0.631  0.00  0.00    +0.185 C 
ATOM      9  C   UNL     1       0.701  -1.627  -0.046  0.00  0.00    +0.096 C 
ATOM     10  C   UNL     1       0.449  -1.882  -1.541  0.00  0.00    +0.114 C 
ATOM     11  C   UNL     1      -0.412  -3.118  -1.672  0.00  0.00    +0.015 A 
ATOM     12  C   UNL     1      -0.376  -3.837  -2.853  0.00  0.00    +0.009 A 
ATOM     13  C   UNL     1      -1.158  -4.967  -3.002  0.00  0.00    +0.001 A 
ATOM     14  C   UNL     1      -1.979  -5.379  -1.969  0.00  0.00    +0.004 A 
ATOM     15  C   UNL     1      -2.016  -4.666  -0.788  0.00  0.00    +0.046 A 
ATOM     16  C   UNL     1      -1.227  -3.529  -0.633  0.00  0.00    +0.128 A 
ATOM     17  O   UNL     1      -1.296  -2.833   0.547  0.00  0.00    -0.468 OA
ATOM     18  N   UNL     1      -0.314  -0.737  -2.064  0.00  0.00    -0.292 N 
ATOM     19  C   UNL     1      -1.254  -0.157  -1.300  0.00  0.00    +0.310 C 
ATOM     20  O   UNL     1      -1.917   0.746  -1.771  0.00  0.00    -0.252 OA
ATOM     21  N   UNL     1      -1.484  -0.538  -0.041  0.00  0.00    -0.216 N 
ATOM     22  H   UNL     1      -0.139  -0.403  -2.958  0.00  0.00    +0.151 HD
ENDBRANCH   1  21
BRANCH   4  23
ATOM     23  C   UNL     1      -5.725   1.885   2.780  0.00  0.00    +0.244 C 
ATOM     24  O   UNL     1      -5.556   2.957   3.329  0.00  0.00    -0.270 OA
ATOM     25  N   UNL     1      -6.926   1.277   2.845  0.00  0.00    -0.311 N 
ATOM     26  H   UNL     1      -7.061   0.422   2.407  0.00  0.00    +0.149 HD
BRANCH  25  27
ATOM     27  C   UNL     1      -8.027   1.906   3.578  0.00  0.00    +0.109 C 
BRANCH  27  28
ATOM     28  C   UNL     1      -9.269   1.015   3.498  0.00  0.00    +0.052 C 
BRANCH  28  29
ATOM     29  C   UNL     1     -10.402   1.662   4.251  0.00  0.00    -0.040 C 
ATOM     30  C   UNL     1     -11.379   2.443   3.737  0.00  0.00    -0.001 A 
ATOM     31  C   UNL     1     -11.668   2.907   2.375  0.00  0.00    +0.010 A 
ATOM     32  C   UNL     1     -12.744   3.700   2.167  0.00  0.00    +0.001 A 
ATOM     33  C   UNL     1     -13.588   4.088   3.216  0.00  0.00    +0.002 A 
ATOM     34  C   UNL     1     -13.387   3.702   4.494  0.00  0.00    +0.026 A 
ATOM     35  C   UNL     1     -12.286   2.867   4.828  0.00  0.00    +0.043 A 
ATOM     36  N   UNL     1     -11.884   2.368   5.972  0.00  0.00    -0.380 N 
ATOM     37  C   UNL     1     -10.680   1.564   5.735  0.00  0.00    +0.144 C 
ATOM     38  H   UNL     1     -12.314   2.503   6.831  0.00  0.00    +0.160 HD
ENDBRANCH  28  29
ENDBRANCH  27  28
ENDBRANCH  25  27
ENDBRANCH   4  23
TORSDOF 5
