REMARK  Name = ZINC02106679
REMARK  12 active torsions:
REMARK  status: ('A' for Active; 'I' for Inactive)
REMARK    1  A    between atoms: C_1  and  C_2
REMARK    2  A    between atoms: C_2  and  C_3
REMARK    3  A    between atoms: C_3  and  C_5
REMARK    4  A    between atoms: C_3  and  C_6
REMARK    5  A    between atoms: C_6  and  C_8
REMARK    6  A    between atoms: C_6  and  N_52
REMARK    7  A    between atoms: C_8  and  O_10
REMARK    8  A    between atoms: O_10  and  C_11
REMARK    9  A    between atoms: C_13  and  C_32
REMARK   10  A    between atoms: C_18  and  C_28
REMARK   11  A    between atoms: C_19  and  C_22
REMARK   12  A    between atoms: C_25  and  C_27
REMARK                            x       y       z     vdW  Elec       q    Type
REMARK                         _______ _______ _______ _____ _____    ______ ____
ROOT
ATOM      1  C   UNL     1      -0.118  -1.651   1.216  0.00  0.00    +0.135 A 
ATOM      2  C   UNL     1       0.603  -0.484   0.970  0.00  0.00    +0.050 A 
ATOM      3  C   UNL     1       0.783  -0.042  -0.309  0.00  0.00    -0.033 A 
ATOM      4  C   UNL     1       0.238  -0.761  -1.374  0.00  0.00    +0.068 A 
ATOM      5  C   UNL     1      -0.486  -1.943  -1.137  0.00  0.00    +0.143 A 
ATOM      6  C   UNL     1      -0.660  -2.378   0.171  0.00  0.00    +0.093 A 
ATOM      7  O   UNL     1      -1.007  -2.638  -2.167  0.00  0.00    -0.450 OA
ATOM      8  C   UNL     1      -0.886  -2.261  -3.443  0.00  0.00    +0.221 A 
ATOM      9  C   UNL     1      -0.208  -1.145  -3.813  0.00  0.00    +0.095 A 
ATOM     10  C   UNL     1       0.408  -0.311  -2.767  0.00  0.00    +0.202 A 
ATOM     11  O   UNL     1       1.029   0.702  -3.041  0.00  0.00    -0.286 OA
ATOM     12  C   UNL     1       1.563   1.221  -0.570  0.00  0.00    +0.045 C 
ENDROOT
BRANCH   9  13
ATOM     13  C   UNL     1      -0.090  -0.772  -5.245  0.00  0.00    +0.086 A 
ATOM     14  C   UNL     1      -0.476   0.465  -5.686  0.00  0.00    +0.075 A 
ATOM     15  S   UNL     1      -0.106   0.323  -7.428  0.00  0.00    -0.080 S 
ATOM     16  C   UNL     1       0.494  -1.306  -7.402  0.00  0.00    +0.076 A 
ATOM     17  N   UNL     1       0.386  -1.627  -6.136  0.00  0.00    -0.244 NA
ATOM     18  C   UNL     1       1.008  -2.141  -8.547  0.00  0.00    +0.073 C 
ENDBRANCH   9  13
BRANCH   8  19
ATOM     19  C   UNL     1      -1.517  -3.114  -4.513  0.00  0.00    +0.451 C 
ATOM     20  F   UNL     1      -0.514  -3.750  -5.253  0.00  0.00    -0.163 F 
ATOM     21  F   UNL     1      -2.339  -4.077  -3.918  0.00  0.00    -0.163 F 
ATOM     22  F   UNL     1      -2.282  -2.307  -5.362  0.00  0.00    -0.163 F 
ENDBRANCH   8  19
BRANCH   1  23
ATOM     23  O   UNL     1      -0.289  -2.079   2.493  0.00  0.00    -0.427 OA
BRANCH  23  24
ATOM     24  C   UNL     1      -1.198  -1.428   3.237  0.00  0.00    +0.298 C 
ATOM     25  O   UNL     1      -1.863  -0.547   2.745  0.00  0.00    -0.252 OA
BRANCH  24  26
ATOM     26  C   UNL     1      -1.390  -1.797   4.686  0.00  0.00    +0.039 C 
BRANCH  26  29
ATOM     27  H   UNL     1      -2.882  -1.613   6.092  0.00  0.00    -0.089 HD
ATOM     28  H   UNL     1      -2.776  -0.320   5.051  0.00  0.00    -0.089 HD
ATOM     29  N   UNL     1      -2.718  -1.334   5.126  0.00  0.00    +0.387 N 
ATOM     30  H   UNL     1      -3.438  -1.756   4.529  0.00  0.00    -0.089 HD
ENDBRANCH  26  29
BRANCH  26  31
ATOM     31  C   UNL     1      -0.291  -1.145   5.527  0.00  0.00    -0.018 C 
ATOM     32  C   UNL     1      -0.442   0.376   5.474  0.00  0.00    +0.006 C 
BRANCH  31  34
ATOM     33  C   UNL     1       0.761  -1.067   7.793  0.00  0.00    +0.004 C 
ATOM     34  C   UNL     1      -0.410  -1.619   6.978  0.00  0.00    -0.001 C 
ENDBRANCH  31  34
ENDBRANCH  26  31
ENDBRANCH  24  26
ENDBRANCH  23  24
ENDBRANCH   1  23
TORSDOF 8
