REMARK  Name = ZINC63175616
REMARK  6 active torsions:
REMARK  status: ('A' for Active; 'I' for Inactive)
REMARK    1  A    between atoms: C_1  and  O_2
REMARK    2  A    between atoms: O_2  and  C_3
REMARK    3  A    between atoms: C_4  and  S_11
REMARK    4  A    between atoms: S_11  and  N_14
REMARK    5  A    between atoms: N_14  and  C_15
REMARK    6  A    between atoms: C_20  and  N_22
REMARK                            x       y       z     vdW  Elec       q    Type
REMARK                         _______ _______ _______ _____ _____    ______ ____
ROOT
ATOM      1  S   UNL     1      -1.849  -0.539  -2.258  0.00  0.00    +0.062 S 
ATOM      2  O   UNL     1      -1.981   0.814  -1.847  0.00  0.00    -0.153 OA
ATOM      3  O   UNL     1      -2.317  -1.002  -3.517  0.00  0.00    -0.153 OA
ENDROOT
BRANCH   1   5
ATOM      4  C   UNL     1       0.606  -0.607  -1.056  0.00  0.00    +0.160 A 
ATOM      5  C   UNL     1      -0.130  -0.921  -2.189  0.00  0.00    +0.149 A 
ATOM      6  C   UNL     1       0.486  -1.534  -3.264  0.00  0.00    +0.052 A 
ATOM      7  C   UNL     1       1.835  -1.835  -3.210  0.00  0.00    +0.044 A 
ATOM      8  C   UNL     1       2.571  -1.523  -2.081  0.00  0.00    +0.039 A 
ATOM      9  C   UNL     1       1.961  -0.905  -1.006  0.00  0.00    +0.063 A 
ATOM     10 BR   UNL     1       2.968  -0.472   0.534  0.00  0.00    -0.046 Br
ATOM     11 CL   UNL     1       2.606  -2.606  -4.561  0.00  0.00    -0.083 Cl
BRANCH   4  13
ATOM     12  C   UNL     1      -0.017   1.425   0.010  0.00  0.00    +0.277 C 
ATOM     13  O   UNL     1       0.002  -0.004   0.002  0.00  0.00    -0.492 OA
ENDBRANCH   4  13
ENDBRANCH   1   5
BRANCH   1  14
ATOM     14  N   UNL     1      -2.601  -1.460  -1.106  0.00  0.00    -0.188 NA
ATOM     15  H   UNL     1      -3.237  -2.143  -1.370  0.00  0.00    +0.148 HD
BRANCH  14  16
ATOM     16  C   UNL     1      -2.307  -1.243   0.313  0.00  0.00    +0.062 C 
ATOM     17  C   UNL     1      -1.280  -2.283   0.826  0.00  0.00    +0.019 C 
ATOM     18  C   UNL     1      -1.530  -2.342   2.347  0.00  0.00    -0.000 C 
ATOM     19  C   UNL     1      -2.975  -1.866   2.575  0.00  0.00    -0.015 C 
ATOM     20  C   UNL     1      -3.555  -1.530   1.183  0.00  0.00    -0.056 C 
BRANCH  20  21
ATOM     21  N   UNL     1      -4.417  -0.342   1.254  0.00  0.00    +0.381 N 
ATOM     22  H   UNL     1      -4.716  -0.088   0.324  0.00  0.00    -0.090 HD
ATOM     23  H   UNL     1      -5.224  -0.546   1.823  0.00  0.00    -0.090 HD
ATOM     24  H   UNL     1      -3.902   0.423   1.662  0.00  0.00    -0.090 HD
ENDBRANCH  20  21
ENDBRANCH  14  16
ENDBRANCH   1  14
TORSDOF 5
