REMARK  Name = ZINC61882040
REMARK  9 active torsions:
REMARK  status: ('A' for Active; 'I' for Inactive)
REMARK    1  A    between atoms: C_1  and  C_2
REMARK    2  A    between atoms: C_2  and  C_3
REMARK    3  A    between atoms: C_3  and  C_4
REMARK    4  A    between atoms: C_4  and  N_5
REMARK    5  A    between atoms: N_5  and  C_6
REMARK    6  A    between atoms: N_5  and  S_10
REMARK    7  A    between atoms: C_6  and  C_7
REMARK    8  A    between atoms: S_10  and  C_13
REMARK    9  A    between atoms: C_17  and  N_20
REMARK                            x       y       z     vdW  Elec       q    Type
REMARK                         _______ _______ _______ _____ _____    ______ ____
ROOT
ATOM      1  S   UNL     1      -3.786  -2.264   1.359  0.00  0.00    +0.062 S 
ATOM      2  O   UNL     1      -3.181  -1.714   2.522  0.00  0.00    -0.153 OA
ATOM      3  O   UNL     1      -4.855  -1.619   0.680  0.00  0.00    -0.153 OA
ENDROOT
BRANCH   1   4
ATOM      4  C   UNL     1      -4.365  -3.867   1.802  0.00  0.00    +0.123 A 
ATOM      5  C   UNL     1      -4.141  -4.355   3.077  0.00  0.00    +0.049 A 
ATOM      6  C   UNL     1      -4.594  -5.614   3.429  0.00  0.00    +0.045 A 
ATOM      7  C   UNL     1      -5.274  -6.388   2.507  0.00  0.00    +0.044 A 
ATOM      8  C   UNL     1      -5.501  -5.901   1.227  0.00  0.00    +0.042 A 
ATOM      9  C   UNL     1      -5.049  -4.634   0.878  0.00  0.00    +0.065 A 
ATOM     10 BR   UNL     1      -5.362  -3.963  -0.862  0.00  0.00    -0.046 Br
ATOM     11 CL   UNL     1      -4.309  -6.222   5.030  0.00  0.00    -0.083 Cl
BRANCH   8  12
ATOM     12  N   UNL     1      -6.188  -6.681   0.293  0.00  0.00    -0.357 N 
ATOM     13  H   UNL     1      -6.506  -7.564   0.538  0.00  0.00    +0.142 HD
ATOM     14  H   UNL     1      -6.346  -6.340  -0.601  0.00  0.00    +0.142 HD
ENDBRANCH   8  12
ENDBRANCH   1   4
BRANCH   1  15
ATOM     15  N   UNL     1      -2.575  -2.470   0.248  0.00  0.00    -0.168 NA
BRANCH  15  16
ATOM     16  C   UNL     1      -1.214  -2.775   0.697  0.00  0.00    +0.110 C 
BRANCH  16  17
ATOM     17  C   UNL     1      -0.416  -1.476   0.824  0.00  0.00    +0.017 C 
BRANCH  17  19
ATOM     18  C   UNL     1       1.770  -0.485   1.517  0.00  0.00    +0.004 C 
ATOM     19  C   UNL     1       0.972  -1.784   1.390  0.00  0.00    -0.002 C 
ENDBRANCH  17  19
ENDBRANCH  16  17
ENDBRANCH  15  16
BRANCH  15  20
ATOM     20  C   UNL     1      -2.865  -2.347  -1.182  0.00  0.00    +0.204 C 
BRANCH  20  21
ATOM     21  C   UNL     1      -2.640  -3.676  -1.856  0.00  0.00    +0.226 C 
ATOM     22  O   UNL     1      -2.274  -4.632  -1.205  0.00  0.00    -0.275 OA
ATOM     23  N   UNL     1      -2.846  -3.803  -3.182  0.00  0.00    -0.328 N 
ATOM     24  H   UNL     1      -3.139  -3.039  -3.703  0.00  0.00    +0.145 HD
ATOM     25  H   UNL     1      -2.702  -4.659  -3.616  0.00  0.00    +0.145 HD
ENDBRANCH  20  21
ENDBRANCH  15  20
ENDBRANCH   1  15
TORSDOF 8
