REMARK  Name = ZINC00358116
REMARK  5 active torsions:
REMARK  status: ('A' for Active; 'I' for Inactive)
REMARK    1  A    between atoms: C_4  and  O_24
REMARK    2  A    between atoms: C_5  and  C_7
REMARK    3  A    between atoms: N_8  and  C_9
REMARK    4  A    between atoms: C_12  and  S_15
REMARK    5  A    between atoms: S_15  and  N_18
REMARK                            x       y       z     vdW  Elec       q    Type
REMARK                         _______ _______ _______ _____ _____    ______ ____
ROOT
ATOM      1  C   UNL     1       3.568   5.940   0.001  0.00  0.00    +0.064 A 
ATOM      2  C   UNL     1       4.615   5.567   0.847  0.00  0.00    +0.029 A 
ATOM      3  C   UNL     1       5.797   6.277   0.831  0.00  0.00    +0.030 A 
ATOM      4  C   UNL     1       5.944   7.364  -0.013  0.00  0.00    +0.106 A 
ATOM      5  C   UNL     1       4.909   7.742  -0.851  0.00  0.00    +0.030 A 
ATOM      6  C   UNL     1       3.723   7.037  -0.849  0.00  0.00    +0.029 A 
ENDROOT
BRANCH   4   7
ATOM      7  S   UNL     1       7.455   8.270  -0.022  0.00  0.00    +0.061 S 
ATOM      8  O   UNL     1       8.461   7.387   0.455  0.00  0.00    -0.153 OA
ATOM      9  O   UNL     1       7.539   8.907  -1.290  0.00  0.00    -0.153 OA
BRANCH   7  10
ATOM     10  N   UNL     1       7.310   9.475   1.104  0.00  0.00    -0.177 NA
ATOM     11  C   UNL     1       6.782  10.793   0.727  0.00  0.00    +0.109 C 
ATOM     12  C   UNL     1       5.616  11.139   1.664  0.00  0.00    +0.017 C 
ATOM     13  C   UNL     1       6.091  11.045   3.116  0.00  0.00    +0.003 C 
ATOM     14  C   UNL     1       6.540   9.614   3.416  0.00  0.00    +0.017 C 
ATOM     15  C   UNL     1       7.712   9.248   2.499  0.00  0.00    +0.109 C 
ENDBRANCH   7  10
ENDBRANCH   4   7
BRANCH   1  17
ATOM     16  C   UNL     1       2.416   3.932   0.001  0.00  0.00    +0.123 C 
ATOM     17  N   UNL     1       2.395   5.236   0.008  0.00  0.00    -0.255 NA
BRANCH  16  22
ATOM     18  C   UNL     1      -0.013   1.076   0.008  0.00  0.00    +0.001 A 
ATOM     19  C   UNL     1      -1.224   1.749   0.017  0.00  0.00    +0.004 A 
ATOM     20  C   UNL     1      -1.256   3.130   0.031  0.00  0.00    +0.046 A 
ATOM     21  C   UNL     1      -0.074   3.853   0.024  0.00  0.00    +0.125 A 
ATOM     22  C   UNL     1       1.155   3.176   0.008  0.00  0.00    +0.034 A 
ATOM     23  C   UNL     1       1.173   1.778   0.000  0.00  0.00    +0.013 A 
BRANCH  21  24
ATOM     24  O   UNL     1      -0.105   5.210   0.032  0.00  0.00    -0.506 OA
ATOM     25  H   UNL     1      -0.122   5.608  -0.850  0.00  0.00    +0.292 HD
ENDBRANCH  21  24
ENDBRANCH  16  22
ENDBRANCH   1  17
TORSDOF 5
