REMARK  Name = ZINC22061982
REMARK  10 active torsions:
REMARK  status: ('A' for Active; 'I' for Inactive)
REMARK    1  A    between atoms: C_1  and  C_2
REMARK    2  A    between atoms: C_2  and  N_3
REMARK    3  A    between atoms: C_4  and  C_28
REMARK    4  A    between atoms: C_7  and  S_8
REMARK    5  A    between atoms: S_8  and  C_9
REMARK    6  A    between atoms: C_12  and  S_18
REMARK    7  A    between atoms: C_14  and  N_15
REMARK    8  A    between atoms: S_18  and  N_21
REMARK    9  A    between atoms: N_24  and  C_27
REMARK   10  A    between atoms: C_32  and  C_33
REMARK                            x       y       z     vdW  Elec       q    Type
REMARK                         _______ _______ _______ _____ _____    ______ ____
ROOT
ATOM      1  C   UNL     1       1.200  -0.681  -0.015  0.00  0.00    +0.046 A 
ATOM      2  C   UNL     1       2.414  -0.000  -0.118  0.00  0.00    +0.019 A 
ATOM      3  C   UNL     1       2.432   1.378  -0.102  0.00  0.00    +0.030 A 
ATOM      4  C   UNL     1       1.248   2.087   0.016  0.00  0.00    +0.108 A 
ATOM      5  C   UNL     1       0.040   1.417   0.118  0.00  0.00    +0.062 A 
ATOM      6  C   UNL     1       0.011   0.038   0.103  0.00  0.00    +0.142 A 
ENDROOT
BRANCH   6   7
ATOM      7  N   UNL     1      -1.281  -0.676   0.212  0.00  0.00    +0.058 N 
ATOM      8  O   UNL     1      -2.403   0.004   0.323  0.00  0.00    -0.126 OA
ATOM      9  O   UNL     1      -1.308  -1.993   0.198  0.00  0.00    -0.126 OA
ENDBRANCH   6   7
BRANCH   4  10
ATOM     10  S   UNL     1       1.278   3.849   0.036  0.00  0.00    +0.061 S 
ATOM     11  O   UNL     1       2.475   4.242  -0.622  0.00  0.00    -0.153 OA
ATOM     12  O   UNL     1      -0.005   4.282  -0.394  0.00  0.00    -0.153 OA
BRANCH  10  13
ATOM     13  N   UNL     1       1.431   4.318   1.617  0.00  0.00    -0.180 NA
ATOM     14  C   UNL     1       0.244   4.558   2.451  0.00  0.00    +0.091 C 
ATOM     15  C   UNL     1       0.401   3.758   3.754  0.00  0.00    -0.062 C 
ATOM     16  N   UNL     1       1.682   4.104   4.384  0.00  0.00    +0.380 N 
ATOM     17  C   UNL     1       2.815   3.719   3.532  0.00  0.00    -0.062 C 
ATOM     18  C   UNL     1       2.757   4.512   2.222  0.00  0.00    +0.091 C 
ATOM     19  C   UNL     1       1.795   3.496   5.716  0.00  0.00    -0.096 C 
ATOM     20  H   UNL     1       1.711   5.197   4.505  0.00  0.00    -0.082 HD
ENDBRANCH  10  13
ENDBRANCH   4  10
BRANCH   1  21
ATOM     21  S   UNL     1       1.170  -2.443  -0.036  0.00  0.00    -0.048 S 
BRANCH  21  26
ATOM     22  N   UNL     1       0.941  -3.986   2.233  0.00  0.00    -0.302 N 
ATOM     23  C   UNL     1       0.733  -3.760   3.568  0.00  0.00    +0.168 A 
ATOM     24  N   UNL     1       0.622  -2.419   3.740  0.00  0.00    -0.128 NA
ATOM     25  N   UNL     1       0.754  -1.829   2.604  0.00  0.00    -0.122 NA
ATOM     26  C   UNL     1       0.948  -2.755   1.633  0.00  0.00    +0.197 A 
BRANCH  23  27
ATOM     27  C   UNL     1       0.651  -4.740   4.577  0.00  0.00    +0.060 A 
ATOM     28  C   UNL     1      -0.127  -5.987   4.552  0.00  0.00    +0.053 A 
ATOM     29  C   UNL     1       0.105  -6.593   5.726  0.00  0.00    +0.196 A 
ATOM     30  O   UNL     1       0.943  -5.851   6.469  0.00  0.00    -0.467 OA
ATOM     31  C   UNL     1       1.302  -4.740   5.827  0.00  0.00    +0.112 A 
ATOM     32  C   UNL     1       2.234  -3.675   6.344  0.00  0.00    +0.087 C 
ENDBRANCH  23  27
BRANCH  22  34
ATOM     33  C   UNL     1       2.588  -5.703   1.666  0.00  0.00    +0.027 C 
ATOM     34  C   UNL     1       1.119  -5.285   1.578  0.00  0.00    +0.122 C 
ENDBRANCH  22  34
ENDBRANCH  21  26
ENDBRANCH   1  21
TORSDOF 7
