REMARK  Name = ZINC61341441
REMARK  10 active torsions:
REMARK  status: ('A' for Active; 'I' for Inactive)
REMARK    1  A    between atoms: C_1  and  C_2
REMARK    2  A    between atoms: C_5  and  C_23
REMARK    3  A    between atoms: C_10  and  C_11
REMARK    4  A    between atoms: C_13  and  C_20
REMARK    5  A    between atoms: C_14  and  O_19
REMARK    6  A    between atoms: C_15  and  O_17
REMARK    7  A    between atoms: O_17  and  C_18
REMARK    8  A    between atoms: C_20  and  C_21
REMARK    9  A    between atoms: C_23  and  O_25
REMARK   10  A    between atoms: O_25  and  C_26
REMARK                            x       y       z     vdW  Elec       q    Type
REMARK                         _______ _______ _______ _____ _____    ______ ____
ROOT
ATOM      1  C   UNL     1       0.780  -0.849  -5.286  0.00  0.00    +0.091 C 
ATOM      2  C   UNL     1      -0.597  -0.279  -5.065  0.00  0.00    +0.160 C 
ATOM      3  O   UNL     1      -1.393  -0.013  -6.118  0.00  0.00    -0.293 OA
ATOM      4  C   UNL     1      -1.033  -0.034  -3.808  0.00  0.00    +0.049 C 
ATOM      5  C   UNL     1      -2.368   0.364  -3.552  0.00  0.00    +0.148 C 
ATOM      6  N   UNL     1      -2.773   0.598  -2.323  0.00  0.00    -0.186 NA
ATOM      7  C   UNL     1      -2.005   0.489  -1.241  0.00  0.00    +0.155 C 
ATOM      8  S   UNL     1      -2.696   0.832   0.288  0.00  0.00    -0.017 S 
ATOM      9  N   UNL     1      -0.711   0.121  -1.292  0.00  0.00    -0.314 N 
ATOM     10  C   UNL     1      -0.117  -0.179  -2.607  0.00  0.00    +0.138 C 
ATOM     11  H   UNL     1      -0.183   0.052  -0.482  0.00  0.00    +0.149 HD
ENDROOT
BRANCH  10  12
ATOM     12  C   UNL     1       1.063   0.738  -2.804  0.00  0.00    -0.019 A 
ATOM     13  C   UNL     1       0.898   2.106  -2.698  0.00  0.00    +0.013 A 
ATOM     14  C   UNL     1       1.977   2.951  -2.877  0.00  0.00    +0.002 A 
ATOM     15  C   UNL     1       3.227   2.428  -3.164  0.00  0.00    +0.162 A 
ATOM     16  C   UNL     1       3.393   1.050  -3.270  0.00  0.00    +0.162 A 
ATOM     17  C   UNL     1       2.309   0.208  -3.084  0.00  0.00    +0.055 A 
BRANCH  16  18
ATOM     18  O   UNL     1       4.619   0.531  -3.551  0.00  0.00    -0.491 OA
ATOM     19  C   UNL     1       4.715  -0.891  -3.645  0.00  0.00    +0.277 C 
ENDBRANCH  16  18
BRANCH  15  20
ATOM     20  O   UNL     1       4.290   3.258  -3.341  0.00  0.00    -0.503 OA
ATOM     21  H   UNL     1       4.776   3.454  -2.529  0.00  0.00    +0.292 HD
ENDBRANCH  15  20
BRANCH  14  22
ATOM     22  C   UNL     1       1.793   4.443  -2.762  0.00  0.00    +0.065 C 
BRANCH  22  23
ATOM     23  C   UNL     1       2.255   4.902  -1.403  0.00  0.00    -0.030 C 
ATOM     24  C   UNL     1       3.157   5.847  -1.303  0.00  0.00    +0.004 C 
ENDBRANCH  22  23
ENDBRANCH  14  22
ENDBRANCH  10  12
BRANCH   5  25
ATOM     25  C   UNL     1      -3.320   0.521  -4.684  0.00  0.00    +0.356 C 
ATOM     26  O   UNL     1      -3.389   1.577  -5.277  0.00  0.00    -0.243 OA
BRANCH  25  27
ATOM     27  O   UNL     1      -4.105  -0.510  -5.050  0.00  0.00    -0.464 OA
ATOM     28  C   UNL     1      -4.996  -0.289  -6.145  0.00  0.00    +0.280 C 
ENDBRANCH  25  27
ENDBRANCH   5  25
TORSDOF 7
