REMARK  Name = ZINC04517243
REMARK  13 active torsions:
REMARK  status: ('A' for Active; 'I' for Inactive)
REMARK    1  A    between atoms: C_1  and  C_2
REMARK    2  A    between atoms: C_3  and  C_25
REMARK    3  A    between atoms: C_12  and  N_21
REMARK    4  A    between atoms: C_13  and  C_14
REMARK    5  A    between atoms: C_14  and  O_16
REMARK    6  A    between atoms: O_16  and  C_17
REMARK    7  A    between atoms: C_17  and  C_18
REMARK    8  A    between atoms: C_18  and  O_19
REMARK    9  A    between atoms: O_19  and  C_20
REMARK   10  A    between atoms: C_25  and  O_27
REMARK   11  A    between atoms: O_27  and  C_28
REMARK   12  A    between atoms: C_28  and  C_29
REMARK   13  A    between atoms: C_28  and  C_30
REMARK                            x       y       z     vdW  Elec       q    Type
REMARK                         _______ _______ _______ _____ _____    ______ ____
ROOT
ATOM      1  C   UNL     1       3.356  -2.097   1.800  0.00  0.00    +0.061 C 
ATOM      2  C   UNL     1       2.148  -2.700   1.130  0.00  0.00    +0.019 C 
ATOM      3  C   UNL     1       1.149  -1.975   0.590  0.00  0.00    +0.077 C 
ATOM      4  C   UNL     1       0.160  -2.978   0.041  0.00  0.00    +0.145 C 
ATOM      5  C   UNL     1      -1.165  -2.838   0.734  0.00  0.00    +0.019 A 
ATOM      6  C   UNL     1      -1.310  -3.276   2.037  0.00  0.00    +0.009 A 
ATOM      7  C   UNL     1      -2.525  -3.151   2.682  0.00  0.00    +0.001 A 
ATOM      8  C   UNL     1      -3.603  -2.587   2.025  0.00  0.00    +0.004 A 
ATOM      9  C   UNL     1      -3.465  -2.148   0.724  0.00  0.00    +0.046 A 
ATOM     10  C   UNL     1      -2.244  -2.272   0.072  0.00  0.00    +0.135 A 
ATOM     11  O   UNL     1      -2.124  -1.835  -1.206  0.00  0.00    -0.441 OA
ATOM     12  C   UNL     1      -1.109  -2.259  -1.974  0.00  0.00    +0.196 C 
ATOM     13  C   UNL     1       0.012  -2.813  -1.441  0.00  0.00    +0.117 C 
ATOM     14  C   UNL     1       0.785  -4.317   0.362  0.00  0.00    +0.237 C 
ATOM     15  O   UNL     1       0.337  -5.413   0.103  0.00  0.00    -0.274 OA
ATOM     16  N   UNL     1       1.940  -4.041   1.000  0.00  0.00    -0.288 N 
ATOM     17  H   UNL     1       2.552  -4.718   1.328  0.00  0.00    +0.155 HD
ENDROOT
BRANCH  12  18
ATOM     18  N   UNL     1      -1.205  -2.129  -3.334  0.00  0.00    -0.329 N 
ATOM     19  H   UNL     1      -0.515  -2.499  -3.907  0.00  0.00    +0.145 HD
ATOM     20  H   UNL     1      -1.964  -1.668  -3.725  0.00  0.00    +0.145 HD
ENDBRANCH  12  18
BRANCH  13  21
ATOM     21  C   UNL     1       1.044  -3.236  -2.291  0.00  0.00    +0.342 C 
ATOM     22  O   UNL     1       2.034  -2.542  -2.439  0.00  0.00    -0.245 OA
BRANCH  21  23
ATOM     23  O   UNL     1       0.941  -4.414  -2.944  0.00  0.00    -0.459 OA
BRANCH  23  24
ATOM     24  C   UNL     1       2.030  -4.783  -3.792  0.00  0.00    +0.260 C 
BRANCH  24  25
ATOM     25  C   UNL     1       1.735  -6.137  -4.441  0.00  0.00    +0.200 C 
BRANCH  25  26
ATOM     26  O   UNL     1       0.606  -6.013  -5.308  0.00  0.00    -0.380 OA
ATOM     27  C   UNL     1       0.244  -7.228  -5.968  0.00  0.00    +0.194 C 
ENDBRANCH  25  26
ENDBRANCH  24  25
ENDBRANCH  23  24
ENDBRANCH  21  23
ENDBRANCH  13  21
BRANCH   3  28
ATOM     28  C   UNL     1       1.044  -0.564   0.550  0.00  0.00    +0.339 C 
ATOM     29  O   UNL     1       1.919   0.125   1.040  0.00  0.00    -0.245 OA
BRANCH  28  30
ATOM     30  O   UNL     1      -0.027   0.016  -0.031  0.00  0.00    -0.459 OA
BRANCH  30  31
ATOM     31  C   UNL     1      -0.068   1.444  -0.035  0.00  0.00    +0.171 C 
ATOM     32  C   UNL     1      -0.830   1.929  -1.270  0.00  0.00    +0.052 C 
ATOM     33  C   UNL     1      -0.777   1.938   1.228  0.00  0.00    +0.052 C 
ENDBRANCH  30  31
ENDBRANCH  28  30
ENDBRANCH   3  28
TORSDOF 9
