REMARK  Name = ZINC01182728
REMARK  8 active torsions:
REMARK  status: ('A' for Active; 'I' for Inactive)
REMARK    1  A    between atoms: C_1  and  C_2
REMARK    2  A    between atoms: C_5  and  C_8
REMARK    3  A    between atoms: N_12  and  C_16
REMARK    4  A    between atoms: C_16  and  C_17
REMARK    5  A    between atoms: C_17  and  C_18
REMARK    6  A    between atoms: C_18  and  C_19
REMARK    7  A    between atoms: N_21  and  C_22
REMARK    8  A    between atoms: C_27  and  O_28
REMARK                            x       y       z     vdW  Elec       q    Type
REMARK                         _______ _______ _______ _____ _____    ______ ____
ROOT
ATOM      1  C   UNL     1      -3.862   8.123   0.414  0.00  0.00    +0.115 C 
ENDROOT
BRANCH   1   6
ATOM      2  C   UNL     1      -3.967  12.410   2.910  0.00  0.00    +0.028 C 
ATOM      3  C   UNL     1      -4.047  11.587   1.835  0.00  0.00    +0.077 C 
ATOM      4  C   UNL     1      -3.885  10.119   1.757  0.00  0.00    +0.258 C 
ATOM      5  O   UNL     1      -3.643   9.449   2.743  0.00  0.00    -0.269 OA
ATOM      6  N   UNL     1      -4.014   9.573   0.560  0.00  0.00    -0.255 N 
ATOM      7  C   UNL     1      -4.289  10.319  -0.530  0.00  0.00    +0.121 C 
ATOM      8  S   UNL     1      -4.497   9.800  -2.148  0.00  0.00    -0.027 S 
ATOM      9  S   UNL     1      -4.383  11.978   0.123  0.00  0.00    -0.061 S 
BRANCH   2  14
ATOM     10  C   UNL     1      -3.542  10.198   8.198  0.00  0.00    +0.044 C 
ATOM     11  C   UNL     1      -3.653  10.778   6.811  0.00  0.00    -0.050 A 
ATOM     12  C   UNL     1      -2.888  11.878   6.461  0.00  0.00    +0.004 A 
ATOM     13  C   UNL     1      -2.984  12.414   5.195  0.00  0.00    +0.008 A 
ATOM     14  C   UNL     1      -3.858  11.844   4.262  0.00  0.00    -0.024 A 
ATOM     15  C   UNL     1      -4.631  10.736   4.625  0.00  0.00    +0.008 A 
ATOM     16  C   UNL     1      -4.519  10.208   5.894  0.00  0.00    +0.004 A 
ENDBRANCH   2  14
ENDBRANCH   1   6
BRANCH   1  17
ATOM     17  C   UNL     1      -2.396   7.791   0.127  0.00  0.00    +0.029 C 
BRANCH  17  18
ATOM     18  C   UNL     1      -2.236   6.277  -0.025  0.00  0.00    +0.097 C 
BRANCH  18  19
ATOM     19  C   UNL     1      -0.793   5.950  -0.308  0.00  0.00    +0.217 C 
ATOM     20  O   UNL     1       0.028   6.840  -0.382  0.00  0.00    -0.275 OA
ATOM     21  N   UNL     1      -0.413   4.668  -0.480  0.00  0.00    -0.283 N 
ATOM     22  H   UNL     1      -1.079   3.962  -0.489  0.00  0.00    +0.155 HD
BRANCH  21  23
ATOM     23  C   UNL     1       0.942   4.355  -0.645  0.00  0.00    +0.077 A 
ATOM     24  C   UNL     1       1.784   5.237  -1.308  0.00  0.00    +0.047 A 
ATOM     25  C   UNL     1       3.122   4.925  -1.470  0.00  0.00    +0.043 A 
ATOM     26  C   UNL     1       3.623   3.736  -0.972  0.00  0.00    +0.023 A 
ATOM     27  C   UNL     1       2.790   2.853  -0.311  0.00  0.00    +0.049 A 
ATOM     28  C   UNL     1       1.447   3.155  -0.149  0.00  0.00    +0.138 A 
ATOM     29 CL   UNL     1       4.173   6.029  -2.299  0.00  0.00    -0.083 Cl
BRANCH  28  30
ATOM     30  O   UNL     1       0.625   2.285   0.496  0.00  0.00    -0.505 OA
ATOM     31  H   UNL     1       0.570   2.430   1.450  0.00  0.00    +0.292 HD
ENDBRANCH  28  30
ENDBRANCH  21  23
ENDBRANCH  18  19
ENDBRANCH  17  18
ENDBRANCH   1  17
TORSDOF 7
