REMARK  Name = ZINC20154819
REMARK  12 active torsions:
REMARK  status: ('A' for Active; 'I' for Inactive)
REMARK    1  A    between atoms: C_1  and  O_2
REMARK    2  A    between atoms: O_2  and  C_3
REMARK    3  A    between atoms: C_6  and  C_11
REMARK    4  A    between atoms: C_8  and  O_9
REMARK    5  A    between atoms: O_9  and  C_10
REMARK    6  A    between atoms: C_11  and  O_13
REMARK    7  A    between atoms: O_13  and  C_14
REMARK    8  A    between atoms: C_17  and  C_22
REMARK    9  A    between atoms: C_19  and  O_20
REMARK   10  A    between atoms: O_20  and  C_21
REMARK   11  A    between atoms: C_33  and  S_34
REMARK   12  A    between atoms: S_34  and  C_35
REMARK                            x       y       z     vdW  Elec       q    Type
REMARK                         _______ _______ _______ _____ _____    ______ ____
ROOT
ATOM      1  C   UNL     1       3.885  -2.600   6.104  0.00  0.00    +0.173 A 
ATOM      2  C   UNL     1       4.138  -3.955   5.931  0.00  0.00    +0.051 A 
ATOM      3  C   UNL     1       4.690  -4.692   6.954  0.00  0.00    +0.012 A 
ATOM      4  C   UNL     1       4.997  -4.075   8.175  0.00  0.00    -0.021 A 
ATOM      5  C   UNL     1       4.741  -2.708   8.348  0.00  0.00    +0.057 A 
ATOM      6  C   UNL     1       4.192  -1.977   7.314  0.00  0.00    +0.163 A 
ENDROOT
BRANCH   4   7
ATOM      7  C   UNL     1       5.584  -4.857   9.267  0.00  0.00    +0.024 C 
ATOM      8  C   UNL     1       5.207  -6.167   9.455  0.00  0.00    +0.079 C 
ATOM      9  C   UNL     1       5.901  -7.053  10.434  0.00  0.00    +0.137 C 
ATOM     10  N   UNL     1       6.423  -6.622  11.550  0.00  0.00    -0.284 NA
ATOM     11  N   UNL     1       5.935  -8.404  10.032  0.00  0.00    -0.211 N 
ATOM     12  C   UNL     1       4.982  -8.847   9.137  0.00  0.00    +0.183 C 
ATOM     13  N   UNL     1       4.081  -8.111   8.523  0.00  0.00    -0.152 NA
ATOM     14  C   UNL     1       4.083  -6.775   8.700  0.00  0.00    +0.273 C 
ATOM     15  O   UNL     1       3.187  -6.082   8.247  0.00  0.00    -0.268 OA
ATOM     16  S   UNL     1       5.282 -10.484   9.035  0.00  0.00    +0.048 S 
ATOM     17  N   UNL     1       6.640 -10.576  10.012  0.00  0.00    -0.185 NA
ATOM     18  C   UNL     1       6.814  -9.355  10.438  0.00  0.00    +0.175 C 
ATOM     19  H   UNL     1       6.370  -5.681  11.778  0.00  0.00    +0.188 HD
BRANCH  18  20
ATOM     20  S   UNL     1       8.153  -8.952  11.509  0.00  0.00    -0.093 S 
ATOM     21  C   UNL     1       9.014 -10.530  11.748  0.00  0.00    +0.093 C 
ENDBRANCH  18  20
ENDBRANCH   4   7
BRANCH   6  22
ATOM     22  O   UNL     1       3.947  -0.649   7.476  0.00  0.00    -0.491 OA
ATOM     23  C   UNL     1       4.286  -0.076   8.740  0.00  0.00    +0.277 C 
ENDBRANCH   6  22
BRANCH   1  24
ATOM     24  O   UNL     1       3.341  -1.879   5.090  0.00  0.00    -0.419 OA
BRANCH  24  25
ATOM     25  C   UNL     1       4.176  -1.211   4.270  0.00  0.00    +0.345 C 
ATOM     26  O   UNL     1       5.368  -1.190   4.503  0.00  0.00    -0.245 OA
BRANCH  25  30
ATOM     27  C   UNL     1       2.633   0.821   0.873  0.00  0.00    +0.162 A 
ATOM     28  C   UNL     1       1.774   0.132   1.719  0.00  0.00    +0.050 A 
ATOM     29  C   UNL     1       2.271  -0.528   2.821  0.00  0.00    +0.019 A 
ATOM     30  C   UNL     1       3.642  -0.505   3.090  0.00  0.00    +0.063 A 
ATOM     31  C   UNL     1       4.507   0.189   2.239  0.00  0.00    +0.064 A 
ATOM     32  C   UNL     1       4.003   0.844   1.132  0.00  0.00    +0.162 A 
BRANCH  27  34
ATOM     33  C   UNL     1       0.726   1.406  -0.419  0.00  0.00    +0.277 C 
ATOM     34  O   UNL     1       2.139   1.470  -0.213  0.00  0.00    -0.491 OA
ENDBRANCH  27  34
BRANCH  32  35
ATOM     35  O   UNL     1       4.842   1.515   0.299  0.00  0.00    -0.491 OA
ATOM     36  C   UNL     1       6.233   1.497   0.625  0.00  0.00    +0.277 C 
ENDBRANCH  32  35
ENDBRANCH  25  30
ENDBRANCH  24  25
ENDBRANCH   1  24
TORSDOF 8
