REMARK  Name = ZINC64954192
REMARK  11 active torsions:
REMARK  status: ('A' for Active; 'I' for Inactive)
REMARK    1  A    between atoms: C_1  and  C_2
REMARK    2  A    between atoms: C_2  and  O_3
REMARK    3  A    between atoms: O_3  and  C_4
REMARK    4  A    between atoms: C_7  and  C_10
REMARK    5  A    between atoms: C_10  and  N_11
REMARK    6  A    between atoms: C_12  and  C_14
REMARK    7  A    between atoms: C_20  and  C_27
REMARK    8  A    between atoms: C_20  and  C_28
REMARK    9  A    between atoms: N_21  and  C_24
REMARK   10  A    between atoms: N_30  and  C_31
REMARK   11  A    between atoms: C_31  and  C_32
REMARK                            x       y       z     vdW  Elec       q    Type
REMARK                         _______ _______ _______ _____ _____    ______ ____
ROOT
ATOM      1  C   UNL     1      -1.027  -8.302  -3.934  0.00  0.00    +0.155 A 
ATOM      2  C   UNL     1      -1.395  -9.608  -4.121  0.00  0.00    +0.137 A 
ATOM      3  N   UNL     1      -2.711  -9.593  -4.542  0.00  0.00    -0.323 N 
ATOM      4  C   UNL     1      -3.088  -8.316  -4.623  0.00  0.00    +0.200 A 
ATOM      5  N   UNL     1      -2.095  -7.543  -4.256  0.00  0.00    -0.230 NA
ATOM      6  C   UNL     1      -3.446 -10.832  -4.804  0.00  0.00    +0.158 C 
ATOM      7  C   UNL     1      -2.466 -11.912  -5.262  0.00  0.00    +0.129 C 
ATOM      8  N   UNL     1      -1.281 -11.989  -4.415  0.00  0.00    -0.277 N 
ATOM      9  C   UNL     1      -0.671 -10.877  -3.939  0.00  0.00    +0.267 C 
ATOM     10  O   UNL     1       0.414 -10.924  -3.392  0.00  0.00    -0.268 OA
ATOM     11  C   UNL     1      -3.178 -13.266  -5.241  0.00  0.00    +0.043 C 
ENDROOT
BRANCH   1  13
ATOM     12  N   UNL     1       0.506  -6.494  -3.320  0.00  0.00    -0.306 N 
ATOM     13  C   UNL     1       0.288  -7.816  -3.463  0.00  0.00    +0.265 C 
ATOM     14  O   UNL     1       1.172  -8.610  -3.206  0.00  0.00    -0.268 OA
ATOM     15  H   UNL     1      -0.199  -5.861  -3.526  0.00  0.00    +0.149 HD
BRANCH  12  16
ATOM     16  C   UNL     1       1.809  -6.013  -2.854  0.00  0.00    +0.140 C 
BRANCH  16  20
ATOM     17  C   UNL     1       1.761  -1.745  -2.646  0.00  0.00    +0.121 A 
ATOM     18  C   UNL     1       1.384  -2.498  -1.544  0.00  0.00    +0.046 A 
ATOM     19  C   UNL     1       1.400  -3.878  -1.614  0.00  0.00    +0.009 A 
ATOM     20  C   UNL     1       1.792  -4.508  -2.781  0.00  0.00    -0.030 A 
ATOM     21  C   UNL     1       2.168  -3.759  -3.881  0.00  0.00    +0.009 A 
ATOM     22  C   UNL     1       2.148  -2.379  -3.818  0.00  0.00    +0.046 A 
BRANCH  17  23
ATOM     23  O   UNL     1       1.746  -0.387  -2.580  0.00  0.00    -0.492 OA
BRANCH  23  25
ATOM     24  C   UNL     1       1.382   1.722  -1.459  0.00  0.00    +0.048 C 
ATOM     25  C   UNL     1       1.336   0.197  -1.343  0.00  0.00    +0.225 C 
ENDBRANCH  23  25
ENDBRANCH  17  23
ENDBRANCH  16  20
ENDBRANCH  12  16
ENDBRANCH   1  13
BRANCH   7  26
ATOM     26  C   UNL     1      -2.037 -11.612  -6.675  0.00  0.00    +0.238 C 
ATOM     27  O   UNL     1      -2.609 -12.137  -7.607  0.00  0.00    -0.273 OA
ATOM     28  N   UNL     1      -1.017 -10.761  -6.904  0.00  0.00    -0.309 N 
ATOM     29  H   UNL     1      -0.559 -10.342  -6.158  0.00  0.00    +0.149 HD
BRANCH  28  30
ATOM     30  C   UNL     1      -0.599 -10.470  -8.277  0.00  0.00    +0.139 C 
BRANCH  30  31
ATOM     31  C   UNL     1       0.552  -9.498  -8.257  0.00  0.00    -0.030 A 
ATOM     32  C   UNL     1       0.307  -8.138  -8.283  0.00  0.00    +0.008 A 
ATOM     33  C   UNL     1       1.362  -7.245  -8.264  0.00  0.00    +0.038 A 
ATOM     34  C   UNL     1       2.664  -7.713  -8.219  0.00  0.00    +0.123 A 
ATOM     35  C   UNL     1       2.908  -9.076  -8.193  0.00  0.00    +0.038 A 
ATOM     36  C   UNL     1       1.851  -9.967  -8.207  0.00  0.00    +0.008 A 
ATOM     37  F   UNL     1       3.696  -6.842  -8.201  0.00  0.00    -0.205 F 
ENDBRANCH  30  31
ENDBRANCH  28  30
ENDBRANCH   7  26
BRANCH   8  38
ATOM     38  C   UNL     1      -0.735 -13.304  -4.071  0.00  0.00    +0.078 C 
ATOM     39  C   UNL     1       0.255 -13.376  -2.907  0.00  0.00    +0.024 C 
ATOM     40  C   UNL     1       0.751 -13.546  -4.344  0.00  0.00    +0.024 C 
ENDBRANCH   8  38
TORSDOF 9
