REMARK  Name = ZINC65398126
REMARK  9 active torsions:
REMARK  status: ('A' for Active; 'I' for Inactive)
REMARK    1  A    between atoms: C_1  and  C_2
REMARK    2  A    between atoms: C_4  and  C_13
REMARK    3  A    between atoms: C_6  and  C_12
REMARK    4  A    between atoms: C_7  and  O_8
REMARK    5  A    between atoms: O_8  and  C_9
REMARK    6  A    between atoms: C_9  and  C_11
REMARK    7  A    between atoms: C_13  and  N_14
REMARK    8  A    between atoms: N_14  and  C_15
REMARK    9  A    between atoms: C_15  and  C_16
REMARK                            x       y       z     vdW  Elec       q    Type
REMARK                         _______ _______ _______ _____ _____    ______ ____
ROOT
ATOM      1  N   UNL     1       1.413  -3.039  -2.949  0.00  0.00    +0.382 N 
ATOM      2  H   UNL     1       1.877  -2.151  -3.066  0.00  0.00    -0.085 HD
ATOM      3  H   UNL     1       1.900  -3.583  -2.252  0.00  0.00    -0.085 HD
ENDROOT
BRANCH   1   4
ATOM      4  C   UNL     1       0.027  -2.816  -2.516  0.00  0.00    -0.047 C 
BRANCH   4   8
ATOM      5  C   UNL     1      -0.018   1.503   0.010  0.00  0.00    +0.047 C 
ATOM      6  C   UNL     1       0.002  -0.004   0.002  0.00  0.00    -0.008 A 
ATOM      7  C   UNL     1       0.006  -0.689  -1.198  0.00  0.00    +0.008 A 
ATOM      8  C   UNL     1       0.024  -2.071  -1.206  0.00  0.00    -0.064 A 
ATOM      9  C   UNL     1       0.039  -2.772  -0.014  0.00  0.00    +0.008 A 
ATOM     10  C   UNL     1       0.035  -2.092   1.188  0.00  0.00    -0.008 A 
ATOM     11  C   UNL     1       0.023  -0.705   1.199  0.00  0.00    +0.137 A 
ATOM     12  C   UNL     1       0.051  -2.856   2.487  0.00  0.00    +0.047 C 
BRANCH  11  13
ATOM     13  O   UNL     1       0.025  -0.033   2.381  0.00  0.00    -0.425 OA
BRANCH  13  14
ATOM     14  C   UNL     1      -1.159   0.263   2.941  0.00  0.00    +0.309 C 
ATOM     15  O   UNL     1      -2.184  -0.067   2.394  0.00  0.00    -0.251 OA
ATOM     16  C   UNL     1      -1.208   1.006   4.250  0.00  0.00    +0.136 C 
ENDBRANCH  13  14
ENDBRANCH  11  13
ENDBRANCH   4   8
ENDBRANCH   1   4
BRANCH   1  17
ATOM     17  C   UNL     1       1.417  -3.765  -4.226  0.00  0.00    -0.065 C 
BRANCH  17  18
ATOM     18  C   UNL     1       2.860  -3.998  -4.677  0.00  0.00    +0.082 C 
ATOM     19  C   UNL     1       2.830  -4.932  -5.870  0.00  0.00    -0.007 C 
ATOM     20  C   UNL     1       3.391  -4.485  -7.028  0.00  0.00    -0.007 A 
ATOM     21  C   UNL     1       3.403  -5.324  -8.227  0.00  0.00    +0.012 A 
ATOM     22  C   UNL     1       3.970  -4.843  -9.361  0.00  0.00    +0.039 A 
ATOM     23  C   UNL     1       4.541  -3.567  -9.405  0.00  0.00    +0.125 A 
ATOM     24  C   UNL     1       4.561  -2.733  -8.315  0.00  0.00    +0.062 A 
ATOM     25  C   UNL     1       3.998  -3.143  -7.096  0.00  0.00    +0.043 A 
ATOM     26  N   UNL     1       4.022  -2.325  -6.043  0.00  0.00    -0.284 N 
ATOM     27  C   UNL     1       3.510  -2.646  -4.868  0.00  0.00    +0.222 C 
ATOM     28  O   UNL     1       3.562  -1.857  -3.943  0.00  0.00    -0.275 OA
ATOM     29  F   UNL     1       5.093  -3.140 -10.562  0.00  0.00    -0.205 F 
ATOM     30  H   UNL     1       4.435  -1.453  -6.144  0.00  0.00    +0.155 HD
ENDBRANCH  17  18
ENDBRANCH   1  17
TORSDOF 6
