REMARK  Name = ZINC09421527
REMARK  4 active torsions:
REMARK  status: ('A' for Active; 'I' for Inactive)
REMARK    1  A    between atoms: C_8  and  C_12
REMARK    2  A    between atoms: C_12  and  C_13
REMARK    3  A    between atoms: C_13  and  N_14
REMARK    4  A    between atoms: C_15  and  C_17
REMARK                            x       y       z     vdW  Elec       q    Type
REMARK                         _______ _______ _______ _____ _____    ______ ____
ROOT
ATOM      1  N   UNL     1       4.445   0.916   1.403  0.00  0.00    -0.315 N 
ATOM      2  C   UNL     1       5.128   0.803   2.559  0.00  0.00    +0.218 C 
ATOM      3  O   UNL     1       4.588   1.070   3.612  0.00  0.00    -0.275 OA
ATOM      4  H   UNL     1       4.877   0.703   0.561  0.00  0.00    +0.149 HD
ENDROOT
BRANCH   2   5
ATOM      5  C   UNL     1       6.564   0.345   2.544  0.00  0.00    +0.092 C 
ATOM      6  C   UNL     1       6.647  -1.055   1.929  0.00  0.00    +0.016 C 
ATOM      7  C   UNL     1       8.100  -1.537   1.973  0.00  0.00    +0.020 C 
ATOM      8  C   UNL     1       8.593  -1.526   3.421  0.00  0.00    +0.106 C 
ATOM      9  N   UNL     1       8.494  -0.165   3.963  0.00  0.00    -0.313 N 
ATOM     10  C   UNL     1       7.102   0.301   3.976  0.00  0.00    +0.119 C 
ATOM     11  C   UNL     1       9.053  -0.093   5.227  0.00  0.00    +0.154 A 
ATOM     12  C   UNL     1      10.383  -0.490   5.449  0.00  0.00    +0.148 A 
ATOM     13  C   UNL     1      10.895  -0.394   6.754  0.00  0.00    +0.164 A 
ATOM     14  N   UNL     1      12.191  -0.840   6.685  0.00  0.00    -0.329 N 
ATOM     15  H   UNL     1      12.837  -0.900   7.446  0.00  0.00    +0.168 HD
ATOM     16  C   UNL     1      12.435  -1.187   5.389  0.00  0.00    +0.198 A 
ATOM     17  N   UNL     1      11.373  -0.981   4.666  0.00  0.00    -0.231 NA
ATOM     18  N   UNL     1      10.111   0.065   7.724  0.00  0.00    -0.198 NA
ATOM     19  C   UNL     1       8.870   0.427   7.470  0.00  0.00    +0.226 A 
ATOM     20  N   UNL     1       8.346   0.359   6.258  0.00  0.00    -0.200 NA
ATOM     21 CL   UNL     1       7.889   1.021   8.773  0.00  0.00    -0.041 Cl
ENDBRANCH   2   5
BRANCH   1  22
ATOM     22  C   UNL     1       3.049   1.361   1.418  0.00  0.00    +0.109 C 
BRANCH  22  23
ATOM     23  C   UNL     1       2.512   1.403  -0.014  0.00  0.00    +0.056 C 
BRANCH  23  31
ATOM     24  C   UNL     1      -0.899   5.575   0.037  0.00  0.00    +0.040 A 
ATOM     25  C   UNL     1      -1.542   4.357   0.037  0.00  0.00    +0.029 A 
ATOM     26  C   UNL     1      -0.801   3.181   0.025  0.00  0.00    +0.047 A 
ATOM     27  C   UNL     1       0.604   3.248   0.013  0.00  0.00    +0.006 A 
ATOM     28  C   UNL     1       1.243   4.490   0.013  0.00  0.00    +0.048 A 
ATOM     29  C   UNL     1       0.489   5.644   0.025  0.00  0.00    +0.124 A 
ATOM     30  F   UNL     1       1.103   6.847   0.025  0.00  0.00    -0.205 F 
ATOM     31  C   UNL     1       1.076   1.861   0.002  0.00  0.00    -0.021 A 
ATOM     32  C   UNL     1      -0.013   1.076   0.008  0.00  0.00    +0.087 A 
ATOM     33  N   UNL     1      -1.143   1.846   0.017  0.00  0.00    -0.360 N 
ATOM     34  H   UNL     1      -2.051   1.503   0.019  0.00  0.00    +0.165 HD
ENDBRANCH  23  31
ENDBRANCH  22  23
ENDBRANCH   1  22
TORSDOF 4
