REMARK  Name = ZINC12875285
REMARK  9 active torsions:
REMARK  status: ('A' for Active; 'I' for Inactive)
REMARK    1  A    between atoms: C_1  and  C_2
REMARK    2  A    between atoms: C_7  and  C_8
REMARK    3  A    between atoms: C_17  and  C_19
REMARK    4  A    between atoms: C_19  and  C_21
REMARK    5  A    between atoms: C_19  and  O_22
REMARK    6  A    between atoms: N_25  and  C_28
REMARK    7  A    between atoms: C_28  and  C_29
REMARK    8  A    between atoms: C_32  and  O_35
REMARK    9  A    between atoms: O_35  and  C_36
REMARK                            x       y       z     vdW  Elec       q    Type
REMARK                         _______ _______ _______ _____ _____    ______ ____
ROOT
ATOM      1  C   UNL     1       5.198   7.160   0.936  0.00  0.00    +0.044 C 
ATOM      2  C   UNL     1       4.374   5.903   1.035  0.00  0.00    -0.046 A 
ATOM      3  C   UNL     1       4.866   4.715   0.524  0.00  0.00    +0.004 A 
ATOM      4  C   UNL     1       4.109   3.561   0.615  0.00  0.00    +0.005 A 
ATOM      5  C   UNL     1       2.869   3.595   1.213  0.00  0.00    -0.027 A 
ATOM      6  C   UNL     1       2.364   4.784   1.732  0.00  0.00    +0.039 A 
ATOM      7  C   UNL     1       3.133   5.941   1.635  0.00  0.00    -0.026 A 
ATOM      8  C   UNL     1       2.606   7.240   2.189  0.00  0.00    +0.046 C 
ATOM      9  N   UNL     1       1.101   4.570   2.286  0.00  0.00    -0.286 N 
ATOM     10  C   UNL     1       0.707   3.286   2.175  0.00  0.00    +0.211 C 
ATOM     11  O   UNL     1      -0.339   2.813   2.567  0.00  0.00    -0.277 OA
ATOM     12  C   UNL     1       1.817   2.555   1.471  0.00  0.00    +0.050 C 
ATOM     13  C   UNL     1       1.327   1.916   0.166  0.00  0.00    +0.088 C 
ATOM     14  C   UNL     1       2.122   0.585   0.060  0.00  0.00    +0.075 C 
ATOM     15  C   UNL     1       3.022   0.560   1.313  0.00  0.00    -0.028 C 
ATOM     16  C   UNL     1       1.051  -0.474   0.193  0.00  0.00    +0.224 C 
ATOM     17  O   UNL     1       1.243  -1.671   0.171  0.00  0.00    -0.275 OA
ATOM     18  N   UNL     1      -0.141   0.116   0.337  0.00  0.00    -0.237 N 
ATOM     19  C   UNL     1      -0.104   1.453   0.333  0.00  0.00    +0.225 C 
ATOM     20  O   UNL     1      -1.067   2.181   0.441  0.00  0.00    -0.275 OA
ATOM     21  H   UNL     1       0.568   5.265   2.703  0.00  0.00    +0.155 HD
ATOM     22  N   UNL     1       2.343   1.452   2.256  0.00  0.00    +0.396 N 
ATOM     23  H   UNL     1       1.578   0.954   2.727  0.00  0.00    -0.083 HD
ATOM     24  H   UNL     1       3.008   1.800   2.957  0.00  0.00    -0.083 HD
ENDROOT
BRANCH  15  25
ATOM     25  C   UNL     1       3.126  -0.863   1.866  0.00  0.00    +0.098 C 
ATOM     26  C   UNL     1       3.875  -1.746   0.867  0.00  0.00    +0.036 C 
BRANCH  25  27
ATOM     27  O   UNL     1       3.834  -0.841   3.107  0.00  0.00    -0.394 OA
ATOM     28  H   UNL     1       3.937  -1.711   3.517  0.00  0.00    +0.210 HD
ENDBRANCH  25  27
ENDBRANCH  15  25
BRANCH  18  29
ATOM     29  C   UNL     1      -1.387  -0.641   0.487  0.00  0.00    +0.151 C 
BRANCH  29  30
ATOM     30  C   UNL     1      -1.984  -0.900  -0.872  0.00  0.00    -0.029 A 
ATOM     31  C   UNL     1      -2.877   0.004  -1.417  0.00  0.00    +0.009 A 
ATOM     32  C   UNL     1      -3.422  -0.228  -2.665  0.00  0.00    +0.046 A 
ATOM     33  C   UNL     1      -3.082  -1.376  -3.366  0.00  0.00    +0.120 A 
ATOM     34  C   UNL     1      -2.190  -2.285  -2.815  0.00  0.00    +0.046 A 
ATOM     35  C   UNL     1      -1.643  -2.045  -1.569  0.00  0.00    +0.009 A 
BRANCH  33  36
ATOM     36  O   UNL     1      -3.621  -1.610  -4.591  0.00  0.00    -0.495 OA
ATOM     37  C   UNL     1      -4.532  -0.631  -5.097  0.00  0.00    +0.277 C 
ENDBRANCH  33  36
ENDBRANCH  29  30
ENDBRANCH  18  29
TORSDOF 5
