REMARK  Name = ZINC37131349
REMARK  4 active torsions:
REMARK  status: ('A' for Active; 'I' for Inactive)
REMARK    1  A    between atoms: C_3  and  N_11
REMARK    2  A    between atoms: C_6  and  N_7
REMARK    3  A    between atoms: N_11  and  C_12
REMARK    4  A    between atoms: C_20  and  O_22
REMARK                            x       y       z     vdW  Elec       q    Type
REMARK                         _______ _______ _______ _____ _____    ______ ____
ROOT
ATOM      1  N   UNL     1       3.582   2.124  -0.021  0.00  0.00    -0.333 N 
ATOM      2  H   UNL     1       4.428   1.649  -0.032  0.00  0.00    +0.147 HD
ENDROOT
BRANCH   1   3
ATOM      3  C   UNL     1       3.564   3.589  -0.014  0.00  0.00    +0.142 C 
ATOM      4  C   UNL     1       3.528   4.149  -1.455  0.00  0.00    +0.256 C 
ATOM      5  O   UNL     1       4.920   4.345  -1.756  0.00  0.00    -0.489 OA
ATOM      6  C   UNL     1       5.602   4.572  -0.599  0.00  0.00    +0.129 A 
ATOM      7  C   UNL     1       4.875   4.145   0.507  0.00  0.00    +0.018 A 
ATOM      8  C   UNL     1       5.385   4.270   1.780  0.00  0.00    +0.013 A 
ATOM      9  C   UNL     1       6.633   4.834   1.974  0.00  0.00    +0.046 A 
ATOM     10  C   UNL     1       7.367   5.272   0.881  0.00  0.00    +0.120 A 
ATOM     11  C   UNL     1       6.856   5.143  -0.401  0.00  0.00    +0.091 A 
BRANCH  10  12
ATOM     12  O   UNL     1       8.592   5.830   1.068  0.00  0.00    -0.507 OA
ATOM     13  H   UNL     1       9.320   5.194   1.053  0.00  0.00    +0.292 HD
ENDBRANCH  10  12
ENDBRANCH   1   3
BRANCH   1  16
ATOM     14  C   UNL     1      -0.017   1.378   0.010  0.00  0.00    +0.034 A 
ATOM     15  C   UNL     1       1.169   2.087   0.002  0.00  0.00    +0.026 A 
ATOM     16  C   UNL     1       2.381   1.410  -0.013  0.00  0.00    +0.042 A 
ATOM     17  C   UNL     1       2.397   0.020  -0.021  0.00  0.00    +0.041 A 
ATOM     18  C   UNL     1       1.207  -0.682  -0.013  0.00  0.00    +0.049 A 
ATOM     19  C   UNL     1       0.002  -0.004   0.002  0.00  0.00    +0.127 A 
ATOM     20 BR   UNL     1       4.044  -0.908  -0.042  0.00  0.00    -0.048 Br
BRANCH  19  21
ATOM     21  N   UNL     1      -1.270  -0.760   0.010  0.00  0.00    +0.056 N 
ATOM     22  O   UNL     1      -2.325  -0.168   0.023  0.00  0.00    -0.126 OA
ATOM     23  O   UNL     1      -1.256  -1.969   0.003  0.00  0.00    -0.126 OA
ENDBRANCH  19  21
ENDBRANCH   1  16
TORSDOF 4
