REMARK  Name = ZINC04679529
REMARK  5 active torsions:
REMARK  status: ('A' for Active; 'I' for Inactive)
REMARK    1  A    between atoms: C_1  and  O_2
REMARK    2  A    between atoms: O_2  and  C_3
REMARK    3  A    between atoms: C_6  and  N_7
REMARK    4  A    between atoms: N_7  and  N_8
REMARK    5  A    between atoms: N_8  and  C_9
REMARK                            x       y       z     vdW  Elec       q    Type
REMARK                         _______ _______ _______ _____ _____    ______ ____
ROOT
ATOM      1  C   UNL     1      -1.202  -0.638   0.010  0.00  0.00    +0.169 C 
ATOM      2  C   UNL     1      -2.352   0.087   0.019  0.00  0.00    +0.059 C 
ATOM      3  C   UNL     1      -3.602  -0.574   0.028  0.00  0.00    -0.005 C 
ATOM      4  C   UNL     1      -4.787   0.169   0.037  0.00  0.00    +0.095 C 
ATOM      5  C   UNL     1      -3.652  -1.985   0.027  0.00  0.00    +0.033 C 
ATOM      6  C   UNL     1      -2.500  -2.706   0.018  0.00  0.00    +0.092 C 
ATOM      7  C   UNL     1      -1.256  -2.049   0.003  0.00  0.00    +0.238 C 
ATOM      8  O   UNL     1      -0.220  -2.701  -0.010  0.00  0.00    -0.282 OA
ATOM      9 CL   UNL     1      -2.564  -4.441   0.018  0.00  0.00    -0.079 Cl
ENDROOT
BRANCH   1  11
ATOM     10  C   UNL     1      -0.017   1.425   0.010  0.00  0.00    +0.277 C 
ATOM     11  O   UNL     1       0.002  -0.004   0.002  0.00  0.00    -0.491 OA
ENDBRANCH   1  11
BRANCH   4  12
ATOM     12  N   UNL     1      -4.738   1.510   0.038  0.00  0.00    -0.273 N 
ATOM     13  H   UNL     1      -3.881   1.964   0.032  0.00  0.00    +0.169 HD
BRANCH  12  14
ATOM     14  N   UNL     1      -5.925   2.254   0.047  0.00  0.00    -0.267 N 
ATOM     15  H   UNL     1      -6.782   1.800   0.052  0.00  0.00    +0.170 HD
BRANCH  14  16
ATOM     16  C   UNL     1      -5.874   3.650   0.047  0.00  0.00    +0.044 A 
ATOM     17  C   UNL     1      -4.648   4.302   0.033  0.00  0.00    +0.025 A 
ATOM     18  C   UNL     1      -4.601   5.682   0.034  0.00  0.00    +0.017 A 
ATOM     19  C   UNL     1      -5.774   6.416   0.048  0.00  0.00    +0.018 A 
ATOM     20  C   UNL     1      -6.997   5.769   0.063  0.00  0.00    +0.017 A 
ATOM     21  C   UNL     1      -7.051   4.389   0.056  0.00  0.00    +0.025 A 
ATOM     22 BR   UNL     1      -5.705   8.306   0.049  0.00  0.00    -0.050 Br
ENDBRANCH  14  16
ENDBRANCH  12  14
ENDBRANCH   4  12
TORSDOF 4
