REMARK  Name = ZINC13381929
REMARK  9 active torsions:
REMARK  status: ('A' for Active; 'I' for Inactive)
REMARK    1  A    between atoms: C_1  and  C_2
REMARK    2  A    between atoms: C_2  and  C_14
REMARK    3  A    between atoms: N_3  and  N_4
REMARK    4  A    between atoms: C_5  and  C_7
REMARK    5  A    between atoms: C_12  and  O_13
REMARK    6  A    between atoms: C_27  and  C_30
REMARK    7  A    between atoms: C_33  and  C_36
REMARK    8  A    between atoms: C_36  and  O_38
REMARK    9  A    between atoms: O_38  and  C_39
REMARK                            x       y       z     vdW  Elec       q    Type
REMARK                         _______ _______ _______ _____ _____    ______ ____
ROOT
ATOM      1  C   UNL     1      -5.877  -0.032   0.035  0.00  0.00    -0.002 A 
ATOM      2  C   UNL     1      -5.913   0.523  -1.247  0.00  0.00    +0.011 A 
ATOM      3  C   UNL     1      -5.117   1.603  -1.552  0.00  0.00    +0.024 A 
ATOM      4  C   UNL     1      -4.270   2.151  -0.592  0.00  0.00    +0.031 A 
ATOM      5  C   UNL     1      -4.226   1.586   0.690  0.00  0.00    -0.019 A 
ATOM      6  C   UNL     1      -5.025   0.512   1.000  0.00  0.00    +0.015 A 
ATOM      7  C   UNL     1      -3.280   2.176   1.663  0.00  0.00    +0.049 C 
ATOM      8  C   UNL     1      -3.507   2.090   3.128  0.00  0.00    -0.023 C 
ATOM      9  C   UNL     1      -2.992   3.170   3.702  0.00  0.00    -0.030 C 
ATOM     10  C   UNL     1      -2.398   4.095   2.637  0.00  0.00    +0.033 C 
ATOM     11  C   UNL     1      -3.222   3.711   1.401  0.00  0.00    +0.029 C 
ATOM     12  C   UNL     1      -2.554   3.865   0.047  0.00  0.00    +0.105 C 
ATOM     13  N   UNL     1      -3.486   3.259  -0.929  0.00  0.00    -0.336 N 
ATOM     14  H   UNL     1      -3.554   3.637  -1.820  0.00  0.00    +0.147 HD
ENDROOT
BRANCH  12  15
ATOM     15  C   UNL     1      -1.236   3.134   0.031  0.00  0.00    -0.027 A 
ATOM     16  C   UNL     1      -1.187   1.812  -0.373  0.00  0.00    +0.006 A 
ATOM     17  C   UNL     1       0.016   1.135  -0.385  0.00  0.00    +0.015 A 
ATOM     18  C   UNL     1       1.186   1.792   0.000  0.00  0.00    +0.059 A 
ATOM     19  C   UNL     1       1.130   3.129   0.401  0.00  0.00    +0.015 A 
ATOM     20  C   UNL     1      -0.080   3.791   0.414  0.00  0.00    +0.006 A 
BRANCH  18  21
ATOM     21  C   UNL     1       2.478   1.076  -0.015  0.00  0.00    +0.339 C 
ATOM     22  O   UNL     1       2.524  -0.087  -0.364  0.00  0.00    -0.245 OA
BRANCH  21  23
ATOM     23  O   UNL     1       3.606   1.713   0.357  0.00  0.00    -0.464 OA
ATOM     24  C   UNL     1       4.839   0.947   0.317  0.00  0.00    +0.280 C 
ENDBRANCH  21  23
ENDBRANCH  18  21
ENDBRANCH  12  15
BRANCH   1  26
ATOM     25  C   UNL     1      -7.652  -1.767  -0.676  0.00  0.00    +0.068 C 
ATOM     26  C   UNL     1      -6.734  -1.184   0.368  0.00  0.00    +0.063 C 
ATOM     27  N   UNL     1      -6.699  -1.697   1.560  0.00  0.00    -0.184 NA
BRANCH  27  28
ATOM     28  N   UNL     1      -7.513  -2.792   1.876  0.00  0.00    -0.203 N 
ATOM     29  C   UNL     1      -7.476  -3.324   3.114  0.00  0.00    +0.267 C 
ATOM     30  O   UNL     1      -6.735  -2.854   3.956  0.00  0.00    -0.268 OA
ATOM     31  H   UNL     1      -8.104  -3.167   1.204  0.00  0.00    +0.178 HD
BRANCH  29  32
ATOM     32  C   UNL     1      -8.334  -4.477   3.447  0.00  0.00    +0.080 A 
ATOM     33  C   UNL     1      -9.186  -5.020   2.482  0.00  0.00    +0.017 A 
ATOM     34  C   UNL     1      -9.985  -6.097   2.800  0.00  0.00    +0.001 A 
ATOM     35  C   UNL     1      -9.946  -6.645   4.072  0.00  0.00    +0.004 A 
ATOM     36  C   UNL     1      -9.109  -6.118   5.035  0.00  0.00    +0.046 A 
ATOM     37  C   UNL     1      -8.294  -5.037   4.731  0.00  0.00    +0.129 A 
BRANCH  37  38
ATOM     38  O   UNL     1      -7.466  -4.522   5.674  0.00  0.00    -0.506 OA
ATOM     39  H   UNL     1      -7.866  -3.821   6.208  0.00  0.00    +0.292 HD
ENDBRANCH  37  38
ENDBRANCH  29  32
ENDBRANCH  27  28
ENDBRANCH   1  26
TORSDOF 7
