REMARK  Name = ZINC00734879
REMARK  11 active torsions:
REMARK  status: ('A' for Active; 'I' for Inactive)
REMARK    1  A    between atoms: C_1  and  N_2
REMARK    2  A    between atoms: N_2  and  C_3
REMARK    3  A    between atoms: N_2  and  C_4
REMARK    4  A    between atoms: C_4  and  C_5
REMARK    5  A    between atoms: C_5  and  N_6
REMARK    6  A    between atoms: N_6  and  C_7
REMARK    7  A    between atoms: C_7  and  C_8
REMARK    8  A    between atoms: C_14  and  C_16
REMARK    9  A    between atoms: C_18  and  C_28
REMARK   10  A    between atoms: N_20  and  C_21
REMARK   11  A    between atoms: C_31  and  N_34
REMARK                            x       y       z     vdW  Elec       q    Type
REMARK                         _______ _______ _______ _____ _____    ______ ____
ROOT
ATOM      1  C   UNL     1       2.453   5.203   0.909  0.00  0.00    +0.130 A 
ATOM      2  C   UNL     1       2.280   3.872   1.237  0.00  0.00    +0.063 A 
ATOM      3  C   UNL     1       3.577   3.367   1.441  0.00  0.00    +0.094 A 
ATOM      4  N   UNL     1       4.425   4.354   1.235  0.00  0.00    -0.166 NA
ATOM      5  N   UNL     1       3.803   5.433   0.921  0.00  0.00    -0.226 N 
ENDROOT
BRANCH   5   6
ATOM      6  C   UNL     1       4.413   6.661   0.640  0.00  0.00    +0.084 A 
ATOM      7  C   UNL     1       4.101   7.342  -0.529  0.00  0.00    +0.029 A 
ATOM      8  C   UNL     1       4.705   8.553  -0.804  0.00  0.00    +0.002 A 
ATOM      9  C   UNL     1       5.624   9.086   0.081  0.00  0.00    +0.002 A 
ATOM     10  C   UNL     1       5.934   8.414   1.249  0.00  0.00    +0.022 A 
ATOM     11  C   UNL     1       5.333   7.201   1.531  0.00  0.00    +0.066 A 
ATOM     12 CL   UNL     1       5.728   6.355   2.994  0.00  0.00    -0.081 Cl
ENDBRANCH   5   6
BRANCH   3  13
ATOM     13  C   UNL     1       3.927   1.976   1.819  0.00  0.00    +0.002 A 
ATOM     14  C   UNL     1       2.922   1.030   2.011  0.00  0.00    +0.012 A 
ATOM     15  C   UNL     1       3.253  -0.265   2.357  0.00  0.00    +0.033 A 
ATOM     16  C   UNL     1       4.580  -0.621   2.524  0.00  0.00    +0.126 A 
ATOM     17  C   UNL     1       5.581   0.316   2.341  0.00  0.00    +0.033 A 
ATOM     18  C   UNL     1       5.261   1.611   1.989  0.00  0.00    +0.012 A 
BRANCH  16  19
ATOM     19  N   UNL     1       4.929  -2.009   2.902  0.00  0.00    +0.056 N 
ATOM     20  O   UNL     1       6.096  -2.325   3.050  0.00  0.00    -0.126 OA
ATOM     21  O   UNL     1       4.049  -2.835   3.064  0.00  0.00    -0.126 OA
ENDBRANCH  16  19
ENDBRANCH   3  13
BRANCH   1  23
ATOM     22  N   UNL     1       0.119   5.771   0.468  0.00  0.00    -0.294 N 
ATOM     23  C   UNL     1       1.397   6.180   0.603  0.00  0.00    +0.265 C 
ATOM     24  O   UNL     1       1.675   7.357   0.473  0.00  0.00    -0.268 OA
BRANCH  22  25
ATOM     25  C   UNL     1      -0.217   4.355   0.631  0.00  0.00    +0.090 C 
BRANCH  25  26
ATOM     26  C   UNL     1      -0.303   4.019   2.121  0.00  0.00    -0.060 C 
BRANCH  26  28
ATOM     27  C   UNL     1      -0.457   2.193   3.704  0.00  0.00    -0.097 C 
ATOM     28  N   UNL     1      -0.508   2.573   2.286  0.00  0.00    +0.377 N 
ATOM     29  C   UNL     1      -1.773   2.148   1.672  0.00  0.00    -0.097 C 
ATOM     30  H   UNL     1       0.311   2.054   1.766  0.00  0.00    -0.083 HD
ENDBRANCH  26  28
ENDBRANCH  25  26
ENDBRANCH  22  25
BRANCH  22  31
ATOM     31  C   UNL     1      -0.932   6.743   0.159  0.00  0.00    +0.143 C 
BRANCH  31  32
ATOM     32  C   UNL     1      -1.002   6.951  -1.332  0.00  0.00    -0.030 A 
ATOM     33  C   UNL     1      -0.241   7.939  -1.929  0.00  0.00    +0.005 A 
ATOM     34  C   UNL     1      -0.301   8.126  -3.297  0.00  0.00    +0.000 A 
ATOM     35  C   UNL     1      -1.129   7.332  -4.067  0.00  0.00    +0.000 A 
ATOM     36  C   UNL     1      -1.894   6.347  -3.470  0.00  0.00    +0.000 A 
ATOM     37  C   UNL     1      -1.830   6.157  -2.103  0.00  0.00    +0.005 A 
ENDBRANCH  31  32
ENDBRANCH  22  31
ENDBRANCH   1  23
TORSDOF 9
