REMARK  Name = ZINC66443983
REMARK  10 active torsions:
REMARK  status: ('A' for Active; 'I' for Inactive)
REMARK    1  A    between atoms: C_1  and  C_2
REMARK    2  A    between atoms: C_5  and  C_9
REMARK    3  A    between atoms: C_6  and  C_8
REMARK    4  A    between atoms: C_9  and  C_10
REMARK    5  A    between atoms: C_10  and  C_12
REMARK    6  A    between atoms: C_10  and  N_13
REMARK    7  A    between atoms: C_14  and  C_16
REMARK    8  A    between atoms: C_16  and  C_17
REMARK    9  A    between atoms: C_17  and  C_19
REMARK   10  A    between atoms: C_17  and  N_24
REMARK                            x       y       z     vdW  Elec       q    Type
REMARK                         _______ _______ _______ _____ _____    ______ ____
ROOT
ATOM      1  N   UNL     1      -2.143  -4.420  -1.074  0.00  0.00    -0.312 N 
ATOM      2  C   UNL     1      -3.484  -4.311  -0.997  0.00  0.00    +0.215 C 
ATOM      3  O   UNL     1      -4.051  -4.531   0.052  0.00  0.00    -0.276 OA
ATOM      4  H   UNL     1      -1.690  -4.245  -1.914  0.00  0.00    +0.149 HD
ENDROOT
BRANCH   1   5
ATOM      5  C   UNL     1      -1.370  -4.804   0.109  0.00  0.00    +0.074 C 
ATOM      6  C   UNL     1      -1.341  -6.330   0.226  0.00  0.00    +0.028 C 
BRANCH   5   7
ATOM      7  C   UNL     1       0.059  -4.275  -0.021  0.00  0.00    +0.057 C 
BRANCH   7  12
ATOM      8  C   UNL     1      -0.018   1.503   0.010  0.00  0.00    +0.044 C 
ATOM      9  C   UNL     1       0.002  -0.004   0.002  0.00  0.00    -0.050 A 
ATOM     10  C   UNL     1       0.006  -0.689  -1.199  0.00  0.00    +0.003 A 
ATOM     11  C   UNL     1       0.025  -2.071  -1.207  0.00  0.00    +0.004 A 
ATOM     12  C   UNL     1       0.040  -2.768  -0.013  0.00  0.00    -0.043 A 
ATOM     13  C   UNL     1       0.037  -2.084   1.188  0.00  0.00    -0.047 A 
ATOM     14  C   UNL     1       0.023  -0.702   1.195  0.00  0.00    +0.007 A 
ATOM     15  C   UNL     1       0.054  -2.845   2.489  0.00  0.00    +0.044 C 
ENDBRANCH   7  12
ENDBRANCH   5   7
ENDBRANCH   1   5
BRANCH   2  16
ATOM     16  C   UNL     1      -4.280  -3.916  -2.215  0.00  0.00    +0.123 C 
BRANCH  16  17
ATOM     17  C   UNL     1      -5.767  -3.866  -1.858  0.00  0.00    +0.120 C 
BRANCH  17  18
ATOM     18  N   UNL     1      -5.999  -2.800  -0.881  0.00  0.00    -0.292 N 
ATOM     19  C   UNL     1      -5.695  -1.524  -1.190  0.00  0.00    +0.298 C 
ATOM     20  O   UNL     1      -5.228  -1.257  -2.281  0.00  0.00    -0.253 OA
ATOM     21  N   UNL     1      -5.909  -0.543  -0.291  0.00  0.00    -0.313 N 
ATOM     22  H   UNL     1      -6.371  -3.012  -0.011  0.00  0.00    +0.151 HD
ATOM     23  H   UNL     1      -6.281  -0.755   0.579  0.00  0.00    +0.146 HD
ATOM     24  H   UNL     1      -5.690   0.376  -0.514  0.00  0.00    +0.146 HD
ENDBRANCH  17  18
BRANCH  17  25
ATOM     25  C   UNL     1      -6.572  -3.591  -3.102  0.00  0.00    +0.010 A 
ATOM     26  C   UNL     1      -7.263  -4.460  -3.880  0.00  0.00    +0.013 A 
ATOM     27  C   UNL     1      -7.938  -3.978  -4.986  0.00  0.00    +0.008 A 
ATOM     28  C   UNL     1      -7.889  -2.651  -5.260  0.00  0.00    +0.045 A 
ATOM     29  S   UNL     1      -6.870  -2.037  -3.928  0.00  0.00    -0.100 S 
ENDBRANCH  17  25
ENDBRANCH  16  17
ENDBRANCH   2  16
TORSDOF 7
