REMARK  Name = ZINC39735096
REMARK  7 active torsions:
REMARK  status: ('A' for Active; 'I' for Inactive)
REMARK    1  A    between atoms: C_1  and  C_2
REMARK    2  A    between atoms: C_4  and  N_17
REMARK    3  A    between atoms: N_8  and  C_11
REMARK    4  A    between atoms: N_9  and  C_10
REMARK    5  A    between atoms: C_18  and  C_20
REMARK    6  A    between atoms: C_20  and  N_21
REMARK    7  A    between atoms: C_24  and  N_27
REMARK                            x       y       z     vdW  Elec       q    Type
REMARK                         _______ _______ _______ _____ _____    ______ ____
ROOT
ATOM      1  C   UNL     1      -1.948  -1.459  -3.967  0.00  0.00    +0.019 C 
ENDROOT
BRANCH   1   2
ATOM      2  N   UNL     1      -1.640  -1.712  -5.381  0.00  0.00    +0.386 N 
ATOM      3  C   UNL     1      -1.088  -0.494  -5.986  0.00  0.00    -0.076 C 
ATOM      4  C   UNL     1      -0.691  -0.775  -7.436  0.00  0.00    +0.006 C 
ATOM      5  C   UNL     1      -1.927  -1.222  -8.221  0.00  0.00    +0.089 C 
ATOM      6  C   UNL     1      -2.538  -2.449  -7.538  0.00  0.00    +0.006 C 
ATOM      7  C   UNL     1      -2.867  -2.106  -6.084  0.00  0.00    -0.076 C 
ATOM      8  H   UNL     1      -0.961  -2.456  -5.448  0.00  0.00    -0.081 HD
BRANCH   5   9
ATOM      9  N   UNL     1      -1.540  -1.566  -9.591  0.00  0.00    -0.289 N 
ATOM     10  C   UNL     1      -2.016  -0.957 -10.750  0.00  0.00    +0.070 A 
ATOM     11  C   UNL     1      -2.918   0.070 -10.984  0.00  0.00    +0.028 A 
ATOM     12  C   UNL     1      -3.192   0.463 -12.279  0.00  0.00    +0.002 A 
ATOM     13  C   UNL     1      -2.570  -0.165 -13.345  0.00  0.00    +0.002 A 
ATOM     14  C   UNL     1      -1.671  -1.188 -13.123  0.00  0.00    +0.028 A 
ATOM     15  C   UNL     1      -1.388  -1.589 -11.825  0.00  0.00    +0.067 A 
ATOM     16  N   UNL     1      -0.551  -2.563 -11.287  0.00  0.00    -0.306 N 
ATOM     17  H   UNL     1       0.017  -3.166 -11.792  0.00  0.00    +0.170 HD
ATOM     18  C   UNL     1      -0.659  -2.521  -9.945  0.00  0.00    +0.328 A 
ATOM     19  O   UNL     1      -0.056  -3.239  -9.171  0.00  0.00    -0.247 OA
ENDBRANCH   5   9
ENDBRANCH   1   2
BRANCH   1  21
ATOM     20  N   UNL     1      -0.709  -0.912  -1.897  0.00  0.00    -0.304 N 
ATOM     21  C   UNL     1      -0.671  -1.175  -3.218  0.00  0.00    +0.197 C 
ATOM     22  O   UNL     1       0.391  -1.182  -3.804  0.00  0.00    -0.278 OA
ATOM     23  H   UNL     1      -1.558  -0.906  -1.427  0.00  0.00    +0.149 HD
BRANCH  20  26
ATOM     24  C   UNL     1       0.563   1.693  -0.164  0.00  0.00    +0.028 C 
ATOM     25  C   UNL     1       0.253   0.217   0.093  0.00  0.00    +0.102 C 
ATOM     26  C   UNL     1       0.532  -0.635  -1.169  0.00  0.00    +0.179 C 
ATOM     27  C   UNL     1       1.111  -1.907  -0.576  0.00  0.00    +0.256 C 
ATOM     28  O   UNL     1       1.250  -2.965  -1.153  0.00  0.00    -0.272 OA
ATOM     29  N   UNL     1       1.444  -1.654   0.704  0.00  0.00    -0.201 N 
ATOM     30  N   UNL     1       1.204  -0.362   1.070  0.00  0.00    -0.218 NA
ATOM     31  C   UNL     1       2.451   0.413   1.113  0.00  0.00    +0.128 C 
BRANCH  29  32
ATOM     32  C   UNL     1       1.979  -2.615   1.568  0.00  0.00    +0.053 A 
ATOM     33  C   UNL     1       1.462  -2.765   2.848  0.00  0.00    +0.025 A 
ATOM     34  C   UNL     1       1.992  -3.715   3.699  0.00  0.00    +0.002 A 
ATOM     35  C   UNL     1       3.037  -4.516   3.277  0.00  0.00    +0.000 A 
ATOM     36  C   UNL     1       3.555  -4.369   2.003  0.00  0.00    +0.002 A 
ATOM     37  C   UNL     1       3.025  -3.425   1.145  0.00  0.00    +0.025 A 
ENDBRANCH  29  32
ENDBRANCH  20  26
ENDBRANCH   1  21
TORSDOF 5
