REMARK  Name = ZINC43553307
REMARK  9 active torsions:
REMARK  status: ('A' for Active; 'I' for Inactive)
REMARK    1  A    between atoms: C_1  and  C_2
REMARK    2  A    between atoms: C_13  and  C_32
REMARK    3  A    between atoms: C_14  and  C_16
REMARK    4  A    between atoms: C_16  and  C_17
REMARK    5  A    between atoms: N_19  and  C_20
REMARK    6  A    between atoms: C_25  and  O_31
REMARK    7  A    between atoms: C_27  and  C_28
REMARK    8  A    between atoms: C_27  and  C_29
REMARK    9  A    between atoms: C_29  and  O_30
REMARK                            x       y       z     vdW  Elec       q    Type
REMARK                         _______ _______ _______ _____ _____    ______ ____
ROOT
ATOM      1  C   UNL     1       0.659   1.455   0.455  0.00  0.00    +0.109 C 
ATOM      2  C   UNL     1       0.521  -0.039   0.312  0.00  0.00    +0.216 C 
ATOM      3  O   UNL     1       0.472  -0.740   1.300  0.00  0.00    -0.276 OA
ATOM      4  N   UNL     1       0.452  -0.595  -0.913  0.00  0.00    -0.265 N 
ATOM      5  C   UNL     1       0.325  -1.973  -1.045  0.00  0.00    +0.165 A 
ATOM      6  N   UNL     1       0.244  -2.684  -2.149  0.00  0.00    -0.229 NA
ATOM      7  C   UNL     1       0.118  -4.004  -2.119  0.00  0.00    +0.058 A 
ATOM      8  C   UNL     1       0.089  -4.558  -0.881  0.00  0.00    +0.015 A 
ATOM      9  S   UNL     1       0.238  -3.138   0.170  0.00  0.00    -0.057 S 
ATOM     10  C   UNL     1      -0.034  -5.995  -0.526  0.00  0.00    +0.049 C 
ATOM     11  C   UNL     1      -0.212  -6.892  -1.766  0.00  0.00    +0.011 C 
ATOM     12  C   UNL     1       0.526  -6.310  -2.965  0.00  0.00    -0.019 C 
ATOM     13  C   UNL     1      -0.005  -4.917  -3.322  0.00  0.00    +0.054 C 
ATOM     14  C   UNL     1       2.021  -6.288  -2.670  0.00  0.00    +0.010 C 
ATOM     15  C   UNL     1       2.516  -7.720  -2.467  0.00  0.00    +0.032 C 
ATOM     16  C   UNL     1       1.782  -8.421  -1.338  0.00  0.00    +0.123 C 
ATOM     17  C   UNL     1       0.269  -8.289  -1.379  0.00  0.00    +0.021 C 
ATOM     18  C   UNL     1      -0.333  -9.375  -2.280  0.00  0.00    +0.016 C 
ATOM     19  C   UNL     1       0.287  -7.148  -4.230  0.00  0.00    +0.012 C 
ATOM     20  H   UNL     1       0.491  -0.034  -1.704  0.00  0.00    +0.157 HD
ENDROOT
BRANCH  16  21
ATOM     21  O   UNL     1       2.284  -7.962  -0.077  0.00  0.00    -0.391 OA
ATOM     22  H   UNL     1       3.228  -8.126   0.054  0.00  0.00    +0.210 HD
ENDBRANCH  16  21
BRANCH  13  23
ATOM     23  C   UNL     1       0.755  -4.340  -4.513  0.00  0.00    +0.106 C 
BRANCH  23  24
ATOM     24  C   UNL     1       0.086  -3.068  -4.966  0.00  0.00    +0.214 C 
ATOM     25  O   UNL     1      -0.902  -2.664  -4.391  0.00  0.00    -0.276 OA
ATOM     26  N   UNL     1       0.587  -2.380  -6.011  0.00  0.00    -0.312 N 
ATOM     27  H   UNL     1       1.377  -2.703  -6.471  0.00  0.00    +0.149 HD
BRANCH  26  28
ATOM     28  C   UNL     1      -0.063  -1.143  -6.452  0.00  0.00    +0.073 C 
ATOM     29  C   UNL     1      -0.245  -0.938  -7.957  0.00  0.00    +0.024 C 
ATOM     30  C   UNL     1       0.798  -0.118  -7.194  0.00  0.00    +0.024 C 
ENDBRANCH  26  28
ENDBRANCH  23  24
ENDBRANCH  13  23
BRANCH  17  31
ATOM     31  C   UNL     1      -0.255  -8.607   0.046  0.00  0.00    +0.165 C 
BRANCH  31  32
ATOM     32  O   UNL     1       0.182  -9.911   0.434  0.00  0.00    -0.394 OA
ATOM     33  H   UNL     1      -0.110 -10.177   1.317  0.00  0.00    +0.209 HD
ENDBRANCH  31  32
ENDBRANCH  17  31
TORSDOF 6
