REMARK  Name = ZINC36206763
REMARK  19 active torsions:
REMARK  status: ('A' for Active; 'I' for Inactive)
REMARK    1  A    between atoms: C_1  and  C_2
REMARK    2  A    between atoms: C_8  and  C_20
REMARK    3  A    between atoms: C_12  and  C_13
REMARK    4  A    between atoms: C_13  and  O_15
REMARK    5  A    between atoms: O_15  and  C_16
REMARK    6  A    between atoms: C_16  and  C_17
REMARK    7  A    between atoms: C_17  and  O_18
REMARK    8  A    between atoms: O_18  and  C_19
REMARK    9  A    between atoms: C_20  and  N_21
REMARK   10  A    between atoms: N_21  and  C_22
REMARK   11  A    between atoms: N_21  and  C_32
REMARK   12  A    between atoms: C_22  and  C_23
REMARK   13  A    between atoms: C_23  and  C_25
REMARK   14  A    between atoms: C_23  and  O_31
REMARK   15  A    between atoms: C_25  and  O_26
REMARK   16  A    between atoms: O_26  and  C_27
REMARK   17  A    between atoms: C_27  and  C_28
REMARK   18  A    between atoms: C_27  and  C_29
REMARK   19  A    between atoms: C_27  and  C_30
REMARK                            x       y       z     vdW  Elec       q    Type
REMARK                         _______ _______ _______ _____ _____    ______ ____
ROOT
ATOM      1  C   UNL     1       0.975   0.912   0.682  0.00  0.00    +0.046 C 
ATOM      2  C   UNL     1       0.991  -0.580   0.470  0.00  0.00    -0.015 A 
ATOM      3  C   UNL     1       0.753  -1.110  -0.800  0.00  0.00    +0.076 A 
ATOM      4  C   UNL     1       0.467  -0.403  -2.069  0.00  0.00    +0.260 A 
ATOM      5  O   UNL     1       0.412   0.813  -2.109  0.00  0.00    -0.267 OA
ATOM      6  N   UNL     1       0.270  -1.141  -3.180  0.00  0.00    -0.312 N 
ATOM      7  H   UNL     1       0.082  -0.694  -4.020  0.00  0.00    +0.170 HD
ATOM      8  C   UNL     1       0.330  -2.495  -3.147  0.00  0.00    +0.094 A 
ATOM      9  N   UNL     1       0.579  -3.148  -2.045  0.00  0.00    -0.229 NA
ATOM     10  C   UNL     1       0.788  -2.520  -0.896  0.00  0.00    +0.116 A 
ATOM     11  S   UNL     1       1.146  -3.033   0.766  0.00  0.00    -0.062 S 
ATOM     12  C   UNL     1       1.243  -1.417   1.519  0.00  0.00    +0.102 A 
ENDROOT
BRANCH  12  13
ATOM     13  C   UNL     1       1.521  -1.075   2.915  0.00  0.00    +0.346 C 
ATOM     14  O   UNL     1       1.546   0.090   3.262  0.00  0.00    -0.244 OA
BRANCH  13  15
ATOM     15  O   UNL     1       1.748  -2.052   3.817  0.00  0.00    -0.458 OA
BRANCH  15  16
ATOM     16  C   UNL     1       2.012  -1.646   5.161  0.00  0.00    +0.260 C 
BRANCH  16  17
ATOM     17  C   UNL     1       2.243  -2.883   6.032  0.00  0.00    +0.200 C 
BRANCH  17  18
ATOM     18  O   UNL     1       3.428  -3.555   5.600  0.00  0.00    -0.380 OA
ATOM     19  C   UNL     1       3.736  -4.730   6.351  0.00  0.00    +0.194 C 
ENDBRANCH  17  18
ENDBRANCH  16  17
ENDBRANCH  15  16
ENDBRANCH  13  15
ENDBRANCH  12  13
BRANCH   8  20
ATOM     20  C   UNL     1       0.101  -3.268  -4.420  0.00  0.00    -0.003 C 
BRANCH  20  21
ATOM     21  N   UNL     1       0.038  -4.704  -4.117  0.00  0.00    +0.388 N 
ATOM     22  H   UNL     1       0.695  -4.921  -3.382  0.00  0.00    -0.081 HD
BRANCH  21  23
ATOM     23  C   UNL     1      -1.320  -5.053  -3.678  0.00  0.00    -0.068 C 
ATOM     24  C   UNL     1      -2.313  -4.745  -4.800  0.00  0.00    -0.015 C 
ATOM     25  C   UNL     1      -3.727  -5.109  -4.343  0.00  0.00    -0.002 C 
ATOM     26  C   UNL     1      -4.089  -4.290  -3.103  0.00  0.00    -0.000 C 
ATOM     27  C   UNL     1      -3.096  -4.597  -1.981  0.00  0.00    -0.002 C 
ATOM     28  C   UNL     1      -1.681  -4.234  -2.438  0.00  0.00    -0.015 C 
ENDBRANCH  21  23
BRANCH  21  29
ATOM     29  C   UNL     1       0.377  -5.474  -5.321  0.00  0.00    -0.044 C 
BRANCH  29  30
ATOM     30  C   UNL     1       0.458  -6.961  -4.969  0.00  0.00    +0.124 C 
BRANCH  30  31
ATOM     31  O   UNL     1       1.470  -7.162  -3.981  0.00  0.00    -0.391 OA
ATOM     32  H   UNL     1       2.354  -6.887  -4.261  0.00  0.00    +0.210 HD
ENDBRANCH  30  31
BRANCH  30  33
ATOM     33  C   UNL     1       0.804  -7.764  -6.224  0.00  0.00    +0.189 C 
BRANCH  33  34
ATOM     34  O   UNL     1       0.766  -9.160  -5.923  0.00  0.00    -0.372 OA
BRANCH  34  35
ATOM     35  C   UNL     1       1.076 -10.004  -7.034  0.00  0.00    +0.061 C 
ATOM     36  C   UNL     1       2.487  -9.689  -7.535  0.00  0.00    +0.041 C 
ATOM     37  C   UNL     1       1.005 -11.469  -6.597  0.00  0.00    +0.041 C 
ATOM     38  C   UNL     1       0.069  -9.757  -8.158  0.00  0.00    +0.041 C 
ENDBRANCH  34  35
ENDBRANCH  33  34
ENDBRANCH  30  33
ENDBRANCH  29  30
ENDBRANCH  21  29
ENDBRANCH  20  21
ENDBRANCH   8  20
TORSDOF 14
