REMARK  Name = ZINC21316145
REMARK  7 active torsions:
REMARK  status: ('A' for Active; 'I' for Inactive)
REMARK    1  A    between atoms: C_5  and  N_7
REMARK    2  A    between atoms: C_8  and  C_10
REMARK    3  A    between atoms: C_10  and  S_11
REMARK    4  A    between atoms: S_11  and  C_12
REMARK    5  A    between atoms: N_16  and  N_17
REMARK    6  A    between atoms: N_18  and  N_19
REMARK    7  A    between atoms: C_20  and  C_21
REMARK                            x       y       z     vdW  Elec       q    Type
REMARK                         _______ _______ _______ _____ _____    ______ ____
ROOT
ATOM      1  C   UNL     1      -4.476   9.337   0.129  0.00  0.00    +0.210 A 
ATOM      2  N   UNL     1      -3.164   9.350   0.122  0.00  0.00    -0.119 NA
ATOM      3  N   UNL     1      -2.718   8.022   0.127  0.00  0.00    -0.109 NA
ATOM      4  C   UNL     1      -3.771   7.241   0.129  0.00  0.00    +0.254 A 
ATOM      5  N   UNL     1      -4.885   8.034   0.134  0.00  0.00    -0.211 N 
ATOM      6  N   UNL     1      -3.757   5.854   0.132  0.00  0.00    -0.204 N 
ATOM      7  H   UNL     1      -4.704   5.294   0.139  0.00  0.00    +0.177 HD
ENDROOT
BRANCH   5   8
ATOM      8  N   UNL     1      -6.179   7.599   0.142  0.00  0.00    -0.294 N 
ATOM      9  H   UNL     1      -6.397   6.520   0.146  0.00  0.00    +0.163 HD
ATOM     10  H   UNL     1      -7.004   8.326   0.145  0.00  0.00    +0.163 HD
ENDBRANCH   5   8
BRANCH   6  11
ATOM     11  N   UNL     1      -2.537   5.165   0.126  0.00  0.00    -0.187 NA
ATOM     12  C   UNL     1      -2.523   3.867   0.129  0.00  0.00    +0.139 C 
BRANCH  12  13
ATOM     13  C   UNL     1      -1.240   3.143   0.123  0.00  0.00    +0.014 A 
ATOM     14  C   UNL     1      -1.222   1.746   0.121  0.00  0.00    +0.011 A 
ATOM     15  C   UNL     1      -0.017   1.074   0.120  0.00  0.00    +0.002 A 
ATOM     16  C   UNL     1       1.173   1.780   0.112  0.00  0.00    +0.021 A 
ATOM     17  C   UNL     1       1.165   3.164   0.109  0.00  0.00    +0.060 A 
ATOM     18  C   UNL     1      -0.034   3.850   0.114  0.00  0.00    +0.068 A 
ATOM     19 CL   UNL     1      -0.044   5.586   0.110  0.00  0.00    -0.081 Cl
ATOM     20 CL   UNL     1       2.664   4.039   0.097  0.00  0.00    -0.082 Cl
ENDBRANCH  12  13
ENDBRANCH   6  11
BRANCH   1  21
ATOM     21  S   UNL     1      -5.526  10.752   0.133  0.00  0.00    -0.075 S 
BRANCH  21  22
ATOM     22  C   UNL     1      -4.374  12.153   0.123  0.00  0.00    +0.173 C 
BRANCH  22  24
ATOM     23  N   UNL     1      -4.502  14.624   0.119  0.00  0.00    -0.284 N 
ATOM     24  C   UNL     1      -5.153  13.444   0.126  0.00  0.00    +0.228 C 
ATOM     25  O   UNL     1      -6.365  13.420   0.133  0.00  0.00    -0.275 OA
ATOM     26  H   UNL     1      -3.404  14.646   0.187  0.00  0.00    +0.155 HD
BRANCH  23  31
ATOM     27  C   UNL     1      -7.174  17.114   0.541  0.00  0.00    +0.002 A 
ATOM     28  C   UNL     1      -6.647  18.186  -0.157  0.00  0.00    +0.002 A 
ATOM     29  C   UNL     1      -5.409  18.078  -0.763  0.00  0.00    +0.022 A 
ATOM     30  C   UNL     1      -4.695  16.898  -0.674  0.00  0.00    +0.062 A 
ATOM     31  C   UNL     1      -5.222  15.820   0.027  0.00  0.00    +0.052 A 
ATOM     32  C   UNL     1      -6.468  15.931   0.630  0.00  0.00    +0.025 A 
ATOM     33 CL   UNL     1      -3.141  16.763  -1.437  0.00  0.00    -0.082 Cl
ENDBRANCH  23  31
ENDBRANCH  22  24
ENDBRANCH  21  22
ENDBRANCH   1  21
TORSDOF 7
