REMARK  Name = ZINC39603597
REMARK  9 active torsions:
REMARK  status: ('A' for Active; 'I' for Inactive)
REMARK    1  A    between atoms: C_1  and  C_2
REMARK    2  A    between atoms: C_2  and  N_3
REMARK    3  A    between atoms: C_4  and  C_10
REMARK    4  A    between atoms: C_6  and  C_8
REMARK    5  A    between atoms: C_14  and  C_23
REMARK    6  A    between atoms: N_25  and  C_26
REMARK    7  A    between atoms: C_26  and  C_27
REMARK    8  A    between atoms: C_27  and  O_28
REMARK    9  A    between atoms: O_28  and  C_29
REMARK                            x       y       z     vdW  Elec       q    Type
REMARK                         _______ _______ _______ _____ _____    ______ ____
ROOT
ATOM      1  C   UNL     1      -1.457  -0.722   2.485  0.00  0.00    +0.266 C 
ATOM      2  O   UNL     1      -2.044  -1.150   3.460  0.00  0.00    -0.268 OA
ATOM      3  N   UNL     1      -0.192  -0.271   2.603  0.00  0.00    -0.295 N 
ATOM      4  C   UNL     1       0.713   0.188   1.524  0.00  0.00    +0.121 C 
ATOM      5  C   UNL     1       1.453   1.404   2.125  0.00  0.00    +0.100 C 
ATOM      6  C   UNL     1       1.382   1.193   3.647  0.00  0.00    -0.004 C 
ATOM      7  C   UNL     1       0.606  -0.117   3.843  0.00  0.00    +0.115 C 
ATOM      8  C   UNL     1       0.632   2.347   4.306  0.00  0.00    -0.010 C 
ATOM      9  C   UNL     1       0.624   2.143   5.824  0.00  0.00    -0.082 C 
ATOM     10  N   UNL     1       2.005   2.084   6.319  0.00  0.00    +0.379 N 
ATOM     11  C   UNL     1       2.691   0.917   5.751  0.00  0.00    -0.082 C 
ATOM     12  C   UNL     1       2.786   1.069   4.230  0.00  0.00    -0.010 C 
ATOM     13  H   UNL     1       2.494   2.924   6.048  0.00  0.00    -0.086 HD
ATOM     14  H   UNL     1       1.997   2.011   7.325  0.00  0.00    -0.086 HD
ENDROOT
BRANCH   1  16
ATOM     15  N   UNL     1      -2.108  -1.677   0.225  0.00  0.00    -0.258 N 
ATOM     16  C   UNL     1      -2.127  -0.696   1.176  0.00  0.00    +0.138 A 
ATOM     17  C   UNL     1      -2.905   0.328   0.660  0.00  0.00    +0.071 A 
ATOM     18  C   UNL     1      -3.313  -0.117  -0.600  0.00  0.00    +0.075 A 
ATOM     19  N   UNL     1      -2.801  -1.306  -0.791  0.00  0.00    -0.175 NA
ATOM     20  C   UNL     1      -4.183   0.640  -1.570  0.00  0.00    +0.069 C 
ATOM     21 BR   UNL     1      -3.325   1.976   1.486  0.00  0.00    -0.046 Br
BRANCH  15  23
ATOM     22  C   UNL     1       0.046  -2.782  -0.123  0.00  0.00    +0.029 C 
ATOM     23  C   UNL     1      -1.401  -2.955   0.343  0.00  0.00    +0.141 C 
ENDBRANCH  15  23
ENDBRANCH   1  16
BRANCH   5  24
ATOM     24  C   UNL     1       0.759   2.685   1.738  0.00  0.00    +0.218 C 
ATOM     25  O   UNL     1      -0.448   2.709   1.621  0.00  0.00    -0.275 OA
ATOM     26  N   UNL     1       1.480   3.803   1.521  0.00  0.00    -0.313 N 
ATOM     27  H   UNL     1       2.449   3.767   1.544  0.00  0.00    +0.149 HD
BRANCH  26  28
ATOM     28  C   UNL     1       0.800   5.072   1.252  0.00  0.00    +0.132 C 
BRANCH  28  29
ATOM     29  C   UNL     1       1.837   6.147   0.922  0.00  0.00    +0.178 C 
BRANCH  29  30
ATOM     30  O   UNL     1       2.514   5.799  -0.288  0.00  0.00    -0.381 OA
ATOM     31  C   UNL     1       3.510   6.743  -0.688  0.00  0.00    +0.194 C 
ENDBRANCH  29  30
ENDBRANCH  28  29
ENDBRANCH  26  28
ENDBRANCH   5  24
TORSDOF 6
