REMARK  Name = ZINC42428392
REMARK  7 active torsions:
REMARK  status: ('A' for Active; 'I' for Inactive)
REMARK    1  A    between atoms: C_1  and  C_2
REMARK    2  A    between atoms: C_2  and  C_3
REMARK    3  A    between atoms: C_2  and  N_4
REMARK    4  A    between atoms: N_4  and  C_5
REMARK    5  A    between atoms: N_4  and  C_9
REMARK    6  A    between atoms: C_5  and  C_6
REMARK    7  A    between atoms: C_18  and  N_19
REMARK                            x       y       z     vdW  Elec       q    Type
REMARK                         _______ _______ _______ _____ _____    ______ ____
ROOT
ATOM      1  C   UNL     1      -1.124   0.238   1.338  0.00  0.00    +0.062 A 
ATOM      2  C   UNL     1      -0.886  -0.567   2.474  0.00  0.00    +0.022 A 
ATOM      3  C   UNL     1       0.122  -1.542   2.478  0.00  0.00    +0.027 A 
ATOM      4  C   UNL     1       0.323  -2.300   3.593  0.00  0.00    +0.019 A 
ATOM      5  C   UNL     1      -0.463  -2.118   4.730  0.00  0.00    +0.017 A 
ATOM      6  C   UNL     1      -1.449  -1.181   4.759  0.00  0.00    +0.027 A 
ATOM      7  C   UNL     1      -1.686  -0.380   3.628  0.00  0.00    +0.048 A 
ATOM      8  N   UNL     1      -2.649   0.548   3.633  0.00  0.00    -0.359 N 
ATOM      9  C   UNL     1      -2.883   1.304   2.586  0.00  0.00    +0.107 A 
ATOM     10  C   UNL     1      -2.138   1.187   1.414  0.00  0.00    +0.063 A 
ATOM     11 BR   UNL     1       1.683  -3.614   3.597  0.00  0.00    -0.050 Br
ATOM     12  H   UNL     1      -3.188   0.664   4.430  0.00  0.00    +0.165 HD
ENDROOT
BRANCH  10  13
ATOM     13  N   UNL     1      -2.412   2.017   0.317  0.00  0.00    -0.355 N 
ATOM     14  H   UNL     1      -2.019   1.822  -0.548  0.00  0.00    +0.142 HD
ATOM     15  H   UNL     1      -2.994   2.785   0.424  0.00  0.00    +0.142 HD
ENDBRANCH  10  13
BRANCH   1  16
ATOM     16  N   UNL     1      -0.365   0.091   0.182  0.00  0.00    -0.317 N 
BRANCH  16  18
ATOM     17  C   UNL     1      -1.033  -2.188  -0.404  0.00  0.00    +0.027 C 
ATOM     18  C   UNL     1      -0.850  -0.756  -0.911  0.00  0.00    +0.068 C 
ATOM     19  C   UNL     1      -2.191  -0.218  -1.415  0.00  0.00    +0.027 C 
ENDBRANCH  16  18
BRANCH  16  20
ATOM     20  C   UNL     1       0.921   0.782   0.057  0.00  0.00    +0.200 C 
BRANCH  20  21
ATOM     21  C   UNL     1       0.728   2.066  -0.710  0.00  0.00    +0.228 C 
ATOM     22  O   UNL     1      -0.342   2.310  -1.224  0.00  0.00    -0.274 OA
ATOM     23  N   UNL     1       1.746   2.942  -0.823  0.00  0.00    -0.328 N 
ATOM     24  H   UNL     1       2.603   2.746  -0.412  0.00  0.00    +0.145 HD
ATOM     25  H   UNL     1       1.622   3.768  -1.317  0.00  0.00    +0.145 HD
ENDBRANCH  20  21
ENDBRANCH  16  20
ENDBRANCH   1  16
TORSDOF 5
