REMARK  Name = ZINC43218777
REMARK  6 active torsions:
REMARK  status: ('A' for Active; 'I' for Inactive)
REMARK    1  A    between atoms: C_1  and  C_2
REMARK    2  A    between atoms: C_7  and  C_8
REMARK    3  A    between atoms: N_16  and  C_19
REMARK    4  A    between atoms: C_23  and  N_25
REMARK    5  A    between atoms: C_28  and  C_30
REMARK    6  A    between atoms: C_28  and  C_36
REMARK                            x       y       z     vdW  Elec       q    Type
REMARK                         _______ _______ _______ _____ _____    ______ ____
ROOT
ATOM      1  C   UNL     1       0.242   0.061   2.485  0.00  0.00    -0.026 C 
ATOM      2  C   UNL     1       1.650   0.620   2.660  0.00  0.00    +0.078 C 
ATOM      3  C   UNL     1       2.358  -0.740   3.023  0.00  0.00    +0.090 C 
ATOM      4  C   UNL     1       3.748  -0.422   2.805  0.00  0.00    +0.229 C 
ATOM      5  O   UNL     1       4.707  -0.847   3.413  0.00  0.00    -0.275 OA
ATOM      6  N   UNL     1       3.749   0.467   1.759  0.00  0.00    -0.210 N 
ATOM      7  C   UNL     1       2.495   0.970   1.476  0.00  0.00    +0.229 C 
ATOM      8  O   UNL     1       2.144   1.563   0.480  0.00  0.00    -0.275 OA
ATOM      9  C   UNL     1       1.482  -1.317   4.051  0.00  0.00    +0.074 C 
ATOM     10  N   UNL     1       0.094  -0.868   3.653  0.00  0.00    +0.398 N 
ATOM     11  H   UNL     1      -0.336  -0.381   4.425  0.00  0.00    -0.083 HD
ATOM     12  H   UNL     1      -0.471  -1.661   3.389  0.00  0.00    -0.083 HD
ENDROOT
BRANCH   1  19
ATOM     13  C   UNL     1      -0.638   1.425   0.095  0.00  0.00    +0.044 C 
ATOM     14  C   UNL     1      -0.295  -0.041   0.043  0.00  0.00    -0.049 A 
ATOM     15  C   UNL     1      -0.395  -0.732  -1.151  0.00  0.00    +0.003 A 
ATOM     16  C   UNL     1      -0.080  -2.077  -1.199  0.00  0.00    +0.000 A 
ATOM     17  C   UNL     1       0.337  -2.731  -0.054  0.00  0.00    +0.000 A 
ATOM     18  C   UNL     1       0.438  -2.040   1.139  0.00  0.00    +0.002 A 
ATOM     19  C   UNL     1       0.127  -0.694   1.186  0.00  0.00    -0.058 A 
ENDBRANCH   1  19
BRANCH   6  20
ATOM     20  C   UNL     1       4.904   0.838   1.057  0.00  0.00    +0.046 A 
ATOM     21  C   UNL     1       6.134   0.295   1.404  0.00  0.00    +0.024 A 
ATOM     22  C   UNL     1       7.270   0.663   0.710  0.00  0.00    +0.004 A 
ATOM     23  C   UNL     1       7.184   1.571  -0.330  0.00  0.00    +0.033 A 
ATOM     24  C   UNL     1       5.960   2.113  -0.677  0.00  0.00    +0.128 A 
ATOM     25  C   UNL     1       4.819   1.745   0.009  0.00  0.00    +0.056 A 
BRANCH  24  26
ATOM     26  N   UNL     1       5.872   3.085  -1.790  0.00  0.00    +0.056 N 
ATOM     27  O   UNL     1       6.870   3.404  -2.394  0.00  0.00    -0.126 OA
ATOM     28  O   UNL     1       4.803   3.560  -2.095  0.00  0.00    -0.126 OA
ENDBRANCH  24  26
ENDBRANCH   6  20
BRANCH   9  29
ATOM     29  C   UNL     1       1.562  -2.822   4.025  0.00  0.00    -0.047 A 
ATOM     30  C   UNL     1       2.731  -3.446   3.630  0.00  0.00    +0.003 A 
ATOM     31  C   UNL     1       2.803  -4.826   3.606  0.00  0.00    +0.000 A 
ATOM     32  C   UNL     1       1.708  -5.582   3.977  0.00  0.00    +0.000 A 
ATOM     33  C   UNL     1       0.539  -4.959   4.372  0.00  0.00    +0.000 A 
ATOM     34  C   UNL     1       0.468  -3.579   4.401  0.00  0.00    +0.003 A 
ENDBRANCH   9  29
BRANCH   9  35
ATOM     35  C   UNL     1       1.857  -0.794   5.414  0.00  0.00    +0.350 C 
ATOM     36  O   UNL     1       1.039  -0.176   6.075  0.00  0.00    -0.248 OA
ATOM     37  O   UNL     1       2.976  -0.988   5.855  0.00  0.00    -0.248 OA
ENDBRANCH   9  35
TORSDOF 5
