REMARK  Name = ZINC08645959
REMARK  8 active torsions:
REMARK  status: ('A' for Active; 'I' for Inactive)
REMARK    1  A    between atoms: C_1  and  C_2
REMARK    2  A    between atoms: C_2  and  C_26
REMARK    3  A    between atoms: N_5  and  C_9
REMARK    4  A    between atoms: C_9  and  C_10
REMARK    5  A    between atoms: N_12  and  C_13
REMARK    6  A    between atoms: C_18  and  C_19
REMARK    7  A    between atoms: C_19  and  C_20
REMARK    8  A    between atoms: C_29  and  N_32
REMARK                            x       y       z     vdW  Elec       q    Type
REMARK                         _______ _______ _______ _____ _____    ______ ____
ROOT
ATOM      1  C   UNL     1      -7.524   5.730  -5.276  0.00  0.00    +0.047 C 
ATOM      2  C   UNL     1      -7.772   5.694  -3.767  0.00  0.00    +0.135 C 
ATOM      3  C   UNL     1      -6.658   4.947  -3.061  0.00  0.00    +0.251 C 
ATOM      4  O   UNL     1      -6.342   3.787  -3.216  0.00  0.00    -0.272 OA
ATOM      5  N   UNL     1      -6.091   5.841  -2.227  0.00  0.00    -0.215 N 
ATOM      6  C   UNL     1      -6.690   7.035  -2.303  0.00  0.00    +0.310 C 
ATOM      7  O   UNL     1      -6.358   8.000  -1.642  0.00  0.00    -0.252 OA
ATOM      8  N   UNL     1      -7.697   7.050  -3.195  0.00  0.00    -0.281 N 
ATOM      9  H   UNL     1      -8.265   7.804  -3.415  0.00  0.00    +0.152 HD
ENDROOT
BRANCH   2  10
ATOM     10  C   UNL     1      -9.107   5.065  -3.465  0.00  0.00    -0.015 A 
ATOM     11  C   UNL     1      -9.191   3.708  -3.214  0.00  0.00    +0.008 A 
ATOM     12  C   UNL     1     -10.415   3.131  -2.932  0.00  0.00    +0.033 A 
ATOM     13  C   UNL     1     -11.557   3.909  -2.911  0.00  0.00    +0.126 A 
ATOM     14  C   UNL     1     -11.475   5.265  -3.167  0.00  0.00    +0.033 A 
ATOM     15  C   UNL     1     -10.250   5.843  -3.445  0.00  0.00    +0.008 A 
BRANCH  13  16
ATOM     16  N   UNL     1     -12.869   3.291  -2.615  0.00  0.00    +0.056 N 
ATOM     17  O   UNL     1     -13.875   3.976  -2.596  0.00  0.00    -0.126 OA
ATOM     18  O   UNL     1     -12.942   2.096  -2.389  0.00  0.00    -0.126 OA
ENDBRANCH  13  16
ENDBRANCH   2  10
BRANCH   5  19
ATOM     19  C   UNL     1      -4.964   5.540  -1.341  0.00  0.00    +0.214 C 
BRANCH  19  20
ATOM     20  C   UNL     1      -3.670   5.819  -2.062  0.00  0.00    +0.235 C 
ATOM     21  O   UNL     1      -3.688   6.229  -3.204  0.00  0.00    -0.274 OA
ATOM     22  N   UNL     1      -2.493   5.614  -1.439  0.00  0.00    -0.284 N 
ATOM     23  H   UNL     1      -2.476   5.211  -0.556  0.00  0.00    +0.155 HD
BRANCH  22  24
ATOM     24  C   UNL     1      -1.297   5.980  -2.064  0.00  0.00    +0.037 A 
ATOM     25  C   UNL     1      -1.294   6.979  -3.030  0.00  0.00    +0.023 A 
ATOM     26  C   UNL     1      -0.112   7.334  -3.650  0.00  0.00    +0.002 A 
ATOM     27  C   UNL     1       1.068   6.701  -3.306  0.00  0.00    +0.000 A 
ATOM     28  C   UNL     1       1.070   5.711  -2.341  0.00  0.00    +0.006 A 
ATOM     29  C   UNL     1      -0.109   5.351  -1.718  0.00  0.00    -0.022 A 
BRANCH  29  30
ATOM     30  C   UNL     1      -0.106   4.270  -0.667  0.00  0.00    +0.072 C 
BRANCH  30  31
ATOM     31  C   UNL     1      -0.459   2.950  -1.303  0.00  0.00    -0.043 A 
ATOM     32  C   UNL     1       0.538   2.138  -1.809  0.00  0.00    +0.004 A 
ATOM     33  C   UNL     1       0.215   0.928  -2.393  0.00  0.00    +0.000 A 
ATOM     34  C   UNL     1      -1.107   0.529  -2.470  0.00  0.00    +0.000 A 
ATOM     35  C   UNL     1      -2.105   1.343  -1.968  0.00  0.00    +0.000 A 
ATOM     36  C   UNL     1      -1.781   2.552  -1.380  0.00  0.00    +0.004 A 
ENDBRANCH  30  31
ENDBRANCH  29  30
ENDBRANCH  22  24
ENDBRANCH  19  20
ENDBRANCH   5  19
TORSDOF 7
