REMARK  Name = ZINC33897433
REMARK  8 active torsions:
REMARK  status: ('A' for Active; 'I' for Inactive)
REMARK    1  A    between atoms: C_1  and  C_2
REMARK    2  A    between atoms: C_2  and  C_4
REMARK    3  A    between atoms: C_2  and  N_11
REMARK    4  A    between atoms: C_12  and  C_14
REMARK    5  A    between atoms: C_17  and  C_19
REMARK    6  A    between atoms: C_19  and  C_21
REMARK    7  A    between atoms: C_19  and  N_32
REMARK    8  A    between atoms: C_21  and  C_22
REMARK                            x       y       z     vdW  Elec       q    Type
REMARK                         _______ _______ _______ _____ _____    ______ ____
ROOT
ATOM      1  C   UNL     1       2.721  -1.062  -2.428  0.00  0.00    +0.163 A 
ATOM      2  C   UNL     1       4.063  -1.228  -2.582  0.00  0.00    +0.230 A 
ATOM      3  O   UNL     1       4.261  -1.676  -3.832  0.00  0.00    -0.449 OA
ATOM      4  C   UNL     1       3.067  -1.783  -4.433  0.00  0.00    +0.182 A 
ATOM      5  N   UNL     1       2.136  -1.423  -3.602  0.00  0.00    -0.210 NA
ENDROOT
BRANCH   1   7
ATOM      6  N   UNL     1       0.688  -0.476  -1.203  0.00  0.00    -0.303 N 
ATOM      7  C   UNL     1       2.031  -0.587  -1.215  0.00  0.00    +0.266 C 
ATOM      8  O   UNL     1       2.674  -0.294  -0.225  0.00  0.00    -0.268 OA
ATOM      9  H   UNL     1       0.175  -0.710  -1.993  0.00  0.00    +0.150 HD
BRANCH   6  11
ATOM     10  C   UNL     1      -0.019   1.526   0.010  0.00  0.00    +0.033 C 
ATOM     11  C   UNL     1       0.002  -0.004   0.002  0.00  0.00    +0.100 C 
BRANCH  11  12
ATOM     12  C   UNL     1      -1.412  -0.526   0.013  0.00  0.00    -0.027 A 
ATOM     13  C   UNL     1      -2.141  -0.569  -1.161  0.00  0.00    +0.006 A 
ATOM     14  C   UNL     1      -3.438  -1.048  -1.151  0.00  0.00    +0.015 A 
ATOM     15  C   UNL     1      -4.005  -1.484   0.032  0.00  0.00    +0.018 A 
ATOM     16  C   UNL     1      -3.275  -1.440   1.206  0.00  0.00    +0.015 A 
ATOM     17  C   UNL     1      -1.977  -0.966   1.195  0.00  0.00    +0.006 A 
ATOM     18 BR   UNL     1      -5.779  -2.138   0.046  0.00  0.00    -0.050 Br
ENDBRANCH  11  12
ENDBRANCH   6  11
ENDBRANCH   1   7
BRANCH   4  19
ATOM     19  C   UNL     1       2.841  -2.251  -5.848  0.00  0.00    +0.017 C 
BRANCH  19  20
ATOM     20  N   UNL     1       3.811  -1.600  -6.739  0.00  0.00    +0.386 N 
ATOM     21  H   UNL     1       4.747  -1.841  -6.451  0.00  0.00    -0.089 HD
ATOM     22  H   UNL     1       3.660  -1.914  -7.686  0.00  0.00    -0.089 HD
ATOM     23  H   UNL     1       3.692  -0.600  -6.693  0.00  0.00    -0.089 HD
ENDBRANCH  19  20
BRANCH  19  24
ATOM     24  C   UNL     1       3.022  -3.768  -5.918  0.00  0.00    +0.030 C 
BRANCH  24  25
ATOM     25  C   UNL     1       2.677  -4.252  -7.303  0.00  0.00    -0.023 A 
ATOM     26  C   UNL     1       1.489  -4.727  -7.710  0.00  0.00    +0.087 A 
ATOM     27  N   UNL     1       1.552  -5.068  -9.034  0.00  0.00    -0.360 N 
ATOM     28  H   UNL     1       0.817  -5.434  -9.550  0.00  0.00    +0.165 HD
ATOM     29  C   UNL     1       2.814  -4.815  -9.523  0.00  0.00    +0.047 A 
ATOM     30  C   UNL     1       3.572  -4.287  -8.462  0.00  0.00    +0.003 A 
ATOM     31  C   UNL     1       4.905  -3.928  -8.670  0.00  0.00    +0.010 A 
ATOM     32  C   UNL     1       5.466  -4.088  -9.905  0.00  0.00    +0.001 A 
ATOM     33  C   UNL     1       4.721  -4.605 -10.956  0.00  0.00    +0.002 A 
ATOM     34  C   UNL     1       3.407  -4.975 -10.771  0.00  0.00    +0.026 A 
ENDBRANCH  24  25
ENDBRANCH  19  24
ENDBRANCH   4  19
TORSDOF 7
