REMARK  Name = ZINC50122366
REMARK  5 active torsions:
REMARK  status: ('A' for Active; 'I' for Inactive)
REMARK    1  A    between atoms: C_1  and  C_2
REMARK    2  A    between atoms: C_2  and  C_3
REMARK    3  A    between atoms: C_2  and  C_4
REMARK    4  A    between atoms: C_2  and  N_5
REMARK    5  A    between atoms: C_8  and  C_11
REMARK                            x       y       z     vdW  Elec       q    Type
REMARK                         _______ _______ _______ _____ _____    ______ ____
ROOT
ATOM      1  N   UNL     1       0.688  -0.476  -1.203  0.00  0.00    -0.276 N 
ATOM      2  C   UNL     1       1.224   0.331  -2.166  0.00  0.00    +0.160 C 
ATOM      3  N   UNL     1       1.774  -0.320  -3.129  0.00  0.00    -0.366 N 
ATOM      4  C   UNL     1       1.632  -1.758  -2.852  0.00  0.00    +0.172 C 
ATOM      5  C   UNL     1       0.891  -1.800  -1.528  0.00  0.00    +0.101 C 
ATOM      6  N   UNL     1       0.530  -2.844  -0.857  0.00  0.00    -0.388 N 
ATOM      7  H   UNL     1       0.056  -2.741  -0.018  0.00  0.00    +0.157 HD
ATOM      8  H   UNL     1       0.734  -3.731  -1.193  0.00  0.00    +0.157 HD
ATOM      9  H   UNL     1       2.208   0.069  -3.904  0.00  0.00    +0.161 HD
ENDROOT
BRANCH   4  10
ATOM     10  C   UNL     1       0.828  -2.429  -3.935  0.00  0.00    -0.018 A 
ATOM     11  C   UNL     1      -0.255  -1.777  -4.496  0.00  0.00    +0.007 A 
ATOM     12  C   UNL     1      -0.993  -2.392  -5.490  0.00  0.00    +0.015 A 
ATOM     13  C   UNL     1      -0.647  -3.659  -5.924  0.00  0.00    +0.018 A 
ATOM     14  C   UNL     1       0.436  -4.311  -5.362  0.00  0.00    +0.015 A 
ATOM     15  C   UNL     1       1.176  -3.693  -4.372  0.00  0.00    +0.007 A 
ATOM     16 BR   UNL     1      -1.657  -4.501  -7.284  0.00  0.00    -0.050 Br
ENDBRANCH   4  10
BRANCH   1  18
ATOM     17  C   UNL     1      -0.019   1.526   0.010  0.00  0.00    +0.031 C 
ATOM     18  C   UNL     1       0.002  -0.004   0.002  0.00  0.00    +0.033 C 
ATOM     19  C   UNL     1       0.742  -0.511   1.242  0.00  0.00    +0.031 C 
ATOM     20  C   UNL     1      -1.433  -0.534   0.013  0.00  0.00    +0.031 C 
ENDBRANCH   1  18
TORSDOF 2
