REMARK  Name = ZINC39685693
REMARK  11 active torsions:
REMARK  status: ('A' for Active; 'I' for Inactive)
REMARK    1  A    between atoms: C_1  and  C_2
REMARK    2  A    between atoms: C_2  and  C_3
REMARK    3  A    between atoms: C_2  and  C_4
REMARK    4  A    between atoms: C_4  and  C_6
REMARK    5  A    between atoms: C_4  and  N_13
REMARK    6  A    between atoms: N_8  and  C_9
REMARK    7  A    between atoms: C_9  and  C_10
REMARK    8  A    between atoms: C_9  and  C_11
REMARK    9  A    between atoms: C_9  and  C_12
REMARK   10  A    between atoms: C_14  and  C_16
REMARK   11  A    between atoms: C_27  and  C_29
REMARK                            x       y       z     vdW  Elec       q    Type
REMARK                         _______ _______ _______ _____ _____    ______ ____
ROOT
ATOM      1  C   UNL     1       0.579  -4.338   1.818  0.00  0.00    +0.100 C 
ATOM      2  C   UNL     1       1.785  -4.112   0.878  0.00  0.00    +0.121 C 
ATOM      3  N   UNL     1       2.886  -3.693   1.777  0.00  0.00    -0.296 N 
ATOM      4  C   UNL     1       2.725  -4.544   2.980  0.00  0.00    +0.115 C 
ATOM      5  C   UNL     1       1.201  -4.625   3.196  0.00  0.00    -0.004 C 
ATOM      6  C   UNL     1       0.808  -6.020   3.672  0.00  0.00    -0.010 C 
ATOM      7  C   UNL     1       1.389  -6.259   5.069  0.00  0.00    -0.082 C 
ATOM      8  N   UNL     1       0.877  -5.242   5.995  0.00  0.00    +0.379 N 
ATOM      9  C   UNL     1       1.338  -3.911   5.580  0.00  0.00    -0.082 C 
ATOM     10  C   UNL     1       0.755  -3.572   4.206  0.00  0.00    -0.010 C 
ATOM     11  C   UNL     1       3.824  -2.751   1.550  0.00  0.00    +0.247 C 
ATOM     12  O   UNL     1       3.757  -2.053   0.557  0.00  0.00    -0.270 OA
ATOM     13  H   UNL     1      -0.131  -5.263   5.992  0.00  0.00    -0.086 HD
ATOM     14  H   UNL     1       1.213  -5.438   6.926  0.00  0.00    -0.086 HD
ENDROOT
BRANCH  11  15
ATOM     15  C   UNL     1       4.932  -2.566   2.510  0.00  0.00    +0.038 A 
ATOM     16  C   UNL     1       5.298  -3.606   3.367  0.00  0.00    +0.014 A 
ATOM     17  C   UNL     1       6.333  -3.429   4.261  0.00  0.00    +0.022 A 
ATOM     18  C   UNL     1       7.010  -2.221   4.310  0.00  0.00    +0.059 A 
ATOM     19  C   UNL     1       6.651  -1.185   3.463  0.00  0.00    +0.060 A 
ATOM     20  C   UNL     1       5.621  -1.353   2.560  0.00  0.00    +0.034 A 
ATOM     21 CL   UNL     1       7.505   0.326   3.532  0.00  0.00    -0.082 Cl
ATOM     22 CL   UNL     1       8.311  -2.005   5.439  0.00  0.00    -0.082 Cl
ENDBRANCH  11  15
BRANCH   1  24
ATOM     23  N   UNL     1      -1.590  -3.204   2.171  0.00  0.00    -0.303 N 
ATOM     24  C   UNL     1      -0.279  -3.101   1.877  0.00  0.00    +0.219 C 
ATOM     25  O   UNL     1       0.210  -2.013   1.660  0.00  0.00    -0.275 OA
ATOM     26  H   UNL     1      -1.982  -4.075   2.345  0.00  0.00    +0.149 HD
BRANCH  23  27
ATOM     27  C   UNL     1      -2.425  -2.002   2.229  0.00  0.00    +0.161 C 
BRANCH  27  28
ATOM     28  C   UNL     1      -3.608  -2.253   3.128  0.00  0.00    +0.234 C 
ATOM     29  O   UNL     1      -3.957  -3.390   3.367  0.00  0.00    -0.274 OA
ATOM     30  N   UNL     1      -4.278  -1.216   3.667  0.00  0.00    -0.309 N 
ATOM     31  H   UNL     1      -3.959  -0.310   3.532  0.00  0.00    +0.149 HD
BRANCH  30  32
ATOM     32  C   UNL     1      -5.489  -1.456   4.456  0.00  0.00    +0.026 C 
ATOM     33  C   UNL     1      -5.147  -2.339   5.658  0.00  0.00    +0.031 C 
ATOM     34  C   UNL     1      -6.050  -0.120   4.948  0.00  0.00    +0.031 C 
ATOM     35  C   UNL     1      -6.533  -2.159   3.587  0.00  0.00    +0.031 C 
ENDBRANCH  30  32
ENDBRANCH  27  28
BRANCH  27  37
ATOM     36  C   UNL     1      -1.725  -1.275  -0.057  0.00  0.00    +0.009 C 
ATOM     37  C   UNL     1      -2.918  -1.655   0.823  0.00  0.00    +0.012 C 
ATOM     38  C   UNL     1      -3.631  -2.867   0.219  0.00  0.00    +0.009 C 
ENDBRANCH  27  37
ENDBRANCH  23  27
ENDBRANCH   1  24
TORSDOF 6
