REMARK  Name = ZINC14733573
REMARK  10 active torsions:
REMARK  status: ('A' for Active; 'I' for Inactive)
REMARK    1  A    between atoms: C_1  and  C_2
REMARK    2  A    between atoms: C_5  and  C_9
REMARK    3  A    between atoms: C_6  and  C_8
REMARK    4  A    between atoms: C_9  and  N_72
REMARK    5  A    between atoms: C_14  and  C_26
REMARK    6  A    between atoms: N_16  and  C_17
REMARK    7  A    between atoms: C_17  and  C_18
REMARK    8  A    between atoms: C_22  and  O_24
REMARK    9  A    between atoms: O_24  and  C_25
REMARK   10  A    between atoms: C_32  and  O_35
REMARK                            x       y       z     vdW  Elec       q    Type
REMARK                         _______ _______ _______ _____ _____    ______ ____
ROOT
ATOM      1  C   UNL     1       4.024  -1.532   0.104  0.00  0.00    -0.072 C 
ATOM      2  C   UNL     1       3.959  -0.011   0.302  0.00  0.00    +0.037 C 
ATOM      3  C   UNL     1       2.506   0.386   0.352  0.00  0.00    +0.040 A 
ATOM      4  C   UNL     1       1.504  -0.428  -0.069  0.00  0.00    -0.011 A 
ATOM      5  C   UNL     1       0.315   0.286   0.140  0.00  0.00    +0.149 A 
ATOM      6  N   UNL     1       0.660   1.454   0.657  0.00  0.00    -0.166 NA
ATOM      7  N   UNL     1       1.941   1.522   0.784  0.00  0.00    -0.263 N 
ATOM      8  C   UNL     1       1.722  -1.803  -0.636  0.00  0.00    -0.038 C 
ATOM      9  N   UNL     1       3.150  -1.909  -1.029  0.00  0.00    +0.385 N 
ATOM     10  H   UNL     1       3.328  -1.269  -1.812  0.00  0.00    -0.081 HD
ENDROOT
BRANCH   5  11
ATOM     11  C   UNL     1      -1.056  -0.176  -0.158  0.00  0.00    +0.267 C 
ATOM     12  O   UNL     1      -1.246  -1.319  -0.527  0.00  0.00    -0.268 OA
ATOM     13  N   UNL     1      -2.097   0.669  -0.021  0.00  0.00    -0.294 N 
ATOM     14  C   UNL     1      -1.873   2.089   0.286  0.00  0.00    +0.108 C 
ATOM     15  C   UNL     1      -2.603   2.940  -0.757  0.00  0.00    +0.021 C 
ATOM     16  C   UNL     1      -4.077   2.532  -0.803  0.00  0.00    +0.034 C 
ATOM     17  C   UNL     1      -4.189   1.062  -1.215  0.00  0.00    +0.132 C 
ATOM     18  C   UNL     1      -3.477   0.190  -0.182  0.00  0.00    +0.139 C 
BRANCH  17  19
ATOM     19  O   UNL     1      -5.567   0.690  -1.287  0.00  0.00    -0.390 OA
ATOM     20  H   UNL     1      -5.712  -0.231  -1.543  0.00  0.00    +0.210 HD
ENDBRANCH  17  19
ENDBRANCH   5  11
BRANCH   9  21
ATOM     21  C   UNL     1       3.453  -3.290  -1.460  0.00  0.00    -0.042 C 
BRANCH  21  26
ATOM     22  C   UNL     1       8.518  -3.291  -4.241  0.00  0.00    +0.044 C 
ATOM     23  C   UNL     1       7.197  -3.291  -3.516  0.00  0.00    -0.050 A 
ATOM     24  C   UNL     1       7.138  -3.667  -2.187  0.00  0.00    +0.003 A 
ATOM     25  C   UNL     1       5.926  -3.667  -1.522  0.00  0.00    +0.002 A 
ATOM     26  C   UNL     1       4.774  -3.290  -2.185  0.00  0.00    -0.061 A 
ATOM     27  C   UNL     1       4.832  -2.918  -3.515  0.00  0.00    -0.049 A 
ATOM     28  C   UNL     1       6.045  -2.913  -4.179  0.00  0.00    +0.007 A 
ATOM     29  C   UNL     1       3.575  -2.513  -4.240  0.00  0.00    +0.044 C 
ENDBRANCH  21  26
ENDBRANCH   9  21
BRANCH   7  30
ATOM     30  C   UNL     1       2.672   2.672   1.322  0.00  0.00    +0.179 C 
BRANCH  30  31
ATOM     31  C   UNL     1       2.823   2.519   2.813  0.00  0.00    -0.023 A 
ATOM     32  C   UNL     1       3.927   1.869   3.333  0.00  0.00    +0.005 A 
ATOM     33  C   UNL     1       4.069   1.727   4.700  0.00  0.00    +0.004 A 
ATOM     34  C   UNL     1       3.108   2.236   5.552  0.00  0.00    +0.045 A 
ATOM     35  C   UNL     1       1.999   2.889   5.034  0.00  0.00    +0.120 A 
ATOM     36  C   UNL     1       1.862   3.034   3.661  0.00  0.00    +0.051 A 
BRANCH  35  37
ATOM     37  O   UNL     1       1.052   3.391   5.869  0.00  0.00    -0.495 OA
ATOM     38  C   UNL     1       1.263   3.211   7.271  0.00  0.00    +0.277 C 
ENDBRANCH  35  37
ENDBRANCH  30  31
ENDBRANCH   7  30
TORSDOF 7
