REMARK  Name = ZINC39686037
REMARK  6 active torsions:
REMARK  status: ('A' for Active; 'I' for Inactive)
REMARK    1  A    between atoms: C_1  and  C_2
REMARK    2  A    between atoms: C_2  and  C_3
REMARK    3  A    between atoms: C_2  and  C_4
REMARK    4  A    between atoms: C_9  and  N_12
REMARK    5  A    between atoms: C_13  and  C_15
REMARK    6  A    between atoms: C_26  and  C_28
REMARK                            x       y       z     vdW  Elec       q    Type
REMARK                         _______ _______ _______ _____ _____    ______ ____
ROOT
ATOM      1  C   UNL     1       6.772   2.800  -4.032  0.00  0.00    +0.100 C 
ATOM      2  C   UNL     1       7.066   3.969  -3.064  0.00  0.00    +0.121 C 
ATOM      3  N   UNL     1       8.537   3.947  -2.886  0.00  0.00    -0.296 N 
ATOM      4  C   UNL     1       9.066   3.631  -4.235  0.00  0.00    +0.115 C 
ATOM      5  C   UNL     1       8.086   2.585  -4.801  0.00  0.00    -0.004 C 
ATOM      6  C   UNL     1       7.870   2.816  -6.293  0.00  0.00    -0.010 C 
ATOM      7  C   UNL     1       9.176   2.539  -7.043  0.00  0.00    -0.082 C 
ATOM      8  N   UNL     1       9.598   1.155  -6.799  0.00  0.00    +0.379 N 
ATOM      9  C   UNL     1       9.894   0.966  -5.374  0.00  0.00    -0.082 C 
ATOM     10  C   UNL     1       8.618   1.176  -4.553  0.00  0.00    -0.010 C 
ATOM     11  C   UNL     1       9.235   4.165  -1.755  0.00  0.00    +0.249 C 
ATOM     12  O   UNL     1      10.450   4.208  -1.789  0.00  0.00    -0.270 OA
ATOM     13  H   UNL     1       8.859   0.525  -7.074  0.00  0.00    -0.086 HD
ATOM     14  H   UNL     1      10.425   0.956  -7.342  0.00  0.00    -0.086 HD
ENDROOT
BRANCH  11  15
ATOM     15  C   UNL     1       8.525   4.351  -0.473  0.00  0.00    +0.073 A 
ATOM     16  C   UNL     1       7.297   5.014  -0.441  0.00  0.00    +0.016 A 
ATOM     17  C   UNL     1       6.638   5.185   0.758  0.00  0.00    +0.002 A 
ATOM     18  C   UNL     1       7.191   4.701   1.931  0.00  0.00    +0.023 A 
ATOM     19  C   UNL     1       8.408   4.043   1.911  0.00  0.00    +0.077 A 
ATOM     20  C   UNL     1       9.078   3.860   0.714  0.00  0.00    +0.154 A 
ATOM     21  F   UNL     1      10.263   3.212   0.692  0.00  0.00    -0.203 F 
ATOM     22 CL   UNL     1       9.092   3.440   3.388  0.00  0.00    -0.081 Cl
ENDBRANCH  11  15
BRANCH   1  24
ATOM     23  N   UNL     1       5.566   0.653  -3.799  0.00  0.00    -0.312 N 
ATOM     24  C   UNL     1       6.406   1.559  -3.260  0.00  0.00    +0.218 C 
ATOM     25  O   UNL     1       6.867   1.375  -2.153  0.00  0.00    -0.275 OA
ATOM     26  H   UNL     1       5.197   0.800  -4.684  0.00  0.00    +0.149 HD
BRANCH  23  32
ATOM     27  C   UNL     1       4.314  -4.559  -3.215  0.00  0.00    +0.218 C 
ATOM     28  O   UNL     1       5.202  -5.386  -3.192  0.00  0.00    -0.275 OA
ATOM     29  N   UNL     1       4.559  -3.296  -2.813  0.00  0.00    -0.301 N 
ATOM     30  C   UNL     1       3.470  -2.315  -2.722  0.00  0.00    +0.109 C 
ATOM     31  C   UNL     1       3.854  -1.073  -3.532  0.00  0.00    +0.041 C 
ATOM     32  C   UNL     1       5.210  -0.554  -3.049  0.00  0.00    +0.076 C 
ATOM     33  C   UNL     1       6.279  -1.626  -3.272  0.00  0.00    +0.041 C 
ATOM     34  C   UNL     1       5.920  -2.876  -2.453  0.00  0.00    +0.109 C 
BRANCH  27  36
ATOM     35  C   UNL     1       2.854  -4.758  -5.209  0.00  0.00    +0.017 C 
ATOM     36  C   UNL     1       2.938  -4.944  -3.693  0.00  0.00    +0.069 C 
ATOM     37  C   UNL     1       2.668  -6.409  -3.343  0.00  0.00    +0.017 C 
ENDBRANCH  27  36
ENDBRANCH  23  32
ENDBRANCH   1  24
TORSDOF 4
