REMARK  Name = ZINC39663699
REMARK  11 active torsions:
REMARK  status: ('A' for Active; 'I' for Inactive)
REMARK    1  A    between atoms: C_1  and  N_2
REMARK    2  A    between atoms: N_2  and  C_3
REMARK    3  A    between atoms: N_2  and  C_4
REMARK    4  A    between atoms: C_4  and  C_6
REMARK    5  A    between atoms: C_4  and  C_33
REMARK    6  A    between atoms: C_6  and  N_7
REMARK    7  A    between atoms: C_8  and  C_10
REMARK    8  A    between atoms: C_21  and  C_23
REMARK    9  A    between atoms: C_28  and  C_29
REMARK   10  A    between atoms: C_36  and  O_39
REMARK   11  A    between atoms: O_39  and  C_40
REMARK                            x       y       z     vdW  Elec       q    Type
REMARK                         _______ _______ _______ _____ _____    ______ ____
ROOT
ATOM      1  C   UNL     1      -1.995   4.172  -3.352  0.00  0.00    +0.100 C 
ATOM      2  C   UNL     1      -2.632   4.690  -2.043  0.00  0.00    +0.121 C 
ATOM      3  N   UNL     1      -3.569   5.753  -2.478  0.00  0.00    -0.296 N 
ATOM      4  C   UNL     1      -4.176   5.223  -3.723  0.00  0.00    +0.115 C 
ATOM      5  C   UNL     1      -3.011   4.523  -4.452  0.00  0.00    -0.004 C 
ATOM      6  C   UNL     1      -2.382   5.468  -5.471  0.00  0.00    -0.010 C 
ATOM      7  C   UNL     1      -3.393   5.758  -6.584  0.00  0.00    -0.082 C 
ATOM      8  N   UNL     1      -3.785   4.500  -7.231  0.00  0.00    +0.379 N 
ATOM      9  C   UNL     1      -4.472   3.634  -6.266  0.00  0.00    -0.082 C 
ATOM     10  C   UNL     1      -3.507   3.254  -5.139  0.00  0.00    -0.010 C 
ATOM     11  C   UNL     1      -3.814   6.934  -1.877  0.00  0.00    +0.247 C 
ATOM     12  O   UNL     1      -4.694   7.659  -2.299  0.00  0.00    -0.270 OA
ATOM     13  H   UNL     1      -4.403   4.699  -8.003  0.00  0.00    -0.086 HD
ATOM     14  H   UNL     1      -2.961   4.030  -7.575  0.00  0.00    -0.086 HD
ENDROOT
BRANCH  11  15
ATOM     15  C   UNL     1      -3.014   7.348  -0.705  0.00  0.00    +0.049 A 
ATOM     16  C   UNL     1      -2.622   6.403   0.245  0.00  0.00    +0.013 A 
ATOM     17  C   UNL     1      -1.875   6.795   1.336  0.00  0.00    +0.001 A 
ATOM     18  C   UNL     1      -1.513   8.122   1.490  0.00  0.00    +0.001 A 
ATOM     19  C   UNL     1      -1.898   9.063   0.552  0.00  0.00    +0.013 A 
ATOM     20  C   UNL     1      -2.641   8.683  -0.547  0.00  0.00    +0.067 A 
BRANCH  20  21
ATOM     21  C   UNL     1      -3.054   9.709  -1.571  0.00  0.00    +0.418 C 
ATOM     22  F   UNL     1      -2.566  10.965  -1.196  0.00  0.00    -0.166 F 
ATOM     23  F   UNL     1      -2.530   9.358  -2.820  0.00  0.00    -0.166 F 
ATOM     24  F   UNL     1      -4.450   9.755  -1.647  0.00  0.00    -0.166 F 
ENDBRANCH  20  21
ENDBRANCH  11  15
BRANCH   1  26
ATOM     25  N   UNL     1      -0.782   2.105  -3.964  0.00  0.00    -0.316 N 
ATOM     26  C   UNL     1      -1.793   2.680  -3.283  0.00  0.00    +0.218 C 
ATOM     27  O   UNL     1      -2.539   1.997  -2.613  0.00  0.00    -0.275 OA
ATOM     28  H   UNL     1      -0.185   2.651  -4.499  0.00  0.00    +0.149 HD
BRANCH  25  29
ATOM     29  C   UNL     1      -0.585   0.654  -3.896  0.00  0.00    +0.093 C 
BRANCH  29  30
ATOM     30  C   UNL     1       0.547   0.249  -4.842  0.00  0.00    -0.021 C 
BRANCH  30  31
ATOM     31  C   UNL     1       1.845   0.836  -4.353  0.00  0.00    -0.059 A 
ATOM     32  C   UNL     1       2.537   0.222  -3.326  0.00  0.00    +0.005 A 
ATOM     33  C   UNL     1       3.728   0.758  -2.876  0.00  0.00    +0.046 A 
ATOM     34  C   UNL     1       4.229   1.915  -3.455  0.00  0.00    +0.120 A 
ATOM     35  C   UNL     1       3.534   2.529  -4.486  0.00  0.00    +0.046 A 
ATOM     36  C   UNL     1       2.346   1.986  -4.936  0.00  0.00    +0.005 A 
BRANCH  34  37
ATOM     37  O   UNL     1       5.400   2.445  -3.014  0.00  0.00    -0.495 OA
ATOM     38  C   UNL     1       5.856   3.637  -3.657  0.00  0.00    +0.277 C 
ENDBRANCH  34  37
ENDBRANCH  30  31
BRANCH  30  40
ATOM     39  C   UNL     1      -0.599  -1.786  -5.390  0.00  0.00    -0.096 C 
ATOM     40  N   UNL     1       0.654  -1.216  -4.878  0.00  0.00    +0.382 N 
ATOM     41  C   UNL     1       1.765  -1.604  -5.756  0.00  0.00    -0.096 C 
ATOM     42  H   UNL     1       0.825  -1.563  -3.946  0.00  0.00    -0.082 HD
ENDBRANCH  30  40
ENDBRANCH  29  30
ENDBRANCH  25  29
ENDBRANCH   1  26
TORSDOF 8
