REMARK  Name = ZINC12383195
REMARK  8 active torsions:
REMARK  status: ('A' for Active; 'I' for Inactive)
REMARK    1  A    between atoms: C_1  and  C_2
REMARK    2  A    between atoms: C_2  and  C_4
REMARK    3  A    between atoms: C_2  and  N_14
REMARK    4  A    between atoms: N_14  and  C_15
REMARK    5  A    between atoms: C_15  and  N_17
REMARK    6  A    between atoms: C_18  and  C_20
REMARK    7  A    between atoms: C_23  and  C_25
REMARK    8  A    between atoms: C_30  and  N_31
REMARK                            x       y       z     vdW  Elec       q    Type
REMARK                         _______ _______ _______ _____ _____    ______ ____
ROOT
ATOM      1  N   UNL     1      -4.391   1.740  -4.364  0.00  0.00    -0.261 N 
ATOM      2  C   UNL     1      -5.360   2.407  -5.021  0.00  0.00    +0.285 C 
ATOM      3  O   UNL     1      -5.094   3.431  -5.622  0.00  0.00    -0.266 OA
ATOM      4  H   UNL     1      -4.603   0.924  -3.885  0.00  0.00    +0.157 HD
ENDROOT
BRANCH   2   5
ATOM      5  C   UNL     1      -6.734   1.900  -5.010  0.00  0.00    +0.190 A 
ATOM      6  C   UNL     1      -7.817   2.484  -5.632  0.00  0.00    +0.055 A 
ATOM      7  C   UNL     1      -8.922   1.670  -5.366  0.00  0.00    +0.051 A 
ATOM      8  C   UNL     1      -8.481   0.634  -4.593  0.00  0.00    +0.138 A 
ATOM      9  O   UNL     1      -7.162   0.783  -4.385  0.00  0.00    -0.450 OA
BRANCH   8  10
ATOM     10  C   UNL     1      -9.315  -0.468  -4.072  0.00  0.00    +0.047 A 
ATOM     11  C   UNL     1     -10.511  -0.188  -3.407  0.00  0.00    +0.014 A 
ATOM     12  C   UNL     1     -11.286  -1.222  -2.924  0.00  0.00    +0.001 A 
ATOM     13  C   UNL     1     -10.880  -2.533  -3.096  0.00  0.00    +0.002 A 
ATOM     14  C   UNL     1      -9.697  -2.818  -3.754  0.00  0.00    +0.033 A 
ATOM     15  C   UNL     1      -8.915  -1.794  -4.248  0.00  0.00    +0.137 A 
BRANCH  15  16
ATOM     16  N   UNL     1      -7.652  -2.100  -4.956  0.00  0.00    +0.057 N 
ATOM     17  O   UNL     1      -7.304  -3.257  -5.108  0.00  0.00    -0.126 OA
ATOM     18  O   UNL     1      -6.960  -1.195  -5.387  0.00  0.00    -0.126 OA
ENDBRANCH  15  16
ENDBRANCH   8  10
ENDBRANCH   2   5
BRANCH   1  19
ATOM     19  C   UNL     1      -3.126   2.206  -4.374  0.00  0.00    +0.137 C 
ATOM     20  S   UNL     1      -2.752   3.647  -5.220  0.00  0.00    -0.018 S 
BRANCH  19  21
ATOM     21  N   UNL     1      -2.157   1.539  -3.717  0.00  0.00    -0.323 N 
ATOM     22  H   UNL     1      -2.369   0.723  -3.237  0.00  0.00    +0.148 HD
BRANCH  21  24
ATOM     23  C   UNL     1      -0.066   1.553  -4.986  0.00  0.00    +0.028 C 
ATOM     24  C   UNL     1      -0.782   2.046  -3.727  0.00  0.00    +0.075 C 
BRANCH  24  25
ATOM     25  C   UNL     1      -0.043   1.539  -2.488  0.00  0.00    -0.010 C 
ATOM     26  C   UNL     1      -0.759   2.033  -1.229  0.00  0.00    +0.012 C 
ATOM     27  C   UNL     1      -0.019   1.526   0.010  0.00  0.00    -0.010 C 
ATOM     28  C   UNL     1       1.417   2.055  -0.000  0.00  0.00    +0.007 C 
ATOM     29  C   UNL     1       2.133   1.562  -1.259  0.00  0.00    -0.010 C 
ATOM     30  C   UNL     1       1.393   2.069  -2.499  0.00  0.00    +0.012 C 
ATOM     31  C   UNL     1       2.154   0.032  -1.268  0.00  0.00    +0.007 C 
ATOM     32  C   UNL     1       0.718  -0.497  -1.257  0.00  0.00    -0.010 C 
ATOM     33  C   UNL     1       0.002  -0.004   0.002  0.00  0.00    +0.007 C 
ATOM     34  C   UNL     1      -0.022   0.009  -2.496  0.00  0.00    +0.012 C 
ENDBRANCH  24  25
ENDBRANCH  21  24
ENDBRANCH  19  21
ENDBRANCH   1  19
TORSDOF 7
