REMARK  Name = ZINC38775998
REMARK  10 active torsions:
REMARK  status: ('A' for Active; 'I' for Inactive)
REMARK    1  A    between atoms: C_1  and  C_2
REMARK    2  A    between atoms: C_3  and  O_24
REMARK    3  A    between atoms: C_4  and  C_8
REMARK    4  A    between atoms: C_11  and  O_15
REMARK    5  A    between atoms: C_13  and  O_14
REMARK    6  A    between atoms: O_15  and  C_16
REMARK    7  A    between atoms: C_16  and  C_17
REMARK    8  A    between atoms: O_24  and  C_25
REMARK    9  A    between atoms: C_30  and  O_31
REMARK   10  A    between atoms: O_31  and  C_32
REMARK                            x       y       z     vdW  Elec       q    Type
REMARK                         _______ _______ _______ _____ _____    ______ ____
ROOT
ATOM      1  C   UNL     1      -1.090  -2.995  -1.063  0.00  0.00    +0.025 A 
ATOM      2  C   UNL     1      -0.335  -3.169  -2.207  0.00  0.00    +0.013 A 
ATOM      3  C   UNL     1      -0.843  -3.894  -3.268  0.00  0.00    +0.046 A 
ATOM      4  C   UNL     1      -2.112  -4.449  -3.187  0.00  0.00    +0.124 A 
ATOM      5  C   UNL     1      -2.871  -4.275  -2.040  0.00  0.00    +0.091 A 
ATOM      6  C   UNL     1      -2.358  -3.552  -0.975  0.00  0.00    +0.126 A 
ENDROOT
BRANCH   1  10
ATOM      7  C   UNL     1      -0.022   1.491  -0.108  0.00  0.00    +0.071 C 
ATOM      8  C   UNL     1      -0.002  -0.015  -0.050  0.00  0.00    +0.098 C 
ATOM      9  C   UNL     1      -1.094  -0.791   0.098  0.00  0.00    +0.156 C 
ATOM     10  C   UNL     1      -0.534  -2.203   0.093  0.00  0.00    +0.200 C 
ATOM     11  N   UNL     1       0.913  -1.980  -0.071  0.00  0.00    -0.294 N 
ATOM     12  N   UNL     1       1.103  -0.764  -0.144  0.00  0.00    -0.179 NA
ATOM     13  H   UNL     1       1.595  -2.668  -0.117  0.00  0.00    +0.184 HD
BRANCH   9  14
ATOM     14  O   UNL     1      -2.382  -0.405   0.222  0.00  0.00    -0.452 OA
BRANCH  14  15
ATOM     15  C   UNL     1      -3.003  -0.625   1.411  0.00  0.00    +0.170 A 
ATOM     16  C   UNL     1      -2.285  -1.122   2.488  0.00  0.00    +0.050 A 
ATOM     17  C   UNL     1      -2.918  -1.345   3.696  0.00  0.00    +0.004 A 
ATOM     18  C   UNL     1      -4.266  -1.073   3.834  0.00  0.00    +0.004 A 
ATOM     19  C   UNL     1      -4.988  -0.577   2.765  0.00  0.00    +0.049 A 
ATOM     20  C   UNL     1      -4.359  -0.346   1.552  0.00  0.00    +0.162 A 
BRANCH  20  21
ATOM     21  O   UNL     1      -5.066   0.147   0.501  0.00  0.00    -0.491 OA
ATOM     22  C   UNL     1      -6.454   0.410   0.718  0.00  0.00    +0.277 C 
ENDBRANCH  20  21
ENDBRANCH  14  15
ENDBRANCH   9  14
ENDBRANCH   1  10
BRANCH   6  23
ATOM     23  O   UNL     1      -3.097  -3.385   0.153  0.00  0.00    -0.506 OA
ATOM     24  H   UNL     1      -3.659  -2.599   0.142  0.00  0.00    +0.292 HD
ENDBRANCH   6  23
BRANCH   4  25
ATOM     25  O   UNL     1      -2.611  -5.162  -4.231  0.00  0.00    -0.487 OA
BRANCH  25  26
ATOM     26  C   UNL     1      -1.774  -5.300  -5.381  0.00  0.00    +0.264 C 
BRANCH  26  27
ATOM     27  C   UNL     1      -2.488  -6.114  -6.428  0.00  0.00    -0.010 A 
ATOM     28  C   UNL     1      -2.354  -7.490  -6.444  0.00  0.00    +0.008 A 
ATOM     29  C   UNL     1      -3.010  -8.238  -7.404  0.00  0.00    +0.015 A 
ATOM     30  C   UNL     1      -3.801  -7.609  -8.348  0.00  0.00    +0.018 A 
ATOM     31  C   UNL     1      -3.936  -6.233  -8.332  0.00  0.00    +0.015 A 
ATOM     32  C   UNL     1      -3.283  -5.486  -7.369  0.00  0.00    +0.008 A 
ATOM     33 BR   UNL     1      -4.698  -8.632  -9.662  0.00  0.00    -0.050 Br
ENDBRANCH  26  27
ENDBRANCH  25  26
ENDBRANCH   4  25
TORSDOF 8
