REMARK  Name = ZINC20176212
REMARK  8 active torsions:
REMARK  status: ('A' for Active; 'I' for Inactive)
REMARK    1  A    between atoms: C_1  and  C_2
REMARK    2  A    between atoms: C_2  and  O_3
REMARK    3  A    between atoms: O_3  and  C_4
REMARK    4  A    between atoms: C_7  and  N_10
REMARK    5  A    between atoms: N_12  and  C_13
REMARK    6  A    between atoms: C_16  and  C_20
REMARK    7  A    between atoms: C_17  and  C_19
REMARK    8  A    between atoms: C_25  and  C_27
REMARK                            x       y       z     vdW  Elec       q    Type
REMARK                         _______ _______ _______ _____ _____    ______ ____
ROOT
ATOM      1  N   UNL     1       3.250   3.908  -0.719  0.00  0.00    -0.328 N 
ATOM      2  C   UNL     1       1.989   4.195  -0.496  0.00  0.00    +0.190 C 
ATOM      3  N   UNL     1       1.621   5.483  -0.187  0.00  0.00    -0.286 N 
ATOM      4  N   UNL     1       1.034   3.205  -0.572  0.00  0.00    -0.236 N 
ATOM      5  C   UNL     1       0.531   2.587  -1.694  0.00  0.00    +0.140 A 
ATOM      6  N   UNL     1       0.946   2.906  -2.904  0.00  0.00    -0.283 NA
ATOM      7  C   UNL     1      -0.438   1.609  -1.489  0.00  0.00    +0.058 A 
ATOM      8  C   UNL     1      -0.799   1.360  -0.210  0.00  0.00    +0.007 A 
ATOM      9  S   UNL     1       0.188   2.449   0.705  0.00  0.00    -0.008 S 
ATOM     10  C   UNL     1      -1.816   0.370   0.298  0.00  0.00    +0.053 C 
ATOM     11  H   UNL     1       0.557   5.744  -0.091  0.00  0.00    +0.155 HD
ATOM     12  H   UNL     1       0.630   2.406  -3.673  0.00  0.00    +0.188 HD
ATOM     13  H   UNL     1       4.004   4.709  -0.720  0.00  0.00    +0.169 HD
ENDROOT
BRANCH   3  14
ATOM     14  C   UNL     1       2.600   6.463   0.006  0.00  0.00    +0.034 A 
ATOM     15  C   UNL     1       3.807   6.131   0.610  0.00  0.00    +0.023 A 
ATOM     16  C   UNL     1       4.774   7.099   0.795  0.00  0.00    +0.005 A 
ATOM     17  C   UNL     1       4.538   8.401   0.390  0.00  0.00    -0.047 A 
ATOM     18  C   UNL     1       3.336   8.735  -0.207  0.00  0.00    -0.046 A 
ATOM     19  C   UNL     1       2.367   7.770  -0.399  0.00  0.00    +0.027 A 
ATOM     20  C   UNL     1       3.083  10.154  -0.647  0.00  0.00    +0.044 C 
ATOM     21  C   UNL     1       5.593   9.456   0.598  0.00  0.00    +0.044 C 
ENDBRANCH   3  14
BRANCH   1  25
ATOM     22  C   UNL     1       4.390  -0.012  -1.419  0.00  0.00    +0.121 A 
ATOM     23  C   UNL     1       4.710   0.977  -2.339  0.00  0.00    +0.047 A 
ATOM     24  C   UNL     1       4.332   2.283  -2.110  0.00  0.00    +0.029 A 
ATOM     25  C   UNL     1       3.627   2.611  -0.951  0.00  0.00    +0.042 A 
ATOM     26  C   UNL     1       3.313   1.614  -0.025  0.00  0.00    +0.029 A 
ATOM     27  C   UNL     1       3.690   0.309  -0.264  0.00  0.00    +0.047 A 
BRANCH  22  28
ATOM     28  O   UNL     1       4.764  -1.299  -1.649  0.00  0.00    -0.492 OA
BRANCH  28  30
ATOM     29  C   UNL     1       4.906  -3.646  -1.090  0.00  0.00    +0.048 C 
ATOM     30  C   UNL     1       4.403  -2.266  -0.661  0.00  0.00    +0.225 C 
ENDBRANCH  28  30
ENDBRANCH  22  28
ENDBRANCH   1  25
TORSDOF 4
