REMARK  Name = ZINC09236906
REMARK  6 active torsions:
REMARK  status: ('A' for Active; 'I' for Inactive)
REMARK    1  A    between atoms: C_1  and  C_2
REMARK    2  A    between atoms: C_2  and  C_32
REMARK    3  A    between atoms: C_6  and  N_24
REMARK    4  A    between atoms: C_12  and  N_16
REMARK    5  A    between atoms: N_16  and  C_17
REMARK    6  A    between atoms: C_17  and  C_18
REMARK                            x       y       z     vdW  Elec       q    Type
REMARK                         _______ _______ _______ _____ _____    ______ ____
ROOT
ATOM      1  C   UNL     1      -5.279   9.153  -5.374  0.00  0.00    +0.023 C 
ATOM      2  C   UNL     1      -4.012   8.915  -6.199  0.00  0.00    +0.015 C 
ATOM      3  C   UNL     1      -3.048   8.030  -5.421  0.00  0.00    +0.053 C 
ATOM      4  C   UNL     1      -2.485   8.687  -4.195  0.00  0.00    -0.027 A 
ATOM      5  C   UNL     1      -2.385  10.009  -3.942  0.00  0.00    +0.004 A 
ATOM      6  C   UNL     1      -1.769  10.448  -2.754  0.00  0.00    +0.104 A 
ATOM      7  C   UNL     1      -1.399   8.299  -2.066  0.00  0.00    +0.089 A 
ATOM      8  C   UNL     1      -1.988   7.766  -3.219  0.00  0.00    +0.037 A 
ATOM      9  C   UNL     1      -2.024   6.295  -3.305  0.00  0.00    +0.115 A 
ATOM     10  C   UNL     1      -1.468   5.605  -2.216  0.00  0.00    +0.083 A 
ATOM     11  S   UNL     1      -0.907   6.877  -1.120  0.00  0.00    -0.065 S 
ATOM     12  C   UNL     1      -1.447   4.218  -2.204  0.00  0.00    +0.159 A 
ATOM     13  N   UNL     1      -1.979   3.581  -3.248  0.00  0.00    -0.113 NA
ATOM     14  N   UNL     1      -2.483   4.243  -4.225  0.00  0.00    -0.041 NA
ATOM     15  N   UNL     1      -2.524   5.521  -4.292  0.00  0.00    -0.128 NA
ATOM     16  C   UNL     1      -2.908  11.116  -4.826  0.00  0.00    +0.108 C 
ATOM     17  S   UNL     1      -3.172  10.500  -6.512  0.00  0.00    -0.149 S 
ATOM     18  C   UNL     1      -4.374   8.247  -7.527  0.00  0.00    +0.023 C 
ATOM     19  N   UNL     1      -1.270   9.620  -1.805  0.00  0.00    -0.337 N 
ATOM     20  H   UNL     1      -0.824   9.970  -0.948  0.00  0.00    +0.168 HD
ENDROOT
BRANCH   6  21
ATOM     21  N   UNL     1      -1.654  11.811  -2.514  0.00  0.00    -0.312 N 
ATOM     22  C   UNL     1      -0.242  12.209  -2.410  0.00  0.00    +0.134 C 
ATOM     23  C   UNL     1      -0.159  13.724  -2.206  0.00  0.00    +0.178 C 
ATOM     24  O   UNL     1      -0.910  14.085  -1.043  0.00  0.00    -0.377 OA
ATOM     25  C   UNL     1      -2.289  13.712  -1.110  0.00  0.00    +0.178 C 
ATOM     26  C   UNL     1      -2.394  12.197  -1.304  0.00  0.00    +0.134 C 
ENDBRANCH   6  21
BRANCH  12  27
ATOM     27  N   UNL     1      -0.899   3.517  -1.140  0.00  0.00    -0.324 N 
ATOM     28  H   UNL     1      -0.517   3.998  -0.389  0.00  0.00    +0.148 HD
BRANCH  27  29
ATOM     29  C   UNL     1      -0.896   2.052  -1.150  0.00  0.00    +0.134 C 
BRANCH  29  30
ATOM     30  C   UNL     1      -0.238   1.534   0.130  0.00  0.00    +0.135 C 
ATOM     31  C   UNL     1      -0.231  -0.007   0.129  0.00  0.00    +0.035 C 
ATOM     32  C   UNL     1       1.268  -0.379   0.242  0.00  0.00    +0.031 C 
ATOM     33  C   UNL     1       1.881   0.917   0.832  0.00  0.00    +0.160 C 
ATOM     34  O   UNL     1       1.131   1.968   0.186  0.00  0.00    -0.375 OA
ENDBRANCH  29  30
ENDBRANCH  27  29
ENDBRANCH  12  27
TORSDOF 4
