REMARK  Name = ZINC36029759
REMARK  10 active torsions:
REMARK  status: ('A' for Active; 'I' for Inactive)
REMARK    1  A    between atoms: C_1  and  C_2
REMARK    2  A    between atoms: C_2  and  C_3
REMARK    3  A    between atoms: C_3  and  C_5
REMARK    4  A    between atoms: C_3  and  C_6
REMARK    5  A    between atoms: N_10  and  C_25
REMARK    6  A    between atoms: N_20  and  C_21
REMARK    7  A    between atoms: C_21  and  C_22
REMARK    8  A    between atoms: C_21  and  C_23
REMARK    9  A    between atoms: C_21  and  C_24
REMARK   10  A    between atoms: C_25  and  C_26
REMARK                            x       y       z     vdW  Elec       q    Type
REMARK                         _______ _______ _______ _____ _____    ______ ____
ROOT
ATOM      1  C   UNL     1       0.523  -1.999  -1.166  0.00  0.00    +0.022 C 
ATOM      2  C   UNL     1       1.332  -2.721  -0.110  0.00  0.00    +0.201 C 
ATOM      3  O   UNL     1       1.329  -2.473   1.077  0.00  0.00    -0.277 OA
ATOM      4  N   UNL     1       2.057  -3.687  -0.712  0.00  0.00    -0.313 N 
ATOM      5  C   UNL     1       1.784  -3.677  -2.152  0.00  0.00    +0.006 C 
ATOM      6  N   UNL     1       1.161  -2.369  -2.453  0.00  0.00    +0.401 N 
ATOM      7  C   UNL     1       3.086  -3.822  -2.938  0.00  0.00    +0.025 C 
ATOM      8  C   UNL     1       3.742  -5.163  -2.591  0.00  0.00    +0.109 C 
ATOM      9  N   UNL     1       2.767  -6.238  -2.818  0.00  0.00    -0.286 N 
ATOM     10  C   UNL     1       1.454  -6.152  -2.164  0.00  0.00    +0.109 C 
ATOM     11  C   UNL     1       0.818  -4.803  -2.514  0.00  0.00    +0.025 C 
ATOM     12  C   UNL     1       3.072  -7.285  -3.611  0.00  0.00    +0.303 C 
ATOM     13  O   UNL     1       4.193  -7.395  -4.069  0.00  0.00    -0.253 OA
ATOM     14  N   UNL     1       2.134  -8.210  -3.896  0.00  0.00    -0.294 N 
ATOM     15  H   UNL     1       0.467  -2.462  -3.180  0.00  0.00    -0.082 HD
ATOM     16  H   UNL     1       1.221  -8.085  -3.592  0.00  0.00    +0.151 HD
ATOM     17  H   UNL     1       1.862  -1.692  -2.712  0.00  0.00    -0.082 HD
ENDROOT
BRANCH  14  18
ATOM     18  C   UNL     1       2.492  -9.405  -4.664  0.00  0.00    +0.028 C 
ATOM     19  C   UNL     1       3.569 -10.190  -3.913  0.00  0.00    +0.031 C 
ATOM     20  C   UNL     1       1.254 -10.284  -4.847  0.00  0.00    +0.031 C 
ATOM     21  C   UNL     1       3.029  -8.988  -6.035  0.00  0.00    +0.031 C 
ENDBRANCH  14  18
BRANCH   1  22
ATOM     22  C   UNL     1       0.596  -0.486  -0.952  0.00  0.00    -0.020 C 
ATOM     23  C   UNL     1       2.059  -0.039  -0.967  0.00  0.00    +0.006 C 
BRANCH  22  25
ATOM     24  C   UNL     1      -0.071   1.389   0.558  0.00  0.00    +0.004 C 
ATOM     25  C   UNL     1      -0.031  -0.132   0.398  0.00  0.00    -0.001 C 
ENDBRANCH  22  25
ENDBRANCH   1  22
BRANCH   4  26
ATOM     26  C   UNL     1       2.975  -4.604  -0.032  0.00  0.00    +0.109 C 
BRANCH  26  27
ATOM     27  C   UNL     1       4.344  -3.937   0.117  0.00  0.00    +0.006 C 
ATOM     28  C   UNL     1       5.563  -4.704  -0.401  0.00  0.00    +0.005 C 
ATOM     29  C   UNL     1       5.331  -4.563   1.105  0.00  0.00    +0.005 C 
ENDBRANCH  26  27
ENDBRANCH   4  26
TORSDOF 5
