REMARK  Name = ZINC10435255
REMARK  11 active torsions:
REMARK  status: ('A' for Active; 'I' for Inactive)
REMARK    1  A    between atoms: C_1  and  C_2
REMARK    2  A    between atoms: C_2  and  O_3
REMARK    3  A    between atoms: O_3  and  C_4
REMARK    4  A    between atoms: C_6  and  C_20
REMARK    5  A    between atoms: C_9  and  O_10
REMARK    6  A    between atoms: O_10  and  C_11
REMARK    7  A    between atoms: C_11  and  C_12
REMARK    8  A    between atoms: C_20  and  N_64
REMARK    9  A    between atoms: C_21  and  N_64
REMARK   10  A    between atoms: C_26  and  C_27
REMARK   11  A    between atoms: C_26  and  N_67
REMARK                            x       y       z     vdW  Elec       q    Type
REMARK                         _______ _______ _______ _____ _____    ______ ____
ROOT
ATOM      1  C   UNL     1       1.791   2.390  -1.206  0.00  0.00    +0.163 A 
ATOM      2  C   UNL     1       3.018   3.036  -1.209  0.00  0.00    +0.051 A 
ATOM      3  C   UNL     1       3.637   3.350  -0.014  0.00  0.00    -0.060 A 
ATOM      4  C   UNL     1       3.035   3.022   1.187  0.00  0.00    +0.021 A 
ATOM      5  C   UNL     1       1.810   2.381   1.197  0.00  0.00    +0.063 A 
ATOM      6  C   UNL     1       1.186   2.059   0.002  0.00  0.00    +0.176 A 
ATOM      7 BR   UNL     1       0.987   1.940   2.842  0.00  0.00    -0.046 Br
ENDROOT
BRANCH   1   8
ATOM      8  O   UNL     1       1.181   2.081  -2.381  0.00  0.00    -0.489 OA
BRANCH   8  10
ATOM      9  C   UNL     1       1.027   2.026  -4.793  0.00  0.00    +0.048 C 
ATOM     10  C   UNL     1       1.861   2.452  -3.583  0.00  0.00    +0.226 C 
ENDBRANCH   8  10
ENDBRANCH   1   8
BRANCH   6  11
ATOM     11  O   UNL     1      -0.017   1.425   0.010  0.00  0.00    -0.483 OA
BRANCH  11  12
ATOM     12  C   UNL     1       0.002  -0.004   0.002  0.00  0.00    +0.264 C 
BRANCH  12  13
ATOM     13  C   UNL     1      -1.412  -0.526   0.013  0.00  0.00    -0.010 A 
ATOM     14  C   UNL     1      -2.046  -0.777   1.215  0.00  0.00    +0.010 A 
ATOM     15  C   UNL     1      -3.345  -1.250   1.226  0.00  0.00    +0.039 A 
ATOM     16  C   UNL     1      -4.006  -1.484   0.032  0.00  0.00    +0.123 A 
ATOM     17  C   UNL     1      -3.368  -1.237  -1.171  0.00  0.00    +0.039 A 
ATOM     18  C   UNL     1      -2.071  -0.758  -1.180  0.00  0.00    +0.010 A 
ATOM     19  F   UNL     1      -5.273  -1.951   0.042  0.00  0.00    -0.205 F 
ENDBRANCH  12  13
ENDBRANCH  11  12
ENDBRANCH   6  11
BRANCH   3  20
ATOM     20  C   UNL     1       4.970   4.053  -0.020  0.00  0.00    -0.046 C 
BRANCH  20  21
ATOM     21  N   UNL     1       4.748   5.511  -0.009  0.00  0.00    +0.383 N 
ATOM     22  H   UNL     1       4.222   5.767   0.835  0.00  0.00    -0.085 HD
ATOM     23  H   UNL     1       4.209   5.778  -0.842  0.00  0.00    -0.085 HD
BRANCH  21  24
ATOM     24  C   UNL     1       6.038   6.226  -0.014  0.00  0.00    -0.075 C 
ATOM     25  C   UNL     1       6.553   6.365   1.421  0.00  0.00    -0.034 C 
ATOM     26  C   UNL     1       7.856   7.168   1.415  0.00  0.00    -0.080 C 
ATOM     27  C   UNL     1       7.162   8.387  -0.561  0.00  0.00    -0.080 C 
ATOM     28  C   UNL     1       5.839   7.620  -0.614  0.00  0.00    -0.034 C 
ATOM     29  N   UNL     1       7.591   8.507   0.849  0.00  0.00    +0.382 N 
ATOM     30  H   UNL     1       6.840   8.955   1.388  0.00  0.00    -0.081 HD
BRANCH  29  31
ATOM     31  C   UNL     1       8.807   9.341   0.937  0.00  0.00    -0.043 C 
BRANCH  31  32
ATOM     32  C   UNL     1       9.095   9.629   2.388  0.00  0.00    -0.064 A 
ATOM     33  C   UNL     1       8.543  10.741   2.995  0.00  0.00    +0.002 A 
ATOM     34  C   UNL     1       8.802  11.001   4.328  0.00  0.00    +0.000 A 
ATOM     35  C   UNL     1       9.622  10.155   5.050  0.00  0.00    +0.000 A 
ATOM     36  C   UNL     1      10.179   9.046   4.441  0.00  0.00    +0.000 A 
ATOM     37  C   UNL     1       9.915   8.783   3.110  0.00  0.00    +0.002 A 
ENDBRANCH  31  32
ENDBRANCH  29  31
ENDBRANCH  21  24
ENDBRANCH  20  21
ENDBRANCH   3  20
TORSDOF 10
