REMARK  Name = ZINC19808735
REMARK  8 active torsions:
REMARK  status: ('A' for Active; 'I' for Inactive)
REMARK    1  A    between atoms: C_1  and  C_2
REMARK    2  A    between atoms: C_6  and  C_22
REMARK    3  A    between atoms: C_8  and  O_11
REMARK    4  A    between atoms: O_11  and  C_12
REMARK    5  A    between atoms: C_12  and  C_13
REMARK    6  A    between atoms: C_17  and  C_19
REMARK    7  A    between atoms: C_22  and  C_23
REMARK    8  A    between atoms: C_22  and  C_24
REMARK                            x       y       z     vdW  Elec       q    Type
REMARK                         _______ _______ _______ _____ _____    ______ ____
ROOT
ATOM      1  C   UNL     1      -3.961   5.044   1.972  0.00  0.00    -0.021 A 
ATOM      2  C   UNL     1      -4.517   5.720   3.044  0.00  0.00    +0.006 A 
ATOM      3  C   UNL     1      -4.440   7.099   3.115  0.00  0.00    +0.001 A 
ATOM      4  C   UNL     1      -3.817   7.811   2.111  0.00  0.00    +0.011 A 
ATOM      5  C   UNL     1      -3.259   7.136   1.025  0.00  0.00    +0.012 A 
ATOM      6  C   UNL     1      -3.335   5.745   0.962  0.00  0.00    +0.017 A 
ENDROOT
BRANCH   5   7
ATOM      7  C   UNL     1      -2.589   7.894  -0.057  0.00  0.00    +0.094 C 
ATOM      8  N   UNL     1      -2.069   7.261  -1.069  0.00  0.00    -0.387 N 
ATOM      9  N   UNL     1      -2.515   9.268   0.009  0.00  0.00    -0.345 N 
ATOM     10  H   UNL     1      -1.572   7.824  -1.873  0.00  0.00    +0.157 HD
ATOM     11  H   UNL     1      -2.018   9.831  -0.795  0.00  0.00    +0.144 HD
ATOM     12  H   UNL     1      -2.954   9.802   0.864  0.00  0.00    +0.144 HD
ATOM     13  H   UNL     1      -2.128   6.164  -1.122  0.00  0.00    +0.157 HD
ENDBRANCH   5   7
BRANCH   1  14
ATOM     14  C   UNL     1      -4.044   3.541   1.906  0.00  0.00    +0.195 C 
BRANCH  14  15
ATOM     15  O   UNL     1      -2.900   2.972   2.544  0.00  0.00    -0.372 OA
BRANCH  15  21
ATOM     16  C   UNL     1      -0.013   1.086   0.008  0.00  0.00    +0.007 C 
ATOM     17  C   UNL     1      -0.729   1.579   1.267  0.00  0.00    -0.012 C 
ATOM     18  C   UNL     1       0.011   1.072   2.506  0.00  0.00    +0.004 C 
ATOM     19  C   UNL     1      -0.705   1.566   3.765  0.00  0.00    +0.006 C 
ATOM     20  C   UNL     1      -2.140   1.036   3.776  0.00  0.00    +0.020 C 
ATOM     21  C   UNL     1      -2.880   1.543   2.537  0.00  0.00    +0.122 C 
ATOM     22  C   UNL     1      -2.164   1.050   1.278  0.00  0.00    +0.035 C 
BRANCH  20  23
ATOM     23  C   UNL     1      -2.857   1.530   5.035  0.00  0.00    -0.012 C 
ATOM     24  C   UNL     1      -4.292   1.000   5.046  0.00  0.00    +0.007 C 
ATOM     25  C   UNL     1      -2.116   1.023   6.274  0.00  0.00    +0.007 C 
ENDBRANCH  20  23
ENDBRANCH  15  21
ENDBRANCH  14  15
ENDBRANCH   1  14
TORSDOF 5
