REMARK  Name = ZINC10531766
REMARK  8 active torsions:
REMARK  status: ('A' for Active; 'I' for Inactive)
REMARK    1  A    between atoms: C_3  and  C_6
REMARK    2  A    between atoms: C_9  and  C_28
REMARK    3  A    between atoms: C_12  and  C_14
REMARK    4  A    between atoms: C_14  and  O_15
REMARK    5  A    between atoms: O_15  and  C_16
REMARK    6  A    between atoms: C_16  and  C_18
REMARK    7  A    between atoms: C_21  and  N_27
REMARK    8  A    between atoms: C_22  and  N_24
REMARK                            x       y       z     vdW  Elec       q    Type
REMARK                         _______ _______ _______ _____ _____    ______ ____
ROOT
ATOM      1  C   UNL     1       4.115   2.402   0.162  0.00  0.00    +0.144 C 
ATOM      2  C   UNL     1       4.593   2.221  -1.292  0.00  0.00    +0.088 C 
ATOM      3  C   UNL     1       5.517   1.026  -1.226  0.00  0.00    +0.075 C 
ATOM      4  N   UNL     1       5.576   0.594  -0.011  0.00  0.00    -0.180 NA
ATOM      5  N   UNL     1       4.798   1.322   0.892  0.00  0.00    -0.182 N 
ATOM      6  C   UNL     1       4.688   1.077   2.212  0.00  0.00    +0.273 C 
ATOM      7  O   UNL     1       3.978   1.778   2.902  0.00  0.00    -0.270 OA
ENDROOT
BRANCH   1  10
ATOM      8  C   UNL     1       0.336   2.807   0.426  0.00  0.00    +0.008 A 
ATOM      9  C   UNL     1       1.662   3.193   0.357  0.00  0.00    +0.013 A 
ATOM     10  C   UNL     1       2.619   2.239   0.253  0.00  0.00    +0.013 A 
ATOM     11  S   UNL     1       1.649   0.741   0.250  0.00  0.00    -0.100 S 
ATOM     12  C   UNL     1       0.033   1.487   0.388  0.00  0.00    +0.045 A 
ENDBRANCH   1  10
BRANCH   3  13
ATOM     13  C   UNL     1       6.234   0.447  -2.367  0.00  0.00    +0.035 A 
ATOM     14  C   UNL     1       7.090  -0.641  -2.399  0.00  0.00    +0.017 A 
ATOM     15  C   UNL     1       7.649  -0.998  -3.604  0.00  0.00    +0.008 A 
ATOM     16  C   UNL     1       7.348  -0.278  -4.716  0.00  0.00    +0.046 A 
ATOM     17  S   UNL     1       6.227   0.957  -4.078  0.00  0.00    -0.095 S 
ENDBRANCH   3  13
BRANCH   6  18
ATOM     18  C   UNL     1       5.447  -0.068   2.832  0.00  0.00    +0.330 C 
BRANCH  18  19
ATOM     19  O   UNL     1       5.169  -0.122   4.232  0.00  0.00    -0.452 OA
BRANCH  19  20
ATOM     20  C   UNL     1       5.774  -1.097   4.940  0.00  0.00    +0.340 C 
ATOM     21  O   UNL     1       6.518  -1.879   4.382  0.00  0.00    -0.245 OA
BRANCH  20  22
ATOM     22  C   UNL     1       5.534  -1.213   6.389  0.00  0.00    +0.061 A 
ATOM     23  C   UNL     1       4.674  -0.317   7.031  0.00  0.00    +0.017 A 
ATOM     24  C   UNL     1       4.451  -0.425   8.374  0.00  0.00    +0.026 A 
ATOM     25  C   UNL     1       5.078  -1.427   9.110  0.00  0.00    +0.055 A 
ATOM     26  C   UNL     1       5.937  -2.324   8.479  0.00  0.00    +0.147 A 
ATOM     27  C   UNL     1       6.161  -2.224   7.125  0.00  0.00    +0.049 A 
BRANCH  26  28
ATOM     28  N   UNL     1       6.603  -3.388   9.263  0.00  0.00    +0.058 N 
ATOM     29  O   UNL     1       7.739  -3.710   9.003  0.00  0.00    -0.126 OA
ATOM     30  O   UNL     1       6.011  -3.936  10.164  0.00  0.00    -0.126 OA
ENDBRANCH  26  28
BRANCH  25  31
ATOM     31  N   UNL     1       4.848  -1.533  10.476  0.00  0.00    -0.356 N 
ATOM     32  H   UNL     1       4.167  -0.985  10.897  0.00  0.00    +0.142 HD
ATOM     33  H   UNL     1       5.367  -2.155  11.009  0.00  0.00    +0.142 HD
ENDBRANCH  25  31
ENDBRANCH  20  22
ENDBRANCH  19  20
ENDBRANCH  18  19
ENDBRANCH   6  18
TORSDOF 8
