REMARK  Name = ZINC20466369
REMARK  14 active torsions:
REMARK  status: ('A' for Active; 'I' for Inactive)
REMARK    1  A    between atoms: C_1  and  C_2
REMARK    2  A    between atoms: C_4  and  N_33
REMARK    3  A    between atoms: C_8  and  C_32
REMARK    4  A    between atoms: C_11  and  O_31
REMARK    5  A    between atoms: C_13  and  C_17
REMARK    6  A    between atoms: C_17  and  C_19
REMARK    7  A    between atoms: C_17  and  C_20
REMARK    8  A    between atoms: N_22  and  C_23
REMARK    9  A    between atoms: C_23  and  C_24
REMARK   10  A    between atoms: C_34  and  C_36
REMARK   11  A    between atoms: C_36  and  C_37
REMARK   12  A    between atoms: C_37  and  C_38
REMARK   13  A    between atoms: C_37  and  C_39
REMARK   14  A    between atoms: C_37  and  C_40
REMARK                            x       y       z     vdW  Elec       q    Type
REMARK                         _______ _______ _______ _____ _____    ______ ____
ROOT
ATOM      1  C   UNL     1       0.741  -1.967   1.769  0.00  0.00    +0.010 C 
ATOM      2  C   UNL     1       0.736  -0.438   1.835  0.00  0.00    +0.012 C 
ATOM      3  C   UNL     1       0.111   0.126   0.557  0.00  0.00    +0.076 C 
ATOM      4  C   UNL     1       0.105   1.654   0.624  0.00  0.00    +0.023 C 
ATOM      5  C   UNL     1       1.542   2.164   0.756  0.00  0.00    +0.009 C 
ATOM      6  C   UNL     1       2.167   1.600   2.034  0.00  0.00    -0.027 C 
ATOM      7  C   UNL     1       2.173   0.071   1.967  0.00  0.00    +0.028 C 
ATOM      8  C   UNL     1       2.798  -0.492   3.245  0.00  0.00    +0.122 C 
ATOM      9  C   UNL     1       4.235   0.017   3.377  0.00  0.00    +0.029 C 
ATOM     10  C   UNL     1       4.229   1.546   3.444  0.00  0.00    +0.007 C 
ATOM     11  C   UNL     1       3.604   2.110   2.166  0.00  0.00    +0.007 C 
ATOM     12  C   UNL     1       1.351   2.055   3.245  0.00  0.00    +0.011 C 
ENDROOT
BRANCH   3  13
ATOM     13  N   UNL     1      -1.265  -0.362   0.431  0.00  0.00    -0.312 N 
ATOM     14  C   UNL     1      -1.843  -0.441  -0.784  0.00  0.00    +0.214 C 
ATOM     15  O   UNL     1      -1.224  -0.107  -1.773  0.00  0.00    -0.276 OA
ATOM     16  H   UNL     1      -1.826  -0.665   1.327  0.00  0.00    +0.149 HD
BRANCH  14  17
ATOM     17  C   UNL     1      -3.258  -0.943  -0.915  0.00  0.00    +0.102 C 
BRANCH  17  18
ATOM     18  C   UNL     1      -3.669  -0.931  -2.389  0.00  0.00    -0.029 C 
ATOM     19  C   UNL     1      -2.730  -1.839  -3.187  0.00  0.00    +0.011 C 
ATOM     20  C   UNL     1      -5.106  -1.441  -2.521  0.00  0.00    +0.011 C 
ATOM     21  C   UNL     1      -3.582   0.496  -2.932  0.00  0.00    +0.011 C 
ENDBRANCH  17  18
ENDBRANCH  14  17
ENDBRANCH   3  13
BRANCH   9  22
ATOM     22  C   UNL     1       5.051  -0.438   2.166  0.00  0.00    +0.077 C 
ATOM     23  C   UNL     1       4.985  -1.962   2.050  0.00  0.00    +0.017 C 
BRANCH  22  24
ATOM     24  C   UNL     1       6.485  -0.009   2.337  0.00  0.00    +0.216 C 
ATOM     25  O   UNL     1       6.822   0.601   3.330  0.00  0.00    -0.276 OA
ATOM     26  N   UNL     1       7.395  -0.303   1.387  0.00  0.00    -0.311 N 
ATOM     27  H   UNL     1       7.090  -0.856   0.486  0.00  0.00    +0.149 HD
BRANCH  26  28
ATOM     28  C   UNL     1       8.789   0.114   1.553  0.00  0.00    +0.139 C 
BRANCH  28  29
ATOM     29  C   UNL     1       9.593  -0.334   0.360  0.00  0.00    -0.030 A 
ATOM     30  C   UNL     1      10.210  -1.571   0.368  0.00  0.00    +0.008 A 
ATOM     31  C   UNL     1      10.943  -1.986  -0.728  0.00  0.00    +0.038 A 
ATOM     32  C   UNL     1      11.069  -1.157  -1.830  0.00  0.00    +0.123 A 
ATOM     33  C   UNL     1      10.456   0.085  -1.834  0.00  0.00    +0.038 A 
ATOM     34  C   UNL     1       9.718   0.495  -0.740  0.00  0.00    +0.008 A 
ATOM     35  F   UNL     1      11.791  -1.558  -2.899  0.00  0.00    -0.205 F 
ENDBRANCH  28  29
ENDBRANCH  26  28
ENDBRANCH  22  24
ENDBRANCH   9  22
BRANCH   8  36
ATOM     36  O   UNL     1       2.803  -1.920   3.183  0.00  0.00    -0.391 OA
ATOM     37  H   UNL     1       3.217  -2.505   4.017  0.00  0.00    +0.210 HD
ENDBRANCH   8  36
TORSDOF 8
