REMARK  Name = ZINC48356589
REMARK  7 active torsions:
REMARK  status: ('A' for Active; 'I' for Inactive)
REMARK    1  A    between atoms: C_1  and  N_2
REMARK    2  A    between atoms: N_2  and  C_3
REMARK    3  A    between atoms: N_2  and  C_9
REMARK    4  A    between atoms: C_14  and  N_15
REMARK    5  A    between atoms: N_15  and  S_16
REMARK    6  A    between atoms: S_16  and  C_19
REMARK    7  A    between atoms: C_22  and  C_25
REMARK                            x       y       z     vdW  Elec       q    Type
REMARK                         _______ _______ _______ _____ _____    ______ ____
ROOT
ATOM      1  N   UNL     1      -2.421  -0.733  -1.194  0.00  0.00    -0.214 N 
ATOM      2  H   UNL     1      -2.515   0.128  -0.758  0.00  0.00    +0.174 HD
ENDROOT
BRANCH   1   8
ATOM      3  C   UNL     1      -0.018  -0.832  -0.916  0.00  0.00    +0.056 A 
ATOM      4  C   UNL     1       1.224  -1.262  -1.361  0.00  0.00    +0.025 A 
ATOM      5  C   UNL     1       1.323  -2.006  -2.522  0.00  0.00    +0.002 A 
ATOM      6  C   UNL     1       0.187  -2.324  -3.243  0.00  0.00    +0.002 A 
ATOM      7  C   UNL     1      -1.055  -1.900  -2.807  0.00  0.00    +0.026 A 
ATOM      8  C   UNL     1      -1.164  -1.158  -1.641  0.00  0.00    +0.069 A 
BRANCH   3  10
ATOM      9  C   UNL     1      -0.052   1.385   0.199  0.00  0.00    +0.135 C 
ATOM     10  N   UNL     1      -0.120  -0.078   0.259  0.00  0.00    -0.302 N 
BRANCH  10  11
ATOM     11  C   UNL     1      -0.288  -0.719   1.488  0.00  0.00    +0.034 A 
ATOM     12  C   UNL     1      -0.347  -2.106   1.547  0.00  0.00    +0.023 A 
ATOM     13  C   UNL     1      -0.513  -2.737   2.764  0.00  0.00    +0.002 A 
ATOM     14  C   UNL     1      -0.621  -1.991   3.923  0.00  0.00    +0.000 A 
ATOM     15  C   UNL     1      -0.562  -0.610   3.868  0.00  0.00    +0.002 A 
ATOM     16  C   UNL     1      -0.390   0.028   2.655  0.00  0.00    +0.023 A 
ENDBRANCH  10  11
ENDBRANCH   3  10
ENDBRANCH   1   8
BRANCH   1  17
ATOM     17  S   UNL     1      -3.748  -1.700  -1.412  0.00  0.00    +0.072 S 
ATOM     18  O   UNL     1      -4.829  -1.063  -0.745  0.00  0.00    -0.150 OA
ATOM     19  O   UNL     1      -3.791  -2.026  -2.794  0.00  0.00    -0.150 OA
BRANCH  17  20
ATOM     20  C   UNL     1      -3.442  -3.206  -0.549  0.00  0.00    +0.109 A 
ATOM     21  C   UNL     1      -2.817  -4.256  -1.198  0.00  0.00    +0.029 A 
ATOM     22  C   UNL     1      -2.574  -5.438  -0.528  0.00  0.00    +0.015 A 
ATOM     23  C   UNL     1      -2.960  -5.572   0.807  0.00  0.00    +0.037 A 
ATOM     24  C   UNL     1      -3.590  -4.508   1.455  0.00  0.00    +0.015 A 
ATOM     25  C   UNL     1      -3.822  -3.330   0.775  0.00  0.00    +0.029 A 
BRANCH  23  26
ATOM     26  C   UNL     1      -2.704  -6.835   1.530  0.00  0.00    +0.242 C 
ATOM     27  O   UNL     1      -2.156  -7.760   0.963  0.00  0.00    -0.270 OA
ATOM     28  N   UNL     1      -3.078  -6.962   2.819  0.00  0.00    -0.325 N 
ATOM     29  H   UNL     1      -3.515  -6.224   3.272  0.00  0.00    +0.145 HD
ATOM     30  H   UNL     1      -2.910  -7.791   3.294  0.00  0.00    +0.145 HD
ENDBRANCH  23  26
ENDBRANCH  17  20
ENDBRANCH   1  17
TORSDOF 6
