REMARK  Name = ZINC09885471
REMARK  4 active torsions:
REMARK  status: ('A' for Active; 'I' for Inactive)
REMARK    1  A    between atoms: C_10  and  C_13
REMARK    2  A    between atoms: C_13  and  C_14
REMARK    3  A    between atoms: N_16  and  N_17
REMARK    4  A    between atoms: C_18  and  C_20
REMARK                            x       y       z     vdW  Elec       q    Type
REMARK                         _______ _______ _______ _____ _____    ______ ____
ROOT
ATOM      1  C   UNL     1      -4.838   1.395   0.033  0.00  0.00    +0.231 C 
ATOM      2  O   UNL     1      -4.832   0.182   0.026  0.00  0.00    -0.274 OA
ATOM      3  N   UNL     1      -3.675   2.075   0.031  0.00  0.00    -0.234 N 
ATOM      4  H   UNL     1      -3.680   3.045   0.036  0.00  0.00    +0.173 HD
ENDROOT
BRANCH   3   5
ATOM      5  N   UNL     1      -2.458   1.381   0.021  0.00  0.00    -0.229 N 
ATOM      6  C   UNL     1      -1.294   2.060   0.019  0.00  0.00    +0.279 C 
ATOM      7  O   UNL     1      -1.300   3.277   0.026  0.00  0.00    -0.267 OA
ATOM      8  H   UNL     1      -2.453   0.410   0.016  0.00  0.00    +0.173 HD
BRANCH   6   9
ATOM      9  C   UNL     1      -0.016   1.331   0.009  0.00  0.00    +0.136 A 
ATOM     10  C   UNL     1       1.175   2.013   0.002  0.00  0.00    +0.081 A 
ATOM     11  S   UNL     1       2.337   0.654  -0.017  0.00  0.00    -0.060 S 
ATOM     12  C   UNL     1       1.138  -0.671  -0.012  0.00  0.00    +0.162 A 
ATOM     13  N   UNL     1       0.002  -0.004   0.002  0.00  0.00    -0.220 NA
ATOM     14  N   UNL     1       1.349  -2.040  -0.022  0.00  0.00    -0.305 N 
ATOM     15  C   UNL     1       0.688  -2.682   1.123  0.00  0.00    +0.135 C 
ATOM     16  C   UNL     1       0.895  -4.197   1.041  0.00  0.00    +0.179 C 
ATOM     17  O   UNL     1       2.296  -4.480   0.996  0.00  0.00    -0.377 OA
ATOM     18  C   UNL     1       2.971  -3.870  -0.108  0.00  0.00    +0.179 C 
ATOM     19  C   UNL     1       2.785  -2.352  -0.037  0.00  0.00    +0.135 C 
ENDBRANCH   6   9
ENDBRANCH   3   5
BRANCH   1  20
ATOM     20  C   UNL     1      -6.147   2.142   0.043  0.00  0.00    +0.121 C 
BRANCH  20  30
ATOM     21  C   UNL     1      -9.010   3.190   4.553  0.00  0.00    +0.002 A 
ATOM     22  C   UNL     1      -8.110   2.233   4.986  0.00  0.00    +0.001 A 
ATOM     23  C   UNL     1      -7.582   1.326   4.086  0.00  0.00    +0.016 A 
ATOM     24  C   UNL     1      -7.952   1.382   2.752  0.00  0.00    +0.030 A 
ATOM     25  C   UNL     1      -8.842   2.358   2.303  0.00  0.00    +0.047 A 
ATOM     26  C   UNL     1      -9.378   3.252   3.224  0.00  0.00    +0.024 A 
ATOM     27  N   UNL     1      -9.223   2.443   0.968  0.00  0.00    -0.284 N 
ATOM     28  C   UNL     1      -8.614   1.881  -0.070  0.00  0.00    +0.231 C 
ATOM     29  O   UNL     1      -9.135   1.966  -1.162  0.00  0.00    -0.274 OA
ATOM     30  C   UNL     1      -7.305   1.142   0.043  0.00  0.00    +0.146 C 
ATOM     31  S   UNL     1      -7.307   0.207   1.603  0.00  0.00    -0.110 S 
ATOM     32  H   UNL     1     -10.017   2.967   0.774  0.00  0.00    +0.155 HD
ENDBRANCH  20  30
ENDBRANCH   1  20
TORSDOF 4
