REMARK  Name = ZINC08171097
REMARK  11 active torsions:
REMARK  status: ('A' for Active; 'I' for Inactive)
REMARK    1  A    between atoms: C_1  and  C_2
REMARK    2  A    between atoms: C_2  and  C_3
REMARK    3  A    between atoms: C_8  and  N_9
REMARK    4  A    between atoms: C_10  and  C_12
REMARK    5  A    between atoms: C_12  and  N_13
REMARK    6  A    between atoms: N_13  and  C_14
REMARK    7  A    between atoms: N_13  and  C_15
REMARK    8  A    between atoms: C_15  and  C_16
REMARK    9  A    between atoms: N_18  and  C_19
REMARK   10  A    between atoms: C_19  and  C_21
REMARK   11  A    between atoms: C_19  and  C_22
REMARK                            x       y       z     vdW  Elec       q    Type
REMARK                         _______ _______ _______ _____ _____    ______ ____
ROOT
ATOM      1  N   UNL     1      -2.356  -0.596  -5.975  0.00  0.00    +0.389 N 
ATOM      2  C   UNL     1      -3.506   0.317  -5.952  0.00  0.00    -0.095 C 
ATOM      3  H   UNL     1      -2.679  -1.547  -5.879  0.00  0.00    -0.081 HD
ENDROOT
BRANCH   1   4
ATOM      4  C   UNL     1      -1.451  -0.272  -4.864  0.00  0.00    +0.019 C 
BRANCH   4   6
ATOM      5  N   UNL     1      -1.505  -0.315  -2.391  0.00  0.00    -0.287 N 
ATOM      6  C   UNL     1      -2.147  -0.541  -3.555  0.00  0.00    +0.201 C 
ATOM      7  O   UNL     1      -3.285  -0.961  -3.548  0.00  0.00    -0.278 OA
ATOM      8  H   UNL     1      -0.620   0.082  -2.395  0.00  0.00    +0.155 HD
BRANCH   5  14
ATOM      9  C   UNL     1      -1.349  -1.119  -0.119  0.00  0.00    -0.026 A 
ATOM     10  C   UNL     1      -1.954  -1.445   1.079  0.00  0.00    +0.005 A 
ATOM     11  C   UNL     1      -3.322  -1.313   1.222  0.00  0.00    +0.000 A 
ATOM     12  C   UNL     1      -4.090  -0.854   0.168  0.00  0.00    +0.002 A 
ATOM     13  C   UNL     1      -3.491  -0.525  -1.033  0.00  0.00    +0.023 A 
ATOM     14  C   UNL     1      -2.116  -0.652  -1.178  0.00  0.00    +0.036 A 
BRANCH   9  16
ATOM     15  C   UNL     1       0.819   0.078   0.019  0.00  0.00    +0.009 C 
ATOM     16  C   UNL     1       0.143  -1.263  -0.275  0.00  0.00    +0.033 C 
ENDBRANCH   9  16
ENDBRANCH   5  14
ENDBRANCH   4   6
ENDBRANCH   1   4
BRANCH   1  17
ATOM     17  C   UNL     1      -1.639  -0.449  -7.249  0.00  0.00    +0.019 C 
BRANCH  17  18
ATOM     18  C   UNL     1      -2.528  -0.898  -8.380  0.00  0.00    +0.197 C 
ATOM     19  O   UNL     1      -3.648  -1.301  -8.148  0.00  0.00    -0.278 OA
ATOM     20  N   UNL     1      -2.078  -0.852  -9.650  0.00  0.00    -0.310 N 
ATOM     21  H   UNL     1      -1.182  -0.530  -9.835  0.00  0.00    +0.149 HD
BRANCH  20  22
ATOM     22  C   UNL     1      -2.942  -1.289 -10.749  0.00  0.00    +0.100 C 
ATOM     23  C   UNL     1      -3.842  -0.130 -11.181  0.00  0.00    +0.033 C 
BRANCH  22  24
ATOM     24  C   UNL     1      -2.090  -1.725 -11.914  0.00  0.00    -0.027 A 
ATOM     25  C   UNL     1      -0.951  -1.014 -12.242  0.00  0.00    +0.005 A 
ATOM     26  C   UNL     1      -0.170  -1.414 -13.310  0.00  0.00    +0.000 A 
ATOM     27  C   UNL     1      -0.529  -2.525 -14.050  0.00  0.00    +0.000 A 
ATOM     28  C   UNL     1      -1.668  -3.237 -13.722  0.00  0.00    +0.000 A 
ATOM     29  C   UNL     1      -2.446  -2.839 -12.651  0.00  0.00    +0.005 A 
ENDBRANCH  22  24
ENDBRANCH  20  22
ENDBRANCH  17  18
ENDBRANCH   1  17
TORSDOF 8
