REMARK  Name = ZINC41957785
REMARK  7 active torsions:
REMARK  status: ('A' for Active; 'I' for Inactive)
REMARK    1  A    between atoms: C_1  and  C_2
REMARK    2  A    between atoms: C_3  and  C_8
REMARK    3  A    between atoms: N_6  and  C_7
REMARK    4  A    between atoms: C_8  and  C_10
REMARK    5  A    between atoms: C_8  and  N_11
REMARK    6  A    between atoms: C_12  and  C_14
REMARK    7  A    between atoms: N_16  and  C_17
REMARK                            x       y       z     vdW  Elec       q    Type
REMARK                         _______ _______ _______ _____ _____    ______ ____
ROOT
ATOM      1  N   UNL     1       0.457  -1.404  -3.408  0.00  0.00    -0.301 N 
ATOM      2  C   UNL     1       1.012  -1.107  -4.599  0.00  0.00    +0.300 C 
ATOM      3  O   UNL     1       1.103   0.050  -4.955  0.00  0.00    -0.265 OA
ATOM      4  H   UNL     1       0.384  -2.328  -3.124  0.00  0.00    +0.150 HD
ENDROOT
BRANCH   2   5
ATOM      5  C   UNL     1       1.516  -2.201  -5.482  0.00  0.00    +0.303 C 
ATOM      6  O   UNL     1       1.424  -3.358  -5.127  0.00  0.00    -0.265 OA
ATOM      7  N   UNL     1       2.071  -1.904  -6.674  0.00  0.00    -0.276 N 
ATOM      8  H   UNL     1       2.085  -0.986  -6.987  0.00  0.00    +0.155 HD
BRANCH   7   9
ATOM      9  C   UNL     1       2.627  -2.919  -7.458  0.00  0.00    +0.054 A 
ATOM     10  C   UNL     1       2.055  -4.184  -7.466  0.00  0.00    +0.046 A 
ATOM     11  C   UNL     1       2.606  -5.185  -8.243  0.00  0.00    +0.061 A 
ATOM     12  C   UNL     1       3.728  -4.928  -9.014  0.00  0.00    +0.061 A 
ATOM     13  C   UNL     1       4.300  -3.668  -9.008  0.00  0.00    +0.043 A 
ATOM     14  C   UNL     1       3.749  -2.661  -8.237  0.00  0.00    +0.064 A 
ATOM     15 CL   UNL     1       4.463  -1.079  -8.236  0.00  0.00    -0.082 Cl
ATOM     16 CL   UNL     1       4.418  -6.187  -9.989  0.00  0.00    -0.082 Cl
ATOM     17 CL   UNL     1       1.892  -6.768  -8.253  0.00  0.00    -0.082 Cl
ENDBRANCH   7   9
ENDBRANCH   2   5
BRANCH   1  18
ATOM     18  C   UNL     1      -0.037  -0.330  -2.542  0.00  0.00    +0.104 C 
ATOM     19  C   UNL     1      -1.464   0.039  -2.950  0.00  0.00    +0.033 C 
BRANCH  18  22
ATOM     20  C   UNL     1      -0.072   1.503  -0.007  0.00  0.00    +0.065 C 
ATOM     21  C   UNL     1      -0.045  -0.004  -0.013  0.00  0.00    +0.041 A 
ATOM     22  C   UNL     1      -0.029  -0.797  -1.109  0.00  0.00    +0.013 A 
ATOM     23  C   UNL     1      -0.004  -2.127  -0.677  0.00  0.00    +0.140 A 
ATOM     24  N   UNL     1      -0.005  -2.132   0.632  0.00  0.00    -0.179 NA
ATOM     25  N   UNL     1      -0.025  -0.803   1.074  0.00  0.00    -0.271 N 
ATOM     26  C   UNL     1      -0.028  -0.360   2.470  0.00  0.00    +0.172 C 
ENDBRANCH  18  22
ENDBRANCH   1  18
TORSDOF 4
