REMARK  Name = ZINC39653166
REMARK  11 active torsions:
REMARK  status: ('A' for Active; 'I' for Inactive)
REMARK    1  A    between atoms: C_1  and  C_2
REMARK    2  A    between atoms: C_5  and  C_8
REMARK    3  A    between atoms: C_8  and  C_9
REMARK    4  A    between atoms: C_13  and  C_22
REMARK    5  A    between atoms: N_24  and  C_25
REMARK    6  A    between atoms: C_25  and  C_26
REMARK    7  A    between atoms: C_26  and  C_27
REMARK    8  A    between atoms: C_29  and  O_35
REMARK    9  A    between atoms: C_31  and  O_33
REMARK   10  A    between atoms: O_33  and  C_34
REMARK   11  A    between atoms: O_35  and  C_36
REMARK                            x       y       z     vdW  Elec       q    Type
REMARK                         _______ _______ _______ _____ _____    ______ ____
ROOT
ATOM      1  C   UNL     1       1.647  -4.777   0.002  0.00  0.00    +0.220 C 
ATOM      2  O   UNL     1       2.577  -4.000  -0.054  0.00  0.00    -0.275 OA
ATOM      3  N   UNL     1       1.874  -6.104  -0.042  0.00  0.00    -0.300 N 
ATOM      4  C   UNL     1       0.876  -7.199   0.006  0.00  0.00    +0.121 C 
ATOM      5  C   UNL     1       1.397  -8.247  -1.002  0.00  0.00    +0.100 C 
ATOM      6  C   UNL     1       2.909  -7.982  -1.098  0.00  0.00    -0.004 C 
ATOM      7  C   UNL     1       3.179  -6.800  -0.155  0.00  0.00    +0.115 C 
ATOM      8  C   UNL     1       3.691  -9.210  -0.644  0.00  0.00    -0.010 C 
ATOM      9  C   UNL     1       5.190  -8.943  -0.804  0.00  0.00    -0.082 C 
ATOM     10  N   UNL     1       5.489  -8.640  -2.209  0.00  0.00    +0.379 N 
ATOM     11  C   UNL     1       4.805  -7.404  -2.610  0.00  0.00    -0.082 C 
ATOM     12  C   UNL     1       3.290  -7.607  -2.527  0.00  0.00    -0.010 C 
ATOM     13  H   UNL     1       6.484  -8.524  -2.322  0.00  0.00    -0.086 HD
ATOM     14  H   UNL     1       5.173  -9.402  -2.790  0.00  0.00    -0.086 HD
ENDROOT
BRANCH   5  15
ATOM     15  C   UNL     1       1.138  -9.641  -0.491  0.00  0.00    +0.218 C 
ATOM     16  O   UNL     1       1.126  -9.857   0.702  0.00  0.00    -0.275 OA
ATOM     17  N   UNL     1       0.919 -10.647  -1.360  0.00  0.00    -0.315 N 
ATOM     18  H   UNL     1       0.928 -10.475  -2.315  0.00  0.00    +0.149 HD
BRANCH  17  19
ATOM     19  C   UNL     1       0.667 -12.002  -0.864  0.00  0.00    +0.109 C 
BRANCH  19  20
ATOM     20  C   UNL     1       0.452 -12.948  -2.047  0.00  0.00    +0.054 C 
BRANCH  20  21
ATOM     21  C   UNL     1       0.193 -14.341  -1.536  0.00  0.00    -0.039 A 
ATOM     22  C   UNL     1       1.249 -15.207  -1.327  0.00  0.00    +0.049 A 
ATOM     23  C   UNL     1       1.013 -16.491  -0.857  0.00  0.00    +0.124 A 
ATOM     24  C   UNL     1      -0.284 -16.905  -0.596  0.00  0.00    +0.091 A 
ATOM     25  C   UNL     1      -1.343 -16.035  -0.807  0.00  0.00    +0.124 A 
ATOM     26  C   UNL     1      -1.101 -14.750  -1.272  0.00  0.00    +0.049 A 
BRANCH  25  27
ATOM     27  O   UNL     1      -2.615 -16.438  -0.553  0.00  0.00    -0.495 OA
ATOM     28  C   UNL     1      -2.789 -17.772  -0.071  0.00  0.00    +0.277 C 
ENDBRANCH  25  27
BRANCH  23  29
ATOM     29  O   UNL     1       2.053 -17.342  -0.652  0.00  0.00    -0.495 OA
ATOM     30  C   UNL     1       1.736 -18.648  -0.166  0.00  0.00    +0.277 C 
ENDBRANCH  23  29
ENDBRANCH  20  21
ENDBRANCH  19  20
ENDBRANCH  17  19
ENDBRANCH   5  15
BRANCH   1  31
ATOM     31  C   UNL     1       0.238  -4.257   0.120  0.00  0.00    +0.131 C 
BRANCH  31  36
ATOM     32  C   UNL     1       0.315   1.520   0.228  0.00  0.00    +0.044 C 
ATOM     33  C   UNL     1       0.295   0.014   0.200  0.00  0.00    -0.050 A 
ATOM     34  C   UNL     1       0.196  -0.654  -1.007  0.00  0.00    +0.003 A 
ATOM     35  C   UNL     1       0.177  -2.036  -1.033  0.00  0.00    +0.004 A 
ATOM     36  C   UNL     1       0.259  -2.750   0.148  0.00  0.00    -0.039 A 
ATOM     37  C   UNL     1       0.359  -2.083   1.354  0.00  0.00    +0.004 A 
ATOM     38  C   UNL     1       0.382  -0.701   1.380  0.00  0.00    +0.003 A 
ENDBRANCH  31  36
ENDBRANCH   1  31
TORSDOF 8
