REMARK  Name = ZINC34675667
REMARK  9 active torsions:
REMARK  status: ('A' for Active; 'I' for Inactive)
REMARK    1  A    between atoms: C_1  and  C_2
REMARK    2  A    between atoms: C_5  and  N_8
REMARK    3  A    between atoms: N_8  and  C_9
REMARK    4  A    between atoms: N_8  and  S_25
REMARK    5  A    between atoms: N_12  and  C_15
REMARK    6  A    between atoms: C_15  and  C_16
REMARK    7  A    between atoms: C_21  and  N_22
REMARK    8  A    between atoms: S_25  and  C_28
REMARK    9  A    between atoms: C_33  and  C_34
REMARK                            x       y       z     vdW  Elec       q    Type
REMARK                         _______ _______ _______ _____ _____    ______ ____
ROOT
ATOM      1  N   UNL     1      -0.700  -4.954   0.341  0.00  0.00    -0.200 N 
ENDROOT
BRANCH   1   6
ATOM      2  C   UNL     1      -0.460   0.695   0.778  0.00  0.00    +0.044 C 
ATOM      3  C   UNL     1      -0.524  -0.806   0.662  0.00  0.00    -0.050 A 
ATOM      4  C   UNL     1       0.588  -1.514   0.244  0.00  0.00    +0.005 A 
ATOM      5  C   UNL     1       0.533  -2.889   0.136  0.00  0.00    +0.025 A 
ATOM      6  C   UNL     1      -0.641  -3.562   0.449  0.00  0.00    +0.052 A 
ATOM      7  C   UNL     1      -1.756  -2.849   0.869  0.00  0.00    +0.025 A 
ATOM      8  C   UNL     1      -1.693  -1.473   0.980  0.00  0.00    +0.005 A 
ENDBRANCH   1   6
BRANCH   1   9
ATOM      9  C   UNL     1       0.129  -5.792   1.211  0.00  0.00    +0.095 C 
ATOM     10  C   UNL     1       1.599  -5.394   1.054  0.00  0.00    +0.006 C 
ATOM     11  C   UNL     1       2.450  -6.218   2.023  0.00  0.00    -0.077 C 
ATOM     12  N   UNL     1       2.017  -5.961   3.402  0.00  0.00    +0.383 N 
ATOM     13  C   UNL     1       0.629  -6.406   3.578  0.00  0.00    -0.077 C 
ATOM     14  C   UNL     1      -0.292  -5.589   2.670  0.00  0.00    +0.006 C 
ATOM     15  H   UNL     1       2.079  -4.973   3.594  0.00  0.00    -0.081 HD
BRANCH  12  16
ATOM     16  C   UNL     1       2.886  -6.694   4.332  0.00  0.00    -0.041 C 
BRANCH  16  17
ATOM     17  C   UNL     1       2.543  -6.310   5.748  0.00  0.00    -0.034 A 
ATOM     18  C   UNL     1       1.790  -7.163   6.532  0.00  0.00    +0.004 A 
ATOM     19  C   UNL     1       1.475  -6.811   7.832  0.00  0.00    +0.000 A 
ATOM     20  C   UNL     1       1.914  -5.606   8.347  0.00  0.00    +0.002 A 
ATOM     21  C   UNL     1       2.668  -4.753   7.563  0.00  0.00    +0.033 A 
ATOM     22  C   UNL     1       2.987  -5.107   6.265  0.00  0.00    +0.128 A 
BRANCH  22  23
ATOM     23  N   UNL     1       3.799  -4.196   5.427  0.00  0.00    +0.057 N 
ATOM     24  O   UNL     1       4.240  -3.174   5.898  0.00  0.00    -0.126 OA
ATOM     25  O   UNL     1       4.020  -4.474   4.272  0.00  0.00    -0.126 OA
ENDBRANCH  22  23
ENDBRANCH  16  17
ENDBRANCH  12  16
ENDBRANCH   1   9
BRANCH   1  26
ATOM     26  S   UNL     1      -1.708  -5.656  -0.770  0.00  0.00    +0.075 S 
ATOM     27  O   UNL     1      -2.127  -6.894  -0.212  0.00  0.00    -0.150 OA
ATOM     28  O   UNL     1      -2.628  -4.652  -1.175  0.00  0.00    -0.150 OA
BRANCH  26  29
ATOM     29  C   UNL     1      -0.732  -6.045  -2.184  0.00  0.00    +0.112 A 
ATOM     30  C   UNL     1      -0.517  -7.366  -2.534  0.00  0.00    +0.029 A 
ATOM     31  C   UNL     1       0.248  -7.671  -3.643  0.00  0.00    +0.002 A 
ATOM     32  C   UNL     1       0.798  -6.657  -4.404  0.00  0.00    +0.000 A 
ATOM     33  C   UNL     1       0.582  -5.337  -4.056  0.00  0.00    +0.005 A 
ATOM     34  C   UNL     1      -0.187  -5.031  -2.948  0.00  0.00    -0.024 A 
ATOM     35  C   UNL     1      -0.426  -3.592  -2.571  0.00  0.00    +0.046 C 
ENDBRANCH  26  29
ENDBRANCH   1  26
TORSDOF 7
