REMARK  Name = ZINC39666495
REMARK  8 active torsions:
REMARK  status: ('A' for Active; 'I' for Inactive)
REMARK    1  A    between atoms: C_1  and  C_2
REMARK    2  A    between atoms: C_6  and  C_9
REMARK    3  A    between atoms: C_13  and  C_22
REMARK    4  A    between atoms: N_24  and  C_25
REMARK    5  A    between atoms: C_25  and  C_26
REMARK    6  A    between atoms: C_26  and  C_28
REMARK    7  A    between atoms: C_26  and  O_29
REMARK    8  A    between atoms: O_29  and  C_30
REMARK                            x       y       z     vdW  Elec       q    Type
REMARK                         _______ _______ _______ _____ _____    ______ ____
ROOT
ATOM      1  C   UNL     1       0.092  -3.052   4.957  0.00  0.00    +0.252 C 
ATOM      2  O   UNL     1       0.932  -3.424   5.754  0.00  0.00    -0.270 OA
ATOM      3  N   UNL     1      -1.199  -3.400   5.127  0.00  0.00    -0.296 N 
ATOM      4  C   UNL     1      -2.354  -3.052   4.267  0.00  0.00    +0.121 C 
ATOM      5  C   UNL     1      -3.217  -4.333   4.235  0.00  0.00    +0.100 C 
ATOM      6  C   UNL     1      -2.840  -5.092   5.518  0.00  0.00    -0.004 C 
ATOM      7  C   UNL     1      -1.783  -4.222   6.214  0.00  0.00    +0.115 C 
ATOM      8  C   UNL     1      -4.064  -5.256   6.415  0.00  0.00    -0.010 C 
ATOM      9  C   UNL     1      -3.676  -6.064   7.656  0.00  0.00    -0.082 C 
ATOM     10  N   UNL     1      -3.164  -7.378   7.248  0.00  0.00    +0.379 N 
ATOM     11  C   UNL     1      -1.935  -7.214   6.463  0.00  0.00    -0.082 C 
ATOM     12  C   UNL     1      -2.248  -6.455   5.171  0.00  0.00    -0.010 C 
ATOM     13  H   UNL     1      -2.967  -7.931   8.069  0.00  0.00    -0.086 HD
ATOM     14  H   UNL     1      -3.859  -7.849   6.687  0.00  0.00    -0.086 HD
ENDROOT
BRANCH   1  20
ATOM     15  C   UNL     1       0.869   1.449   2.940  0.00  0.00    +0.047 C 
ATOM     16  C   UNL     1       0.862  -0.054   2.826  0.00  0.00    -0.014 A 
ATOM     17  C   UNL     1       1.226  -0.657   1.636  0.00  0.00    +0.009 A 
ATOM     18  C   UNL     1       1.224  -2.035   1.521  0.00  0.00    +0.039 A 
ATOM     19  C   UNL     1       0.856  -2.822   2.596  0.00  0.00    +0.138 A 
ATOM     20  C   UNL     1       0.486  -2.220   3.804  0.00  0.00    +0.107 A 
ATOM     21  C   UNL     1       0.497  -0.826   3.913  0.00  0.00    +0.141 A 
ATOM     22  F   UNL     1       0.147  -0.234   5.077  0.00  0.00    -0.204 F 
ATOM     23  F   UNL     1       0.853  -4.168   2.482  0.00  0.00    -0.205 F 
ENDBRANCH   1  20
BRANCH   5  24
ATOM     24  C   UNL     1      -4.682  -3.979   4.244  0.00  0.00    +0.218 C 
ATOM     25  O   UNL     1      -5.061  -2.975   4.810  0.00  0.00    -0.275 OA
ATOM     26  N   UNL     1      -5.572  -4.778   3.623  0.00  0.00    -0.312 N 
ATOM     27  H   UNL     1      -5.270  -5.581   3.170  0.00  0.00    +0.149 HD
BRANCH  26  28
ATOM     28  C   UNL     1      -6.996  -4.435   3.631  0.00  0.00    +0.148 C 
BRANCH  28  29
ATOM     29  C   UNL     1      -7.782  -5.498   2.861  0.00  0.00    +0.187 C 
ATOM     30  C   UNL     1      -9.249  -5.076   2.762  0.00  0.00    +0.053 C 
BRANCH  29  31
ATOM     31  O   UNL     1      -7.691  -6.748   3.548  0.00  0.00    -0.486 OA
BRANCH  31  32
ATOM     32  C   UNL     1      -7.849  -7.874   2.804  0.00  0.00    +0.139 A 
ATOM     33  C   UNL     1      -8.198  -7.779   1.465  0.00  0.00    +0.047 A 
ATOM     34  C   UNL     1      -8.358  -8.925   0.710  0.00  0.00    +0.004 A 
ATOM     35  C   UNL     1      -8.171 -10.167   1.288  0.00  0.00    +0.002 A 
ATOM     36  C   UNL     1      -7.824 -10.266   2.622  0.00  0.00    +0.023 A 
ATOM     37  C   UNL     1      -7.656  -9.122   3.381  0.00  0.00    +0.083 A 
ATOM     38 CL   UNL     1      -7.213  -9.246   5.054  0.00  0.00    -0.080 Cl
ENDBRANCH  31  32
ENDBRANCH  29  31
ENDBRANCH  28  29
ENDBRANCH  26  28
ENDBRANCH   5  24
TORSDOF 6
