REMARK  Name = ZINC16382752
REMARK  9 active torsions:
REMARK  status: ('A' for Active; 'I' for Inactive)
REMARK    1  A    between atoms: C_1  and  C_2
REMARK    2  A    between atoms: C_2  and  O_3
REMARK    3  A    between atoms: O_3  and  C_4
REMARK    4  A    between atoms: C_6  and  C_14
REMARK    5  A    between atoms: C_8  and  N_11
REMARK    6  A    between atoms: C_9  and  O_10
REMARK    7  A    between atoms: C_16  and  C_23
REMARK    8  A    between atoms: C_17  and  C_22
REMARK    9  A    between atoms: N_25  and  C_26
REMARK                            x       y       z     vdW  Elec       q    Type
REMARK                         _______ _______ _______ _____ _____    ______ ____
ROOT
ATOM      1  C   UNL     1      -0.137  -5.228  -1.013  0.00  0.00    +0.139 C 
ATOM      2  C   UNL     1       1.197  -5.709  -1.547  0.00  0.00    +0.056 C 
ATOM      3  C   UNL     1       1.501  -7.015  -1.393  0.00  0.00    +0.017 C 
ATOM      4  N   UNL     1       0.635  -7.873  -0.777  0.00  0.00    -0.300 N 
ATOM      5  C   UNL     1      -0.555  -7.502  -0.287  0.00  0.00    +0.135 C 
ATOM      6  S   UNL     1      -1.545  -8.680   0.463  0.00  0.00    -0.019 S 
ATOM      7  N   UNL     1      -0.998  -6.232  -0.366  0.00  0.00    -0.315 N 
ATOM      8  C   UNL     1       2.817  -7.535  -1.910  0.00  0.00    +0.061 C 
ATOM      9  H   UNL     1       0.897  -8.803  -0.689  0.00  0.00    +0.154 HD
ATOM     10  H   UNL     1      -1.863  -5.986  -0.004  0.00  0.00    +0.149 HD
ENDROOT
BRANCH   1  13
ATOM     11  C   UNL     1       0.750  -3.446   2.198  0.00  0.00    +0.164 A 
ATOM     12  C   UNL     1       0.504  -4.452   1.278  0.00  0.00    +0.055 A 
ATOM     13  C   UNL     1       0.130  -4.132  -0.014  0.00  0.00    -0.017 A 
ATOM     14  C   UNL     1       0.002  -2.808  -0.392  0.00  0.00    +0.042 A 
ATOM     15  C   UNL     1       0.247  -1.799   0.521  0.00  0.00    +0.171 A 
ATOM     16  C   UNL     1       0.616  -2.114   1.819  0.00  0.00    +0.189 A 
BRANCH  15  17
ATOM     17  N   UNL     1       0.109  -0.383   0.114  0.00  0.00    +0.060 N 
ATOM     18  O   UNL     1      -0.218  -0.108  -1.018  0.00  0.00    -0.126 OA
ATOM     19  O   UNL     1       0.322   0.500   0.912  0.00  0.00    -0.126 OA
ENDBRANCH  15  17
BRANCH  16  20
ATOM     20  O   UNL     1       0.851  -1.122   2.720  0.00  0.00    -0.502 OA
ATOM     21  H   UNL     1       1.769  -0.818   2.740  0.00  0.00    +0.292 HD
ENDBRANCH  16  20
BRANCH  11  22
ATOM     22  O   UNL     1       1.117  -3.760   3.469  0.00  0.00    -0.488 OA
BRANCH  22  24
ATOM     23  C   UNL     1       1.855  -5.286   5.191  0.00  0.00    +0.048 C 
ATOM     24  C   UNL     1       1.341  -5.141   3.758  0.00  0.00    +0.226 C 
ENDBRANCH  22  24
ENDBRANCH  11  22
ENDBRANCH   1  13
BRANCH   2  25
ATOM     25  C   UNL     1       2.094  -4.819  -2.185  0.00  0.00    +0.248 C 
ATOM     26  O   UNL     1       1.905  -4.489  -3.342  0.00  0.00    -0.270 OA
ATOM     27  N   UNL     1       3.158  -4.336  -1.512  0.00  0.00    -0.280 N 
ATOM     28  H   UNL     1       3.348  -4.652  -0.615  0.00  0.00    +0.155 HD
BRANCH  27  29
ATOM     29  C   UNL     1       3.987  -3.380  -2.107  0.00  0.00    +0.052 A 
ATOM     30  C   UNL     1       3.530  -2.639  -3.190  0.00  0.00    +0.025 A 
ATOM     31  C   UNL     1       4.352  -1.696  -3.776  0.00  0.00    +0.002 A 
ATOM     32  C   UNL     1       5.628  -1.488  -3.285  0.00  0.00    +0.002 A 
ATOM     33  C   UNL     1       6.087  -2.223  -2.208  0.00  0.00    +0.022 A 
ATOM     34  C   UNL     1       5.268  -3.164  -1.613  0.00  0.00    +0.062 A 
ATOM     35 CL   UNL     1       5.841  -4.082  -0.256  0.00  0.00    -0.082 Cl
ENDBRANCH  27  29
ENDBRANCH   2  25
TORSDOF 7
