REMARK  Name = ZINC13064625
REMARK  12 active torsions:
REMARK  status: ('A' for Active; 'I' for Inactive)
REMARK    1  A    between atoms: C_1  and  C_2
REMARK    2  A    between atoms: C_2  and  C_3
REMARK    3  A    between atoms: C_3  and  C_5
REMARK    4  A    between atoms: C_3  and  N_67
REMARK    5  A    between atoms: N_9  and  C_10
REMARK    6  A    between atoms: C_10  and  C_11
REMARK    7  A    between atoms: C_17  and  C_18
REMARK    8  A    between atoms: C_17  and  N_67
REMARK    9  A    between atoms: C_23  and  C_24
REMARK   10  A    between atoms: C_23  and  N_67
REMARK   11  A    between atoms: C_28  and  C_37
REMARK   12  A    between atoms: C_29  and  C_36
REMARK                            x       y       z     vdW  Elec       q    Type
REMARK                         _______ _______ _______ _____ _____    ______ ____
ROOT
ATOM      1  N   UNL     1       3.395   0.562   1.432  0.00  0.00    +0.392 N 
ATOM      2  H   UNL     1       2.855   0.022   2.119  0.00  0.00    -0.080 HD
ENDROOT
BRANCH   1   3
ATOM      3  C   UNL     1       4.517  -0.268   0.945  0.00  0.00    +0.003 C 
BRANCH   3   4
ATOM      4  C   UNL     1       4.061  -1.703   0.880  0.00  0.00    +0.138 A 
ATOM      5  N   UNL     1       2.890  -2.135   0.480  0.00  0.00    -0.115 NA
ATOM      6  N   UNL     1       2.887  -3.420   0.571  0.00  0.00    -0.023 NA
ATOM      7  N   UNL     1       4.026  -3.819   1.019  0.00  0.00    -0.044 NA
ATOM      8  N   UNL     1       4.779  -2.791   1.217  0.00  0.00    -0.228 N 
BRANCH   8   9
ATOM      9  C   UNL     1       6.156  -2.804   1.717  0.00  0.00    +0.178 C 
BRANCH   9  10
ATOM     10  C   UNL     1       6.145  -2.713   3.244  0.00  0.00    +0.140 C 
ATOM     11  C   UNL     1       7.591  -2.610   3.774  0.00  0.00    +0.035 C 
ATOM     12  C   UNL     1       7.540  -3.498   5.047  0.00  0.00    +0.031 C 
ATOM     13  C   UNL     1       6.533  -4.589   4.605  0.00  0.00    +0.160 C 
ATOM     14  O   UNL     1       5.565  -3.901   3.797  0.00  0.00    -0.375 OA
ENDBRANCH   9  10
ENDBRANCH   8   9
ENDBRANCH   3   4
BRANCH   3  16
ATOM     15  C   UNL     1       5.548   1.599  -0.357  0.00  0.00    +0.002 C 
ATOM     16  C   UNL     1       4.956   0.191  -0.447  0.00  0.00    -0.011 C 
ENDBRANCH   3  16
ENDBRANCH   1   3
BRANCH   1  17
ATOM     17  C   UNL     1       3.916   1.783   2.083  0.00  0.00    -0.034 C 
BRANCH  17  18
ATOM     18  C   UNL     1       4.487   1.409   3.426  0.00  0.00    -0.027 A 
ATOM     19  C   UNL     1       5.773   1.141   3.762  0.00  0.00    +0.009 A 
ATOM     20  C   UNL     1       6.070   0.821   5.073  0.00  0.00    +0.008 A 
ATOM     21  C   UNL     1       5.065   0.773   5.982  0.00  0.00    +0.045 A 
ATOM     22  S   UNL     1       3.646   1.198   4.986  0.00  0.00    -0.103 S 
ENDBRANCH  17  18
ENDBRANCH   1  17
BRANCH   1  23
ATOM     23  C   UNL     1       2.511   0.927   0.306  0.00  0.00    -0.036 C 
BRANCH  23  24
ATOM     24  C   UNL     1       1.209   1.445   0.861  0.00  0.00    +0.001 A 
ATOM     25  C   UNL     1       1.021   2.780   1.009  0.00  0.00    +0.017 A 
ATOM     26  C   UNL     1      -0.255   3.250   1.552  0.00  0.00    -0.001 A 
ATOM     27  C   UNL     1      -0.507   4.615   1.728  0.00  0.00    +0.013 A 
ATOM     28  C   UNL     1      -1.708   5.022   2.236  0.00  0.00    -0.047 A 
ATOM     29  C   UNL     1      -2.680   4.093   2.580  0.00  0.00    -0.046 A 
ATOM     30  C   UNL     1      -2.454   2.743   2.416  0.00  0.00    +0.030 A 
ATOM     31  C   UNL     1      -1.238   2.305   1.899  0.00  0.00    +0.049 A 
ATOM     32  N   UNL     1      -0.987   0.962   1.719  0.00  0.00    -0.322 N 
ATOM     33  H   UNL     1      -1.668   0.312   1.955  0.00  0.00    +0.169 HD
ATOM     34  C   UNL     1       0.190   0.539   1.225  0.00  0.00    +0.251 A 
ATOM     35  O   UNL     1       0.379  -0.657   1.083  0.00  0.00    -0.268 OA
ATOM     36  C   UNL     1      -3.997   4.565   3.140  0.00  0.00    +0.044 C 
ATOM     37  C   UNL     1      -1.979   6.492   2.425  0.00  0.00    +0.044 C 
ENDBRANCH  23  24
ENDBRANCH   1  23
TORSDOF 9
