REMARK  Name = ZINC22912923
REMARK  6 active torsions:
REMARK  status: ('A' for Active; 'I' for Inactive)
REMARK    1  A    between atoms: C_4  and  C_7
REMARK    2  A    between atoms: C_7  and  C_8
REMARK    3  A    between atoms: N_12  and  C_16
REMARK    4  A    between atoms: C_16  and  N_17
REMARK    5  A    between atoms: N_20  and  C_23
REMARK    6  A    between atoms: C_23  and  C_24
REMARK                            x       y       z     vdW  Elec       q    Type
REMARK                         _______ _______ _______ _____ _____    ______ ____
ROOT
ATOM      1  C   UNL     1      -6.526   0.338   2.377  0.00  0.00    +0.205 C 
ENDROOT
BRANCH   1   5
ATOM      2  C   UNL     1      -2.945   0.711   1.462  0.00  0.00    +0.165 C 
ATOM      3  C   UNL     1      -4.239  -0.078   1.494  0.00  0.00    +0.245 C 
ATOM      4  O   UNL     1      -4.431  -1.188   1.045  0.00  0.00    -0.273 OA
ATOM      5  N   UNL     1      -5.131   0.710   2.125  0.00  0.00    -0.211 N 
ATOM      6  C   UNL     1      -4.587   1.876   2.493  0.00  0.00    +0.310 C 
ATOM      7  O   UNL     1      -5.194   2.751   3.077  0.00  0.00    -0.252 OA
ATOM      8  N   UNL     1      -3.291   1.970   2.143  0.00  0.00    -0.287 N 
ATOM      9  H   UNL     1      -2.529   2.754   2.270  0.00  0.00    +0.151 HD
BRANCH   2  10
ATOM     10  C   UNL     1      -2.514   0.980   0.019  0.00  0.00    +0.067 C 
BRANCH  10  14
ATOM     11  C   UNL     1       1.156   3.165   0.008  0.00  0.00    +0.000 A 
ATOM     12  C   UNL     1       1.175   1.783   0.000  0.00  0.00    +0.000 A 
ATOM     13  C   UNL     1      -0.013   1.076   0.008  0.00  0.00    +0.004 A 
ATOM     14  C   UNL     1      -1.219   1.751   0.017  0.00  0.00    -0.045 A 
ATOM     15  C   UNL     1      -1.238   3.133   0.030  0.00  0.00    +0.004 A 
ATOM     16  C   UNL     1      -0.050   3.840   0.023  0.00  0.00    +0.000 A 
ENDBRANCH  10  14
ENDBRANCH   2  10
ENDBRANCH   1   5
BRANCH   1  17
ATOM     17  N   UNL     1      -7.359   0.769   1.247  0.00  0.00    -0.284 NA
ATOM     18  C   UNL     1      -7.697   2.195   1.355  0.00  0.00    +0.101 C 
ATOM     19  C   UNL     1      -8.497   2.622   0.122  0.00  0.00    +0.100 C 
ATOM     20  N   UNL     1      -9.712   1.802   0.021  0.00  0.00    -0.294 NA
ATOM     21  C   UNL     1      -9.374   0.376  -0.087  0.00  0.00    +0.100 C 
ATOM     22  C   UNL     1      -8.574  -0.051   1.146  0.00  0.00    +0.101 C 
BRANCH  20  23
ATOM     23  C   UNL     1     -10.546   2.233  -1.109  0.00  0.00    +0.147 C 
BRANCH  23  24
ATOM     24  C   UNL     1     -11.074   3.619  -0.844  0.00  0.00    +0.093 A 
ATOM     25  N   UNL     1     -10.531   4.763  -1.151  0.00  0.00    -0.243 NA
ATOM     26  C   UNL     1     -11.114   5.944  -0.858  0.00  0.00    +0.079 A 
ATOM     27  C   UNL     1     -10.657   7.254  -1.127  0.00  0.00    +0.029 A 
ATOM     28  C   UNL     1     -11.388   8.336  -0.746  0.00  0.00    +0.002 A 
ATOM     29  C   UNL     1     -12.601   8.199  -0.084  0.00  0.00    +0.001 A 
ATOM     30  C   UNL     1     -13.082   6.935   0.198  0.00  0.00    +0.017 A 
ATOM     31  C   UNL     1     -12.351   5.835  -0.183  0.00  0.00    +0.039 A 
ATOM     32  S   UNL     1     -12.548   4.076  -0.049  0.00  0.00    -0.071 S 
ENDBRANCH  23  24
ENDBRANCH  20  23
ENDBRANCH   1  17
TORSDOF 6
