REMARK  Name = ZINC15021764
REMARK  1 active torsions:
REMARK  status: ('A' for Active; 'I' for Inactive)
REMARK    1  A    between atoms: C_3  and  N_8
REMARK                            x       y       z     vdW  Elec       q    Type
REMARK                         _______ _______ _______ _____ _____    ______ ____
ROOT
ATOM      1  N   UNL     1       2.121  -0.819   2.796  0.00  0.00    -0.210 N 
ATOM      2  C   UNL     1       2.325  -1.688   1.746  0.00  0.00    +0.228 C 
ATOM      3  O   UNL     1       2.474  -2.890   1.789  0.00  0.00    -0.275 OA
ATOM      4  C   UNL     1       2.337  -0.839   0.574  0.00  0.00    +0.074 C 
ATOM      5  C   UNL     1       2.565  -0.859  -0.883  0.00  0.00    -0.054 C 
ATOM      6  C   UNL     1       3.778  -1.742  -1.258  0.00  0.00    -0.016 C 
ATOM      7  C   UNL     1       4.752  -0.789  -2.008  0.00  0.00    -0.020 C 
ATOM      8  C   UNL     1       4.402   0.598  -1.427  0.00  0.00    -0.076 C 
ATOM      9  N   UNL     1       2.944   0.564  -1.218  0.00  0.00    +0.395 N 
ATOM     10  C   UNL     1       2.617   1.381  -0.017  0.00  0.00    +0.053 C 
ATOM     11  C   UNL     1       3.018   0.468   1.122  0.00  0.00    +0.089 C 
ATOM     12  C   UNL     1       2.319   0.489   2.446  0.00  0.00    +0.229 C 
ATOM     13  O   UNL     1       1.995   1.469   3.082  0.00  0.00    -0.275 OA
ATOM     14  C   UNL     1       1.173   1.778   0.000  0.00  0.00    -0.024 A 
ATOM     15  C   UNL     1      -0.013   1.076   0.008  0.00  0.00    +0.043 A 
ATOM     16  C   UNL     1      -1.223   1.749   0.017  0.00  0.00    +0.124 A 
ATOM     17  C   UNL     1      -1.240   3.134   0.031  0.00  0.00    +0.040 A 
ATOM     18  C   UNL     1      -0.056   3.842   0.021  0.00  0.00    +0.026 A 
ATOM     19  C   UNL     1       1.164   3.171   0.006  0.00  0.00    +0.036 A 
ATOM     20  N   UNL     1       2.473   3.663  -0.007  0.00  0.00    -0.286 N 
ATOM     21  C   UNL     1       3.386   2.673  -0.024  0.00  0.00    +0.212 C 
ATOM     22  O   UNL     1       4.593   2.798  -0.042  0.00  0.00    -0.277 OA
ATOM     23  F   UNL     1      -2.383   1.057   0.019  0.00  0.00    -0.205 F 
ATOM     24  H   UNL     1       2.653   4.748  -0.004  0.00  0.00    +0.155 HD
ATOM     25  H   UNL     1       2.435   0.949  -2.114  0.00  0.00    -0.079 HD
ENDROOT
BRANCH   1  28
ATOM     26  C   UNL     1       1.204  -2.982   5.628  0.00  0.00    +0.003 A 
ATOM     27  C   UNL     1       1.569  -2.579   4.358  0.00  0.00    +0.024 A 
ATOM     28  C   UNL     1       1.750  -1.230   4.084  0.00  0.00    +0.045 A 
ATOM     29  C   UNL     1       1.569  -0.290   5.090  0.00  0.00    +0.039 A 
ATOM     30  C   UNL     1       1.199  -0.699   6.357  0.00  0.00    +0.020 A 
ATOM     31  C   UNL     1       1.019  -2.044   6.626  0.00  0.00    +0.015 A 
ATOM     32 BR   UNL     1       0.946   0.581   7.726  0.00  0.00    -0.050 Br
ENDBRANCH   1  28
TORSDOF 1
