REMARK  Name = ZINC43547249
REMARK  4 active torsions:
REMARK  status: ('A' for Active; 'I' for Inactive)
REMARK    1  A    between atoms: C_6  and  C_7
REMARK    2  A    between atoms: C_7  and  O_9
REMARK    3  A    between atoms: O_9  and  C_10
REMARK    4  A    between atoms: C_15  and  C_16
REMARK                            x       y       z     vdW  Elec       q    Type
REMARK                         _______ _______ _______ _____ _____    ______ ____
ROOT
ATOM      1  C   UNL     1      -2.478  -2.673   0.005  0.00  0.00    +0.144 A 
ATOM      2  C   UNL     1      -3.609  -1.872  -0.044  0.00  0.00    +0.048 A 
ATOM      3  C   UNL     1      -4.864  -2.446  -0.042  0.00  0.00    +0.023 A 
ATOM      4  C   UNL     1      -5.005  -3.824   0.009  0.00  0.00    +0.042 A 
ATOM      5  C   UNL     1      -3.891  -4.635   0.058  0.00  0.00    +0.036 A 
ATOM      6  C   UNL     1      -2.615  -4.067   0.051  0.00  0.00    +0.080 A 
ATOM      7 CL   UNL     1      -6.591  -4.531   0.012  0.00  0.00    -0.084 Cl
ENDROOT
BRANCH   6   8
ATOM      8  C   UNL     1      -1.419  -4.929   0.097  0.00  0.00    +0.245 C 
ATOM      9  O   UNL     1      -0.310  -4.431   0.095  0.00  0.00    -0.270 OA
ATOM     10  N   UNL     1      -1.555  -6.270   0.141  0.00  0.00    -0.325 N 
ATOM     11  H   UNL     1      -2.440  -6.667   0.142  0.00  0.00    +0.145 HD
ATOM     12  H   UNL     1      -0.769  -6.837   0.171  0.00  0.00    +0.145 HD
ENDBRANCH   6   8
BRANCH   1  13
ATOM     13  O   UNL     1      -1.243  -2.110   0.003  0.00  0.00    -0.422 OA
BRANCH  13  14
ATOM     14  C   UNL     1      -0.621  -1.953  -1.182  0.00  0.00    +0.344 C 
ATOM     15  O   UNL     1      -1.125  -2.393  -2.196  0.00  0.00    -0.245 OA
BRANCH  14  21
ATOM     16  C   UNL     1       1.320  -1.081  -2.475  0.00  0.00    +0.016 A 
ATOM     17  C   UNL     1       2.529  -0.419  -2.530  0.00  0.00    +0.016 A 
ATOM     18  C   UNL     1       3.101   0.082  -1.373  0.00  0.00    +0.018 A 
ATOM     19  C   UNL     1       2.464  -0.078  -0.153  0.00  0.00    +0.016 A 
ATOM     20  C   UNL     1       1.256  -0.739  -0.085  0.00  0.00    +0.016 A 
ATOM     21  C   UNL     1       0.673  -1.246  -1.248  0.00  0.00    +0.059 A 
ATOM     22 BR   UNL     1       4.758   0.989  -1.458  0.00  0.00    -0.050 Br
ENDBRANCH  14  21
ENDBRANCH  13  14
ENDBRANCH   1  13
TORSDOF 4
