REMARK  Name = ZINC51906412
REMARK  12 active torsions:
REMARK  status: ('A' for Active; 'I' for Inactive)
REMARK    1  A    between atoms: C_1  and  C_2
REMARK    2  A    between atoms: C_2  and  C_3
REMARK    3  A    between atoms: C_2  and  C_4
REMARK    4  A    between atoms: C_2  and  N_5
REMARK    5  A    between atoms: C_6  and  C_8
REMARK    6  A    between atoms: C_8  and  N_9
REMARK    7  A    between atoms: N_9  and  C_10
REMARK    8  A    between atoms: N_9  and  C_11
REMARK    9  A    between atoms: C_11  and  C_12
REMARK   10  A    between atoms: N_14  and  C_15
REMARK   11  A    between atoms: C_15  and  C_16
REMARK   12  A    between atoms: C_16  and  C_21
REMARK                            x       y       z     vdW  Elec       q    Type
REMARK                         _______ _______ _______ _____ _____    ______ ____
ROOT
ATOM      1  C   UNL     1       6.074   0.089  -4.005  0.00  0.00    +0.196 C 
ATOM      2  O   UNL     1       6.456   0.785  -3.088  0.00  0.00    -0.278 OA
ATOM      3  N   UNL     1       6.863  -0.102  -5.080  0.00  0.00    -0.316 N 
ATOM      4  H   UNL     1       6.557  -0.659  -5.814  0.00  0.00    +0.149 HD
ENDROOT
BRANCH   1   5
ATOM      5  C   UNL     1       4.715  -0.561  -3.941  0.00  0.00    +0.019 C 
BRANCH   5   6
ATOM      6  N   UNL     1       4.058  -0.199  -2.678  0.00  0.00    +0.389 N 
ATOM      7  C   UNL     1       4.814  -0.767  -1.553  0.00  0.00    -0.095 C 
ATOM      8  H   UNL     1       4.028   0.805  -2.590  0.00  0.00    -0.081 HD
BRANCH   6   9
ATOM      9  C   UNL     1       2.690  -0.734  -2.668  0.00  0.00    +0.019 C 
BRANCH   9  11
ATOM     10  N   UNL     1       0.698  -0.628  -1.205  0.00  0.00    -0.312 N 
ATOM     11  C   UNL     1       1.975  -0.260  -1.428  0.00  0.00    +0.197 C 
ATOM     12  O   UNL     1       2.549   0.452  -0.632  0.00  0.00    -0.278 OA
ATOM     13  H   UNL     1       0.239  -1.198  -1.842  0.00  0.00    +0.149 HD
BRANCH  10  15
ATOM     14  C   UNL     1      -0.046   1.361   0.008  0.00  0.00    +0.031 C 
ATOM     15  C   UNL     1       0.003  -0.168   0.000  0.00  0.00    +0.026 C 
ATOM     16  C   UNL     1       0.752  -0.660   1.240  0.00  0.00    +0.031 C 
ATOM     17  C   UNL     1      -1.422  -0.724   0.011  0.00  0.00    +0.031 C 
ENDBRANCH  10  15
ENDBRANCH   9  11
ENDBRANCH   6   9
ENDBRANCH   5   6
ENDBRANCH   1   5
BRANCH   3  18
ATOM     18  C   UNL     1       8.183   0.530  -5.142  0.00  0.00    +0.115 C 
BRANCH  18  19
ATOM     19  C   UNL     1       8.917   0.056  -6.398  0.00  0.00    +0.011 C 
ATOM     20  C   UNL     1       9.027  -1.479  -6.396  0.00  0.00    +0.013 C 
ATOM     21  C   UNL     1      10.533  -1.813  -6.402  0.00  0.00    +0.001 C 
ATOM     22  C   UNL     1      11.204  -0.551  -5.805  0.00  0.00    +0.001 C 
ATOM     23  C   UNL     1      10.360   0.601  -6.404  0.00  0.00    +0.013 C 
BRANCH  19  24
ATOM     24  C   UNL     1       8.184   0.520  -7.630  0.00  0.00    -0.040 A 
ATOM     25  C   UNL     1       7.096   1.364  -7.509  0.00  0.00    +0.007 A 
ATOM     26  C   UNL     1       6.423   1.791  -8.639  0.00  0.00    +0.038 A 
ATOM     27  C   UNL     1       6.840   1.374  -9.891  0.00  0.00    +0.123 A 
ATOM     28  C   UNL     1       7.930   0.528 -10.011  0.00  0.00    +0.038 A 
ATOM     29  C   UNL     1       8.604   0.107  -8.881  0.00  0.00    +0.007 A 
ATOM     30  F   UNL     1       6.183   1.790 -10.996  0.00  0.00    -0.205 F 
ENDBRANCH  19  24
ENDBRANCH  18  19
ENDBRANCH   3  18
TORSDOF 8
