REMARK  Name = ZINC19575918
REMARK  6 active torsions:
REMARK  status: ('A' for Active; 'I' for Inactive)
REMARK    1  A    between atoms: C_1  and  C_2
REMARK    2  A    between atoms: C_7  and  O_31
REMARK    3  A    between atoms: N_13  and  C_14
REMARK    4  A    between atoms: C_14  and  C_15
REMARK    5  A    between atoms: C_18  and  S_20
REMARK    6  A    between atoms: S_20  and  C_21
REMARK                            x       y       z     vdW  Elec       q    Type
REMARK                         _______ _______ _______ _____ _____    ______ ____
ROOT
ATOM      1  C   UNL     1      -0.637   3.392   0.626  0.00  0.00    +0.090 A 
ATOM      2  C   UNL     1      -1.286   4.365   1.290  0.00  0.00    +0.044 A 
ATOM      3  C   UNL     1      -0.312   5.305   1.698  0.00  0.00    +0.057 A 
ATOM      4  C   UNL     1       0.882   4.847   1.254  0.00  0.00    +0.169 A 
ATOM      5  O   UNL     1       0.675   3.688   0.607  0.00  0.00    -0.455 OA
ENDROOT
BRANCH   1   6
ATOM      6  C   UNL     1      -1.275   2.177   0.002  0.00  0.00    -0.003 C 
BRANCH   6  16
ATOM      7  C   UNL     1       0.470   2.274  -2.265  0.00  0.00    -0.012 C 
ATOM      8  C   UNL     1      -0.743   3.197  -2.126  0.00  0.00    -0.057 C 
ATOM      9  C   UNL     1      -1.268   3.556  -3.526  0.00  0.00    +0.069 C 
ATOM     10  N   UNL     1      -1.742   2.328  -4.145  0.00  0.00    -0.300 NA
ATOM     11  C   UNL     1      -2.222   2.397  -5.524  0.00  0.00    +0.115 C 
ATOM     12  C   UNL     1      -3.258   1.255  -5.669  0.00  0.00    +0.130 C 
ATOM     13  C   UNL     1      -3.375   0.636  -4.249  0.00  0.00    +0.049 C 
ATOM     14  C   UNL     1      -2.883   1.788  -3.356  0.00  0.00    +0.043 C 
ATOM     15  C   UNL     1      -2.324   1.331  -2.016  0.00  0.00    -0.059 C 
ATOM     16  N   UNL     1      -1.775   2.520  -1.336  0.00  0.00    +0.388 N 
ATOM     17  H   UNL     1      -2.602   3.237  -1.225  0.00  0.00    -0.081 HD
BRANCH  12  18
ATOM     18  O   UNL     1      -4.519   1.778  -6.091  0.00  0.00    -0.390 OA
ATOM     19  H   UNL     1      -5.372   1.101  -6.244  0.00  0.00    +0.210 HD
ENDBRANCH  12  18
ENDBRANCH   6  16
ENDBRANCH   1   6
BRANCH   4  20
ATOM     20  S   UNL     1       2.441   5.636   1.488  0.00  0.00    -0.014 S 
BRANCH  20  21
ATOM     21  C   UNL     1       3.491   4.487   0.662  0.00  0.00    +0.175 A 
ATOM     22  N   UNL     1       4.846   4.612   0.536  0.00  0.00    -0.333 N 
ATOM     23  H   UNL     1       5.361   5.482   0.970  0.00  0.00    +0.168 HD
ATOM     24  C   UNL     1       5.296   3.511  -0.174  0.00  0.00    +0.067 A 
ATOM     25  C   UNL     1       6.545   3.089  -0.605  0.00  0.00    +0.028 A 
ATOM     26  C   UNL     1       6.665   1.911  -1.312  0.00  0.00    +0.002 A 
ATOM     27  C   UNL     1       5.545   1.145  -1.597  0.00  0.00    +0.002 A 
ATOM     28  C   UNL     1       4.297   1.548  -1.178  0.00  0.00    +0.030 A 
ATOM     29  C   UNL     1       4.158   2.739  -0.460  0.00  0.00    +0.090 A 
ATOM     30  N   UNL     1       3.091   3.383   0.081  0.00  0.00    -0.222 NA
ENDBRANCH  20  21
ENDBRANCH   4  20
TORSDOF 5
