REMARK  Name = ZINC22083268
REMARK  9 active torsions:
REMARK  status: ('A' for Active; 'I' for Inactive)
REMARK    1  A    between atoms: C_1  and  C_2
REMARK    2  A    between atoms: C_2  and  C_4
REMARK    3  A    between atoms: C_2  and  N_10
REMARK    4  A    between atoms: C_11  and  C_13
REMARK    5  A    between atoms: C_13  and  C_15
REMARK    6  A    between atoms: C_13  and  S_16
REMARK    7  A    between atoms: S_16  and  C_17
REMARK    8  A    between atoms: C_20  and  C_23
REMARK    9  A    between atoms: N_21  and  C_22
REMARK                            x       y       z     vdW  Elec       q    Type
REMARK                         _______ _______ _______ _____ _____    ______ ____
ROOT
ATOM      1  C   UNL     1       5.368   7.146  -0.007  0.00  0.00    +0.192 A 
ATOM      2  N   UNL     1       5.281   6.495   1.130  0.00  0.00    -0.122 NA
ATOM      3  N   UNL     1       4.220   5.770   1.139  0.00  0.00    -0.130 NA
ATOM      4  C   UNL     1       3.572   5.913   0.018  0.00  0.00    +0.178 A 
ATOM      5  N   UNL     1       4.282   6.791  -0.755  0.00  0.00    -0.306 N 
ATOM      6  C   UNL     1       3.945   7.255  -2.103  0.00  0.00    +0.153 C 
ENDROOT
BRANCH   4   7
ATOM      7  C   UNL     1       2.281   5.233  -0.361  0.00  0.00    +0.278 C 
ATOM      8  C   UNL     1       1.113   5.884   0.392  0.00  0.00    +0.281 C 
ATOM      9  O   UNL     1      -0.092   5.206   0.020  0.00  0.00    -0.484 OA
ATOM     10  C   UNL     1      -0.054   3.846   0.020  0.00  0.00    +0.162 A 
ATOM     11  C   UNL     1      -1.243   3.131   0.029  0.00  0.00    +0.049 A 
ATOM     12  C   UNL     1      -1.220   1.750   0.017  0.00  0.00    +0.004 A 
ATOM     13  C   UNL     1      -0.013   1.076   0.008  0.00  0.00    +0.004 A 
ATOM     14  C   UNL     1       1.175   1.782   0.000  0.00  0.00    +0.049 A 
ATOM     15  C   UNL     1       1.160   3.169   0.008  0.00  0.00    +0.163 A 
ATOM     16  O   UNL     1       2.338   3.850   0.008  0.00  0.00    -0.474 OA
ENDBRANCH   4   7
BRANCH   1  17
ATOM     17  S   UNL     1       6.646   8.262  -0.481  0.00  0.00    -0.074 S 
BRANCH  17  18
ATOM     18  C   UNL     1       7.686   8.196   0.999  0.00  0.00    +0.137 C 
ATOM     19  C   UNL     1       8.266   6.789   1.153  0.00  0.00    +0.029 C 
BRANCH  18  21
ATOM     20  N   UNL     1       9.464   9.617   1.966  0.00  0.00    -0.308 N 
ATOM     21  C   UNL     1       8.810   9.191   0.868  0.00  0.00    +0.227 C 
ATOM     22  O   UNL     1       9.126   9.608  -0.226  0.00  0.00    -0.275 OA
ATOM     23  H   UNL     1       9.178   9.239   2.959  0.00  0.00    +0.149 HD
BRANCH  20  25
ATOM     24  C   UNL     1       9.983  12.002   1.810  0.00  0.00    +0.033 C 
ATOM     25  C   UNL     1      10.557  10.584   1.839  0.00  0.00    +0.100 C 
BRANCH  25  26
ATOM     26  C   UNL     1      11.491  10.444   3.013  0.00  0.00    -0.027 A 
ATOM     27  C   UNL     1      10.982  10.232   4.280  0.00  0.00    +0.005 A 
ATOM     28  C   UNL     1      11.838  10.100   5.357  0.00  0.00    +0.000 A 
ATOM     29  C   UNL     1      13.205  10.188   5.168  0.00  0.00    +0.000 A 
ATOM     30  C   UNL     1      13.715  10.406   3.901  0.00  0.00    +0.000 A 
ATOM     31  C   UNL     1      12.858  10.534   2.824  0.00  0.00    +0.005 A 
ENDBRANCH  25  26
ENDBRANCH  20  25
ENDBRANCH  18  21
ENDBRANCH  17  18
ENDBRANCH   1  17
TORSDOF 6
