REMARK  Name = ZINC35449872
REMARK  9 active torsions:
REMARK  status: ('A' for Active; 'I' for Inactive)
REMARK    1  A    between atoms: C_1  and  C_2
REMARK    2  A    between atoms: C_2  and  C_3
REMARK    3  A    between atoms: C_3  and  C_5
REMARK    4  A    between atoms: C_3  and  S_6
REMARK    5  A    between atoms: S_6  and  C_7
REMARK    6  A    between atoms: C_14  and  C_24
REMARK    7  A    between atoms: C_27  and  O_30
REMARK    8  A    between atoms: O_30  and  C_31
REMARK    9  A    between atoms: C_31  and  C_32
REMARK                            x       y       z     vdW  Elec       q    Type
REMARK                         _______ _______ _______ _____ _____    ______ ____
ROOT
ATOM      1  C   UNL     1       3.102  -0.498  -2.760  0.00  0.00    +0.171 A 
ATOM      2  N   UNL     1       2.304  -1.089  -3.626  0.00  0.00    -0.208 NA
ATOM      3  C   UNL     1       2.754  -1.484  -4.821  0.00  0.00    +0.135 A 
ATOM      4  C   UNL     1       4.078  -1.271  -5.163  0.00  0.00    +0.069 A 
ATOM      5  C   UNL     1       4.922  -0.646  -4.239  0.00  0.00    +0.258 A 
ATOM      6  O   UNL     1       6.096  -0.444  -4.506  0.00  0.00    -0.267 OA
ATOM      7  N   UNL     1       4.413  -0.265  -3.049  0.00  0.00    -0.302 N 
ATOM      8  C   UNL     1       4.602  -1.697  -6.503  0.00  0.00    +0.092 C 
ATOM      9  C   UNL     1       3.688  -2.701  -7.156  0.00  0.00    +0.024 C 
ATOM     10  C   UNL     1       2.412  -2.859  -6.744  0.00  0.00    +0.017 C 
ATOM     11  N   UNL     1       1.908  -2.108  -5.717  0.00  0.00    -0.302 N 
ATOM     12  C   UNL     1       1.503  -3.870  -7.399  0.00  0.00    +0.051 C 
ATOM     13  C   UNL     1       1.891  -4.034  -8.870  0.00  0.00    +0.014 C 
ATOM     14  C   UNL     1       3.356  -4.478  -8.937  0.00  0.00    +0.080 C 
ATOM     15  C   UNL     1       4.206  -3.470  -8.214  0.00  0.00    +0.162 C 
ATOM     16  O   UNL     1       5.364  -3.316  -8.550  0.00  0.00    -0.292 OA
ATOM     17  H   UNL     1       0.948  -2.014  -5.616  0.00  0.00    +0.153 HD
ATOM     18  H   UNL     1       4.982   0.173  -2.396  0.00  0.00    +0.171 HD
ENDROOT
BRANCH   8  19
ATOM     19  C   UNL     1       4.721  -0.487  -7.393  0.00  0.00    -0.035 A 
ATOM     20  C   UNL     1       3.599   0.267  -7.685  0.00  0.00    +0.008 A 
ATOM     21  C   UNL     1       3.705   1.377  -8.502  0.00  0.00    +0.046 A 
ATOM     22  C   UNL     1       4.938   1.734  -9.028  0.00  0.00    +0.121 A 
ATOM     23  C   UNL     1       6.062   0.976  -8.732  0.00  0.00    +0.046 A 
ATOM     24  C   UNL     1       5.952  -0.129  -7.911  0.00  0.00    +0.008 A 
BRANCH  22  25
ATOM     25  O   UNL     1       5.045   2.825  -9.832  0.00  0.00    -0.487 OA
BRANCH  25  26
ATOM     26  C   UNL     1       6.346   3.133 -10.337  0.00  0.00    +0.264 C 
BRANCH  26  27
ATOM     27  C   UNL     1       6.269   4.365 -11.202  0.00  0.00    -0.010 A 
ATOM     28  C   UNL     1       6.018   4.245 -12.556  0.00  0.00    +0.007 A 
ATOM     29  C   UNL     1       5.948   5.375 -13.349  0.00  0.00    +0.000 A 
ATOM     30  C   UNL     1       6.129   6.625 -12.788  0.00  0.00    +0.000 A 
ATOM     31  C   UNL     1       6.378   6.746 -11.434  0.00  0.00    +0.000 A 
ATOM     32  C   UNL     1       6.444   5.616 -10.640  0.00  0.00    +0.007 A 
ENDBRANCH  26  27
ENDBRANCH  25  26
ENDBRANCH  22  25
ENDBRANCH   8  19
BRANCH   1  33
ATOM     33  S   UNL     1       2.460   0.006  -1.198  0.00  0.00    -0.085 S 
BRANCH  33  34
ATOM     34  C   UNL     1       0.718  -0.497  -1.257  0.00  0.00    +0.051 C 
ATOM     35  C   UNL     1       0.630  -2.023  -1.329  0.00  0.00    +0.019 C 
BRANCH  34  37
ATOM     36  C   UNL     1      -0.019   1.526   0.010  0.00  0.00    +0.005 C 
ATOM     37  C   UNL     1       0.002  -0.004   0.002  0.00  0.00    +0.011 C 
ENDBRANCH  34  37
ENDBRANCH  33  34
ENDBRANCH   1  33
TORSDOF 7
