REMARK  Name = ZINC16662142
REMARK  16 active torsions:
REMARK  status: ('A' for Active; 'I' for Inactive)
REMARK    1  A    between atoms: C_1  and  C_2
REMARK    2  A    between atoms: C_2  and  N_69
REMARK    3  A    between atoms: C_3  and  C_4
REMARK    4  A    between atoms: C_3  and  N_69
REMARK    5  A    between atoms: C_5  and  C_6
REMARK    6  A    between atoms: C_5  and  N_69
REMARK    7  A    between atoms: C_6  and  C_7
REMARK    8  A    between atoms: C_7  and  N_8
REMARK    9  A    between atoms: C_18  and  S_19
REMARK   10  A    between atoms: S_19  and  C_20
REMARK   11  A    between atoms: C_20  and  C_21
REMARK   12  A    between atoms: C_21  and  C_23
REMARK   13  A    between atoms: C_26  and  C_29
REMARK   14  A    between atoms: C_29  and  C_31
REMARK   15  A    between atoms: C_29  and  N_32
REMARK   16  A    between atoms: C_33  and  C_35
REMARK                            x       y       z     vdW  Elec       q    Type
REMARK                         _______ _______ _______ _____ _____    ______ ____
ROOT
ATOM      1  N   UNL     1      -1.750   0.661   1.023  0.00  0.00    -0.287 N 
ATOM      2  C   UNL     1      -2.886  -0.043   1.239  0.00  0.00    +0.262 A 
ATOM      3  O   UNL     1      -3.203  -0.968   0.514  0.00  0.00    -0.267 OA
ATOM      4  C   UNL     1      -3.721   0.351   2.382  0.00  0.00    +0.065 A 
ATOM      5  C   UNL     1      -4.908  -0.311   2.690  0.00  0.00    +0.015 A 
ATOM      6  C   UNL     1      -5.647   0.096   3.766  0.00  0.00    +0.001 A 
ATOM      7  C   UNL     1      -5.228   1.160   4.554  0.00  0.00    +0.002 A 
ATOM      8  C   UNL     1      -4.068   1.827   4.275  0.00  0.00    +0.028 A 
ATOM      9  C   UNL     1      -3.290   1.435   3.181  0.00  0.00    +0.079 A 
ATOM     10  N   UNL     1      -2.139   2.064   2.870  0.00  0.00    -0.223 NA
ATOM     11  C   UNL     1      -1.407   1.692   1.849  0.00  0.00    +0.173 A 
ENDROOT
BRANCH   1  12
ATOM     12  C   UNL     1      -0.880   0.310  -0.103  0.00  0.00    +0.125 C 
BRANCH  12  13
ATOM     13  C   UNL     1      -1.305   1.101  -1.342  0.00  0.00    +0.003 C 
BRANCH  13  14
ATOM     14  C   UNL     1      -0.397   0.735  -2.517  0.00  0.00    -0.077 C 
BRANCH  14  15
ATOM     15  N   UNL     1      -0.833   1.490  -3.710  0.00  0.00    +0.379 N 
ATOM     16  H   UNL     1      -1.841   1.350  -3.844  0.00  0.00    -0.082 HD
BRANCH  15  18
ATOM     17  C   UNL     1       0.922   3.181  -3.291  0.00  0.00    -0.017 C 
ATOM     18  C   UNL     1      -0.571   2.932  -3.519  0.00  0.00    -0.082 C 
ENDBRANCH  15  18
BRANCH  15  19
ATOM     19  C   UNL     1      -0.117   1.002  -4.907  0.00  0.00    -0.082 C 
ATOM     20  C   UNL     1      -0.831   1.525  -6.155  0.00  0.00    -0.017 C 
ENDBRANCH  15  19
ENDBRANCH  14  15
ENDBRANCH  13  14
ENDBRANCH  12  13
ENDBRANCH   1  12
BRANCH  11  21
ATOM     21  S   UNL     1       0.086   2.569   1.523  0.00  0.00    -0.080 S 
BRANCH  21  22
ATOM     22  C   UNL     1       0.043   3.776   2.871  0.00  0.00    +0.157 C 
BRANCH  22  23
ATOM     23  C   UNL     1       1.259   4.662   2.791  0.00  0.00    +0.173 C 
ATOM     24  O   UNL     1       2.075   4.494   1.910  0.00  0.00    -0.291 OA
BRANCH  23  25
ATOM     25  C   UNL     1       1.457   5.731   3.783  0.00  0.00    +0.018 A 
ATOM     26  C   UNL     1       0.516   5.932   4.798  0.00  0.00    +0.012 A 
ATOM     27  C   UNL     1       0.711   6.933   5.726  0.00  0.00    +0.006 A 
ATOM     28  C   UNL     1       1.829   7.744   5.649  0.00  0.00    -0.027 A 
ATOM     29  C   UNL     1       2.763   7.555   4.645  0.00  0.00    +0.006 A 
ATOM     30  C   UNL     1       2.585   6.555   3.713  0.00  0.00    +0.012 A 
BRANCH  28  31
ATOM     31  C   UNL     1       2.032   8.840   6.664  0.00  0.00    +0.100 C 
ATOM     32  C   UNL     1       1.173  10.049   6.287  0.00  0.00    +0.033 C 
BRANCH  31  33
ATOM     33  N   UNL     1       1.638   8.356   7.990  0.00  0.00    -0.309 N 
ATOM     34  C   UNL     1       2.169   8.914   9.096  0.00  0.00    +0.210 C 
ATOM     35  O   UNL     1       2.972   9.817   8.994  0.00  0.00    -0.276 OA
ATOM     36  C   UNL     1       1.764   8.416  10.459  0.00  0.00    +0.109 C 
ATOM     37  H   UNL     1       0.996   7.634   8.072  0.00  0.00    +0.149 HD
ENDBRANCH  31  33
ENDBRANCH  28  31
ENDBRANCH  23  25
ENDBRANCH  22  23
ENDBRANCH  21  22
ENDBRANCH  11  21
TORSDOF 12
