REMARK  Name = ZINC13134834
REMARK  7 active torsions:
REMARK  status: ('A' for Active; 'I' for Inactive)
REMARK    1  A    between atoms: C_1  and  C_2
REMARK    2  A    between atoms: C_2  and  C_4
REMARK    3  A    between atoms: C_2  and  S_20
REMARK    4  A    between atoms: C_10  and  C_15
REMARK    5  A    between atoms: S_20  and  C_21
REMARK    6  A    between atoms: C_24  and  C_27
REMARK    7  A    between atoms: N_25  and  N_26
REMARK                            x       y       z     vdW  Elec       q    Type
REMARK                         _______ _______ _______ _____ _____    ______ ____
ROOT
ATOM      1  C   UNL     1      -4.367   7.989  -4.576  0.00  0.00    +0.027 C 
ATOM      2  C   UNL     1      -5.043   7.271  -3.407  0.00  0.00    +0.117 C 
ENDROOT
BRANCH   2   3
ATOM      3  C   UNL     1      -3.993   6.649  -2.524  0.00  0.00    +0.124 A 
ATOM      4  N   UNL     1      -3.652   5.347  -2.707  0.00  0.00    -0.309 N 
ATOM      5  H   UNL     1      -4.090   4.835  -3.405  0.00  0.00    +0.170 HD
ATOM      6  C   UNL     1      -2.720   4.753  -1.939  0.00  0.00    +0.260 A 
ATOM      7  O   UNL     1      -2.425   3.584  -2.117  0.00  0.00    -0.267 OA
ATOM      8  C   UNL     1      -2.079   5.516  -0.912  0.00  0.00    +0.080 A 
ATOM      9  C   UNL     1      -1.051   5.105   0.038  0.00  0.00    +0.010 A 
ATOM     10  C   UNL     1      -0.593   6.013   0.935  0.00  0.00    +0.057 A 
ATOM     11  S   UNL     1      -1.518   7.485   0.543  0.00  0.00    -0.076 S 
ATOM     12  C   UNL     1      -2.495   6.853  -0.797  0.00  0.00    +0.116 A 
ATOM     13  N   UNL     1      -3.426   7.370  -1.595  0.00  0.00    -0.225 NA
BRANCH   9  14
ATOM     14  C   UNL     1      -0.523   3.725   0.026  0.00  0.00    +0.021 A 
ATOM     15  C   UNL     1       0.778   3.298   0.012  0.00  0.00    +0.016 A 
ATOM     16  C   UNL     1       1.031   1.943   0.003  0.00  0.00    +0.008 A 
ATOM     17  C   UNL     1      -0.013   1.076   0.008  0.00  0.00    +0.046 A 
ATOM     18  S   UNL     1      -1.416   2.179   0.019  0.00  0.00    -0.097 S 
ENDBRANCH   9  14
ENDBRANCH   2   3
BRANCH   2  19
ATOM     19  S   UNL     1      -6.011   8.461  -2.447  0.00  0.00    -0.074 S 
BRANCH  19  20
ATOM     20  C   UNL     1      -7.223   8.908  -3.646  0.00  0.00    +0.209 A 
ATOM     21  N   UNL     1      -7.311   8.452  -4.874  0.00  0.00    -0.121 NA
ATOM     22  N   UNL     1      -8.316   8.990  -5.468  0.00  0.00    -0.132 NA
ATOM     23  C   UNL     1      -8.919   9.820  -4.664  0.00  0.00    +0.154 A 
ATOM     24  N   UNL     1      -8.245   9.797  -3.475  0.00  0.00    -0.228 N 
BRANCH  23  25
ATOM     25  C   UNL     1     -10.134  10.651  -4.986  0.00  0.00    +0.059 C 
ATOM     26  C   UNL     1     -11.298   9.730  -5.359  0.00  0.00    +0.011 C 
ATOM     27  C   UNL     1     -12.532  10.573  -5.686  0.00  0.00    +0.001 C 
ATOM     28  C   UNL     1     -12.218  11.501  -6.862  0.00  0.00    +0.000 C 
ATOM     29  C   UNL     1     -11.055  12.422  -6.489  0.00  0.00    +0.001 C 
ATOM     30  C   UNL     1      -9.821  11.579  -6.162  0.00  0.00    +0.011 C 
ENDBRANCH  23  25
BRANCH  24  31
ATOM     31  N   UNL     1      -8.533  10.516  -2.349  0.00  0.00    -0.295 N 
ATOM     32  H   UNL     1      -8.052  11.403  -2.354  0.00  0.00    +0.163 HD
ATOM     33  H   UNL     1      -9.529  10.645  -2.248  0.00  0.00    +0.163 HD
ENDBRANCH  24  31
ENDBRANCH  19  20
ENDBRANCH   2  19
TORSDOF 6
