REMARK  Name = ZINC63820793
REMARK  10 active torsions:
REMARK  status: ('A' for Active; 'I' for Inactive)
REMARK    1  A    between atoms: C_1  and  C_2
REMARK    2  A    between atoms: C_2  and  C_3
REMARK    3  A    between atoms: C_3  and  C_4
REMARK    4  A    between atoms: C_4  and  N_5
REMARK    5  A    between atoms: C_6  and  N_35
REMARK    6  A    between atoms: C_8  and  N_15
REMARK    7  A    between atoms: N_15  and  C_16
REMARK    8  A    between atoms: C_16  and  C_17
REMARK    9  A    between atoms: C_23  and  C_25
REMARK   10  A    between atoms: C_25  and  C_26
REMARK                            x       y       z     vdW  Elec       q    Type
REMARK                         _______ _______ _______ _____ _____    ______ ____
ROOT
ATOM      1  N   UNL     1       5.164  -2.916   3.887  0.00  0.00    -0.285 N 
ATOM      2  C   UNL     1       5.329  -4.220   3.589  0.00  0.00    +0.221 C 
ATOM      3  O   UNL     1       4.389  -4.983   3.662  0.00  0.00    -0.275 OA
ENDROOT
BRANCH   1   6
ATOM      4  N   UNL     1       1.580  -2.191   3.234  0.00  0.00    -0.296 N 
ATOM      5  C   UNL     1       2.990  -2.396   2.891  0.00  0.00    +0.047 C 
ATOM      6  C   UNL     1       3.825  -2.394   4.174  0.00  0.00    +0.167 C 
ATOM      7  C   UNL     1       3.155  -3.266   5.205  0.00  0.00    +0.261 C 
ATOM      8  O   UNL     1       3.901  -3.951   6.086  0.00  0.00    -0.272 OA
ATOM      9  N   UNL     1       1.856  -3.359   5.248  0.00  0.00    -0.126 NA
ATOM     10  C   UNL     1       1.075  -2.714   4.365  0.00  0.00    +0.327 C 
ATOM     11  O   UNL     1      -0.116  -2.606   4.591  0.00  0.00    -0.250 OA
BRANCH   5  12
ATOM     12  N   UNL     1       3.147  -3.684   2.203  0.00  0.00    +0.392 N 
ATOM     13  H   UNL     1       2.603  -3.680   1.353  0.00  0.00    -0.087 HD
ATOM     14  H   UNL     1       4.120  -3.830   1.980  0.00  0.00    -0.087 HD
ATOM     15  H   UNL     1       2.824  -4.428   2.805  0.00  0.00    -0.087 HD
ENDBRANCH   5  12
BRANCH   4  16
ATOM     16  C   UNL     1       0.719  -1.409   2.344  0.00  0.00    +0.107 C 
BRANCH  16  17
ATOM     17  C   UNL     1       0.773   0.066   2.749  0.00  0.00    +0.019 C 
BRANCH  17  19
ATOM     18  C   UNL     1      -0.072   2.358   2.224  0.00  0.00    +0.004 C 
ATOM     19  C   UNL     1      -0.126   0.883   1.820  0.00  0.00    -0.002 C 
ENDBRANCH  17  19
ENDBRANCH  16  17
ENDBRANCH   4  16
ENDBRANCH   1   6
BRANCH   1  20
ATOM     20  C   UNL     1       6.323  -2.021   3.924  0.00  0.00    +0.143 C 
BRANCH  20  21
ATOM     21  C   UNL     1       6.819  -1.900   5.342  0.00  0.00    -0.030 A 
ATOM     22  C   UNL     1       6.240  -0.984   6.201  0.00  0.00    +0.005 A 
ATOM     23  C   UNL     1       6.695  -0.873   7.502  0.00  0.00    +0.000 A 
ATOM     24  C   UNL     1       7.728  -1.678   7.943  0.00  0.00    +0.000 A 
ATOM     25  C   UNL     1       8.307  -2.594   7.085  0.00  0.00    +0.000 A 
ATOM     26  C   UNL     1       7.849  -2.708   5.785  0.00  0.00    +0.005 A 
ENDBRANCH  20  21
ENDBRANCH   1  20
BRANCH   2  27
ATOM     27  C   UNL     1       6.682  -4.731   3.165  0.00  0.00    +0.129 C 
BRANCH  27  28
ATOM     28  C   UNL     1       6.572  -6.182   2.775  0.00  0.00    -0.033 C 
ATOM     29  C   UNL     1       6.400  -6.678   1.528  0.00  0.00    -0.001 A 
ATOM     30  C   UNL     1       6.269  -6.040   0.213  0.00  0.00    +0.010 A 
ATOM     31  C   UNL     1       6.104  -6.818  -0.880  0.00  0.00    +0.001 A 
ATOM     32  C   UNL     1       6.053  -8.215  -0.790  0.00  0.00    +0.002 A 
ATOM     33  C   UNL     1       6.166  -8.875   0.383  0.00  0.00    +0.026 A 
ATOM     34  C   UNL     1       6.344  -8.156   1.597  0.00  0.00    +0.043 A 
ATOM     35  N   UNL     1       6.476  -8.558   2.838  0.00  0.00    -0.380 N 
ATOM     36  C   UNL     1       6.636  -7.379   3.697  0.00  0.00    +0.145 C 
ATOM     37  H   UNL     1       6.471  -9.480   3.138  0.00  0.00    +0.160 HD
ENDBRANCH  27  28
ENDBRANCH   2  27
TORSDOF 9
