REMARK  Name = ZINC10723605
REMARK  9 active torsions:
REMARK  status: ('A' for Active; 'I' for Inactive)
REMARK    1  A    between atoms: C_1  and  C_2
REMARK    2  A    between atoms: C_4  and  C_31
REMARK    3  A    between atoms: C_8  and  N_30
REMARK    4  A    between atoms: C_9  and  C_11
REMARK    5  A    between atoms: C_11  and  O_13
REMARK    6  A    between atoms: O_13  and  C_14
REMARK    7  A    between atoms: C_14  and  C_15
REMARK    8  A    between atoms: N_20  and  C_21
REMARK    9  A    between atoms: C_27  and  C_29
REMARK                            x       y       z     vdW  Elec       q    Type
REMARK                         _______ _______ _______ _____ _____    ______ ____
ROOT
ATOM      1  C   UNL     1      -0.976  -0.369   6.282  0.00  0.00    +0.348 C 
ATOM      2  O   UNL     1      -0.785   0.754   6.710  0.00  0.00    -0.244 OA
ENDROOT
BRANCH   1  11
ATOM      3  C   UNL     1      -2.808   2.274   1.780  0.00  0.00    +0.044 C 
ATOM      4  C   UNL     1      -2.859   0.770   1.702  0.00  0.00    -0.037 A 
ATOM      5  C   UNL     1      -3.330   0.145   0.571  0.00  0.00    +0.025 A 
ATOM      6  C   UNL     1      -3.376  -1.239   0.501  0.00  0.00    +0.014 A 
ATOM      7  N   UNL     1      -2.970  -1.973   1.519  0.00  0.00    -0.353 N 
ATOM      8  C   UNL     1      -2.511  -1.423   2.622  0.00  0.00    +0.088 A 
ATOM      9  C   UNL     1      -2.418  -0.022   2.791  0.00  0.00    +0.030 A 
ATOM     10  C   UNL     1      -1.882   0.412   4.071  0.00  0.00    +0.055 A 
ATOM     11  C   UNL     1      -1.515  -0.551   4.987  0.00  0.00    +0.119 A 
ATOM     12  S   UNL     1      -1.894  -2.079   4.152  0.00  0.00    -0.062 S 
ATOM     13  C   UNL     1      -3.895  -1.909  -0.745  0.00  0.00    +0.063 C 
ATOM     14  H   UNL     1      -3.010  -2.940   1.452  0.00  0.00    +0.166 HD
BRANCH  10  15
ATOM     15  N   UNL     1      -1.744   1.761   4.364  0.00  0.00    -0.356 N 
ATOM     16  H   UNL     1      -2.070   2.428   3.740  0.00  0.00    +0.142 HD
ATOM     17  H   UNL     1      -1.321   2.037   5.192  0.00  0.00    +0.142 HD
ENDBRANCH  10  15
ENDBRANCH   1  11
BRANCH   1  18
ATOM     18  O   UNL     1      -0.673  -1.442   7.044  0.00  0.00    -0.454 OA
BRANCH  18  19
ATOM     19  C   UNL     1      -0.133  -1.185   8.341  0.00  0.00    +0.288 C 
BRANCH  19  20
ATOM     20  C   UNL     1       0.140  -2.492   9.040  0.00  0.00    +0.088 A 
ATOM     21  C   UNL     1      -0.116  -3.682   8.442  0.00  0.00    +0.075 A 
ATOM     22  S   UNL     1       0.398  -4.815   9.722  0.00  0.00    -0.060 S 
ATOM     23  C   UNL     1       0.877  -3.675  10.864  0.00  0.00    +0.172 A 
ATOM     24  N   UNL     1       0.645  -2.530  10.259  0.00  0.00    -0.226 NA
ATOM     25  N   UNL     1       1.396  -3.891  12.136  0.00  0.00    -0.219 N 
ATOM     26  C   UNL     1       1.610  -2.848  12.963  0.00  0.00    +0.223 C 
ATOM     27  O   UNL     1       1.326  -1.724  12.607  0.00  0.00    -0.275 OA
ATOM     28  C   UNL     1       2.201  -3.078  14.330  0.00  0.00    +0.110 C 
BRANCH  25  29
ATOM     29  C   UNL     1       1.697  -5.192  12.559  0.00  0.00    +0.043 A 
ATOM     30  C   UNL     1       0.914  -5.808  13.525  0.00  0.00    +0.024 A 
ATOM     31  C   UNL     1       1.212  -7.091  13.939  0.00  0.00    +0.002 A 
ATOM     32  C   UNL     1       2.291  -7.763  13.392  0.00  0.00    +0.000 A 
ATOM     33  C   UNL     1       3.073  -7.151  12.429  0.00  0.00    +0.002 A 
ATOM     34  C   UNL     1       2.776  -5.870  12.007  0.00  0.00    +0.024 A 
ENDBRANCH  25  29
ENDBRANCH  19  20
ENDBRANCH  18  19
ENDBRANCH   1  18
TORSDOF 6
