REMARK  Name = ZINC16682520
REMARK  8 active torsions:
REMARK  status: ('A' for Active; 'I' for Inactive)
REMARK    1  A    between atoms: C_1  and  C_2
REMARK    2  A    between atoms: C_2  and  O_3
REMARK    3  A    between atoms: O_3  and  C_4
REMARK    4  A    between atoms: C_4  and  C_6
REMARK    5  A    between atoms: C_7  and  C_29
REMARK    6  A    between atoms: C_12  and  C_14
REMARK    7  A    between atoms: C_17  and  C_19
REMARK    8  A    between atoms: C_21  and  N_26
REMARK                            x       y       z     vdW  Elec       q    Type
REMARK                         _______ _______ _______ _____ _____    ______ ____
ROOT
ATOM      1  C   UNL     1       2.116  -2.198   1.402  0.00  0.00    +0.081 C 
ATOM      2  C   UNL     1       3.376  -2.600   1.676  0.00  0.00    +0.019 C 
ATOM      3  N   UNL     1       4.328  -2.646   0.700  0.00  0.00    -0.300 N 
ATOM      4  C   UNL     1       4.102  -2.308  -0.576  0.00  0.00    +0.135 C 
ATOM      5  S   UNL     1       5.388  -2.412  -1.701  0.00  0.00    -0.019 S 
ATOM      6  N   UNL     1       2.895  -1.888  -1.003  0.00  0.00    -0.312 N 
ATOM      7  C   UNL     1       1.796  -1.802  -0.025  0.00  0.00    +0.177 C 
ATOM      8  C   UNL     1       3.736  -3.004   3.083  0.00  0.00    +0.061 C 
ATOM      9  H   UNL     1       5.220  -2.941   0.944  0.00  0.00    +0.154 HD
ATOM     10  H   UNL     1       2.753  -1.647  -1.932  0.00  0.00    +0.149 HD
ENDROOT
BRANCH   7  11
ATOM     11  C   UNL     1       1.296  -0.381  -0.012  0.00  0.00    +0.131 A 
ATOM     12  C   UNL     1       0.002  -0.004   0.002  0.00  0.00    +0.047 A 
ATOM     13  C   UNL     1      -0.017   1.405   0.010  0.00  0.00    +0.050 A 
ATOM     14  C   UNL     1       1.279   1.814  -0.000  0.00  0.00    +0.137 A 
ATOM     15  O   UNL     1       2.064   0.720  -0.014  0.00  0.00    -0.457 OA
BRANCH  14  16
ATOM     16  C   UNL     1       1.746   3.217   0.003  0.00  0.00    +0.038 A 
ATOM     17  C   UNL     1       2.708   3.633   0.924  0.00  0.00    +0.045 A 
ATOM     18  C   UNL     1       3.144   4.942   0.918  0.00  0.00    +0.127 A 
ATOM     19  C   UNL     1       2.621   5.845   0.009  0.00  0.00    +0.034 A 
ATOM     20  C   UNL     1       1.663   5.441  -0.904  0.00  0.00    +0.023 A 
ATOM     21  C   UNL     1       1.222   4.132  -0.913  0.00  0.00    +0.052 A 
ATOM     22 CL   UNL     1       0.021   3.627  -2.059  0.00  0.00    -0.083 Cl
BRANCH  18  23
ATOM     23  N   UNL     1       4.168   5.384   1.891  0.00  0.00    +0.056 N 
ATOM     24  O   UNL     1       4.550   6.540   1.891  0.00  0.00    -0.126 OA
ATOM     25  O   UNL     1       4.629   4.590   2.692  0.00  0.00    -0.126 OA
ENDBRANCH  18  23
ENDBRANCH  14  16
ENDBRANCH   7  11
BRANCH   1  26
ATOM     26  C   UNL     1       1.129  -2.149   2.413  0.00  0.00    +0.339 C 
ATOM     27  O   UNL     1       1.408  -2.472   3.552  0.00  0.00    -0.245 OA
BRANCH  26  28
ATOM     28  O   UNL     1      -0.124  -1.745   2.114  0.00  0.00    -0.462 OA
BRANCH  28  30
ATOM     29  C   UNL     1      -2.424  -1.239   2.657  0.00  0.00    +0.048 C 
ATOM     30  C   UNL     1      -1.070  -1.720   3.184  0.00  0.00    +0.229 C 
ENDBRANCH  28  30
ENDBRANCH  26  28
ENDBRANCH   1  26
TORSDOF 6
