REMARK  Name = ZINC09414004
REMARK  7 active torsions:
REMARK  status: ('A' for Active; 'I' for Inactive)
REMARK    1  A    between atoms: C_1  and  C_2
REMARK    2  A    between atoms: C_2  and  C_3
REMARK    3  A    between atoms: C_3  and  C_4
REMARK    4  A    between atoms: C_5  and  O_18
REMARK    5  A    between atoms: N_9  and  C_12
REMARK    6  A    between atoms: N_19  and  C_20
REMARK    7  A    between atoms: C_26  and  N_56
REMARK                            x       y       z     vdW  Elec       q    Type
REMARK                         _______ _______ _______ _____ _____    ______ ____
ROOT
ATOM      1  C   UNL     1       1.958   2.266  -1.249  0.00  0.00    +0.202 C 
ATOM      2  C   UNL     1       3.363   2.669  -1.397  0.00  0.00    +0.198 C 
ATOM      3  N   UNL     1       3.840   2.855  -2.617  0.00  0.00    -0.131 NA
ATOM      4  C   UNL     1       3.086   2.701  -3.702  0.00  0.00    +0.335 C 
ATOM      5  O   UNL     1       3.596   2.896  -4.791  0.00  0.00    -0.250 OA
ATOM      6  N   UNL     1       1.794   2.342  -3.661  0.00  0.00    -0.220 N 
ATOM      7  C   UNL     1       1.171   2.110  -2.486  0.00  0.00    +0.241 C 
ATOM      8  O   UNL     1      -0.001   1.785  -2.449  0.00  0.00    -0.274 OA
ENDROOT
BRANCH   6   9
ATOM      9  C   UNL     1       1.047   2.198  -4.913  0.00  0.00    +0.086 C 
ATOM     10  C   UNL     1       1.709   1.127  -5.782  0.00  0.00    +0.023 C 
ATOM     11  C   UNL     1       0.929   0.977  -7.090  0.00  0.00    +0.002 C 
ATOM     12  C   UNL     1       0.926   2.312  -7.838  0.00  0.00    +0.000 C 
ATOM     13  C   UNL     1       0.263   3.382  -6.969  0.00  0.00    +0.002 C 
ATOM     14  C   UNL     1       1.044   3.532  -5.662  0.00  0.00    +0.023 C 
ENDBRANCH   6   9
BRANCH   1  15
ATOM     15  C   UNL     1       1.395   2.047  -0.000  0.00  0.00    +0.034 C 
ATOM     16  N   UNL     1       2.103   2.315   1.113  0.00  0.00    -0.290 NA
BRANCH  16  17
ATOM     17  C   UNL     1       1.556   1.973   2.429  0.00  0.00    +0.091 C 
ATOM     18  C   UNL     1       0.646   3.104   2.912  0.00  0.00    +0.025 C 
ATOM     19  C   UNL     1       1.454   4.399   3.016  0.00  0.00    +0.002 C 
ATOM     20  C   UNL     1       2.601   4.206   4.011  0.00  0.00    -0.001 C 
ATOM     21  C   UNL     1       3.510   3.075   3.528  0.00  0.00    -0.014 C 
ATOM     22  C   UNL     1       2.702   1.780   3.423  0.00  0.00    -0.050 C 
BRANCH  22  25
ATOM     23  H   UNL     1       4.341   0.547   3.600  0.00  0.00    -0.090 HD
ATOM     24  H   UNL     1       3.051  -0.157   2.820  0.00  0.00    -0.090 HD
ATOM     25  N   UNL     1       3.583   0.704   2.937  0.00  0.00    +0.381 N 
ATOM     26  H   UNL     1       3.982   0.977   2.031  0.00  0.00    -0.090 HD
ENDBRANCH  22  25
ENDBRANCH  16  17
BRANCH  15  28
ATOM     27  C   UNL     1       0.020  -0.016   0.022  0.00  0.00    +0.010 C 
ATOM     28  C   UNL     1      -0.009   1.511   0.110  0.00  0.00    +0.048 C 
ENDBRANCH  15  28
ENDBRANCH   1  15
BRANCH   2  29
ATOM     29  O   UNL     1       4.150   2.839  -0.315  0.00  0.00    -0.496 OA
ATOM     30  H   UNL     1       5.056   3.104  -0.525  0.00  0.00    +0.293 HD
ENDBRANCH   2  29
TORSDOF 6
