REMARK  Name = ZINC38906862
REMARK  4 active torsions:
REMARK  status: ('A' for Active; 'I' for Inactive)
REMARK    1  A    between atoms: C_1  and  N_2
REMARK    2  A    between atoms: C_8  and  C_10
REMARK    3  A    between atoms: C_10  and  C_11
REMARK    4  A    between atoms: C_18  and  C_24
REMARK                            x       y       z     vdW  Elec       q    Type
REMARK                         _______ _______ _______ _____ _____    ______ ____
ROOT
ATOM      1  C   UNL     1      -0.018   1.461   0.010  0.00  0.00    +0.174 C 
ATOM      2  N   UNL     1       0.002  -0.004   0.002  0.00  0.00    -0.251 N 
ATOM      3  C   UNL     1       0.008  -0.791  -1.090  0.00  0.00    +0.129 A 
ATOM      4  C   UNL     1       0.041  -2.092  -0.665  0.00  0.00    +0.042 A 
ATOM      5  C   UNL     1       0.042  -2.089   0.727  0.00  0.00    +0.153 A 
ATOM      6  N   UNL     1       0.025  -0.837   1.132  0.00  0.00    -0.154 NA
ATOM      7  N   UNL     1       0.064  -3.222   1.552  0.00  0.00    -0.268 N 
ATOM      8  C   UNL     1       0.062  -3.079   2.892  0.00  0.00    +0.223 C 
ATOM      9  O   UNL     1       0.042  -1.970   3.384  0.00  0.00    -0.275 OA
ATOM     10  C   UNL     1       0.078  -3.254  -1.625  0.00  0.00    +0.071 C 
ATOM     11  C   UNL     1      -0.624  -2.831  -2.920  0.00  0.00    +0.109 C 
ATOM     12  C   UNL     1      -0.204  -1.451  -3.340  0.00  0.00    +0.219 C 
ATOM     13  O   UNL     1      -0.044  -1.219  -4.520  0.00  0.00    -0.275 OA
ATOM     14  N   UNL     1       0.001  -0.461  -2.445  0.00  0.00    -0.270 N 
ATOM     15  H   UNL     1       0.080  -4.108   1.159  0.00  0.00    +0.156 HD
ATOM     16  H   UNL     1       0.139   0.454  -2.737  0.00  0.00    +0.156 HD
ENDROOT
BRANCH  10  17
ATOM     17  C   UNL     1      -0.636  -4.435  -1.022  0.00  0.00    -0.002 A 
ATOM     18  C   UNL     1      -0.154  -5.669  -0.733  0.00  0.00    +0.012 A 
ATOM     19  C   UNL     1      -1.002  -6.606  -0.175  0.00  0.00    +0.008 A 
ATOM     20  C   UNL     1      -2.292  -6.265   0.068  0.00  0.00    +0.045 A 
ATOM     21  S   UNL     1      -2.336  -4.571  -0.493  0.00  0.00    -0.101 S 
ENDBRANCH  10  17
BRANCH   8  22
ATOM     22  C   UNL     1       0.085  -4.296   3.780  0.00  0.00    +0.131 C 
BRANCH  22  23
ATOM     23  C   UNL     1       0.079  -3.865   5.224  0.00  0.00    -0.038 A 
ATOM     24  C   UNL     1       1.273  -3.640   5.883  0.00  0.00    +0.007 A 
ATOM     25  C   UNL     1       1.268  -3.245   7.207  0.00  0.00    +0.038 A 
ATOM     26  C   UNL     1       0.066  -3.074   7.874  0.00  0.00    +0.123 A 
ATOM     27  C   UNL     1      -1.129  -3.300   7.212  0.00  0.00    +0.038 A 
ATOM     28  C   UNL     1      -1.122  -3.690   5.887  0.00  0.00    +0.007 A 
ATOM     29  F   UNL     1       0.060  -2.688   9.168  0.00  0.00    -0.205 F 
ENDBRANCH  22  23
ENDBRANCH   8  22
TORSDOF 3
