REMARK  Name = ZINC63679631
REMARK  11 active torsions:
REMARK  status: ('A' for Active; 'I' for Inactive)
REMARK    1  A    between atoms: C_1  and  C_2
REMARK    2  A    between atoms: C_4  and  C_37
REMARK    3  A    between atoms: C_5  and  S_9
REMARK    4  A    between atoms: C_6  and  C_8
REMARK    5  A    between atoms: S_9  and  N_12
REMARK    6  A    between atoms: C_17  and  C_19
REMARK    7  A    between atoms: C_19  and  N_20
REMARK    8  A    between atoms: C_21  and  C_23
REMARK    9  A    between atoms: N_25  and  C_26
REMARK   10  A    between atoms: C_26  and  C_27
REMARK   11  A    between atoms: C_27  and  C_28
REMARK                            x       y       z     vdW  Elec       q    Type
REMARK                         _______ _______ _______ _____ _____    ______ ____
ROOT
ATOM      1  N   UNL     1      -0.240  -1.731   1.488  0.00  0.00    -0.304 N 
ATOM      2  C   UNL     1      -1.190  -1.050   2.158  0.00  0.00    +0.299 C 
ATOM      3  O   UNL     1      -1.396  -1.289   3.330  0.00  0.00    -0.265 OA
ATOM      4  H   UNL     1      -0.025  -1.491   0.573  0.00  0.00    +0.149 HD
ENDROOT
BRANCH   2   5
ATOM      5  C   UNL     1      -1.990   0.001   1.458  0.00  0.00    +0.299 C 
ATOM      6  O   UNL     1      -1.849   0.177   0.266  0.00  0.00    -0.265 OA
ATOM      7  N   UNL     1      -2.868   0.752   2.151  0.00  0.00    -0.307 N 
ATOM      8  H   UNL     1      -2.981   0.612   3.104  0.00  0.00    +0.149 HD
BRANCH   7   9
ATOM      9  C   UNL     1      -3.653   1.782   1.465  0.00  0.00    +0.109 C 
BRANCH   9  10
ATOM     10  C   UNL     1      -4.565   2.484   2.473  0.00  0.00    +0.052 C 
BRANCH  10  11
ATOM     11  C   UNL     1      -5.372   3.543   1.767  0.00  0.00    -0.040 C 
ATOM     12  C   UNL     1      -6.625   3.417   1.274  0.00  0.00    -0.001 A 
ATOM     13  C   UNL     1      -7.575   2.299   1.248  0.00  0.00    +0.010 A 
ATOM     14  C   UNL     1      -8.785   2.479   0.670  0.00  0.00    +0.001 A 
ATOM     15  C   UNL     1      -9.152   3.704   0.095  0.00  0.00    +0.002 A 
ATOM     16  C   UNL     1      -8.333   4.777   0.080  0.00  0.00    +0.026 A 
ATOM     17  C   UNL     1      -7.037   4.700   0.661  0.00  0.00    +0.043 A 
ATOM     18  N   UNL     1      -6.076   5.585   0.771  0.00  0.00    -0.380 N 
ATOM     19  C   UNL     1      -4.947   4.965   1.471  0.00  0.00    +0.144 C 
ATOM     20  H   UNL     1      -6.108   6.499   0.446  0.00  0.00    +0.160 HD
ENDBRANCH  10  11
ENDBRANCH   9  10
ENDBRANCH   7   9
ENDBRANCH   2   5
BRANCH   1  21
ATOM     21  C   UNL     1       0.468  -2.835   2.141  0.00  0.00    +0.154 C 
BRANCH  21  27
ATOM     22  N   UNL     1       0.993  -3.680  -0.100  0.00  0.00    -0.147 NA
ATOM     23  C   UNL     1       1.913  -3.994  -1.205  0.00  0.00    +0.114 C 
ATOM     24  C   UNL     1       2.969  -2.884  -1.279  0.00  0.00    +0.045 C 
ATOM     25  C   UNL     1       3.589  -2.694   0.108  0.00  0.00    +0.163 C 
ATOM     26  O   UNL     1       2.566  -2.349   1.045  0.00  0.00    -0.358 OA
ATOM     27  C   UNL     1       1.568  -3.355   1.213  0.00  0.00    +0.226 C 
BRANCH  22  28
ATOM     28  S   UNL     1      -0.647  -3.687  -0.331  0.00  0.00    +0.064 S 
ATOM     29  O   UNL     1      -0.918  -2.729  -1.345  0.00  0.00    -0.153 OA
ATOM     30  O   UNL     1      -1.239  -3.621   0.959  0.00  0.00    -0.153 OA
BRANCH  28  35
ATOM     31  C   UNL     1      -2.099  -9.078  -2.620  0.00  0.00    +0.044 C 
ATOM     32  C   UNL     1      -1.737  -7.731  -2.049  0.00  0.00    -0.050 A 
ATOM     33  C   UNL     1      -1.525  -6.657  -2.892  0.00  0.00    +0.008 A 
ATOM     34  C   UNL     1      -1.192  -5.422  -2.367  0.00  0.00    -0.024 A 
ATOM     35  C   UNL     1      -1.072  -5.261  -1.000  0.00  0.00    +0.111 A 
ATOM     36  C   UNL     1      -1.285  -6.336  -0.156  0.00  0.00    -0.024 A 
ATOM     37  C   UNL     1      -1.622  -7.570  -0.680  0.00  0.00    +0.008 A 
ATOM     38  C   UNL     1      -1.153  -6.161   1.335  0.00  0.00    +0.046 C 
ATOM     39  C   UNL     1      -0.960  -4.250  -3.287  0.00  0.00    +0.046 C 
ENDBRANCH  28  35
ENDBRANCH  22  28
ENDBRANCH  21  27
ENDBRANCH   1  21
TORSDOF 8
