REMARK  Name = ZINC21918565
REMARK  4 active torsions:
REMARK  status: ('A' for Active; 'I' for Inactive)
REMARK    1  A    between atoms: C_1  and  C_2
REMARK    2  A    between atoms: N_10  and  N_14
REMARK    3  A    between atoms: C_15  and  C_17
REMARK    4  A    between atoms: C_17  and  C_18
REMARK                            x       y       z     vdW  Elec       q    Type
REMARK                         _______ _______ _______ _____ _____    ______ ____
ROOT
ATOM      1  N   UNL     1       4.241   5.840  -1.667  0.00  0.00    -0.223 N 
ATOM      2  C   UNL     1       2.929   6.013  -1.409  0.00  0.00    +0.234 C 
ATOM      3  O   UNL     1       2.129   6.029  -2.320  0.00  0.00    -0.274 OA
ATOM      4  H   UNL     1       4.967   5.825  -0.840  0.00  0.00    +0.174 HD
ENDROOT
BRANCH   1  14
ATOM      5  C   UNL     1       6.926   5.465  -9.126  0.00  0.00    +0.007 C 
ATOM      6  C   UNL     1       6.657   6.112  -7.766  0.00  0.00    -0.014 C 
ATOM      7  C   UNL     1       5.149   6.139  -7.504  0.00  0.00    +0.006 C 
ATOM      8  C   UNL     1       4.880   6.798  -6.148  0.00  0.00    +0.035 C 
ATOM      9  C   UNL     1       5.589   6.014  -5.050  0.00  0.00    +0.114 C 
ATOM     10  C   UNL     1       7.091   5.957  -5.310  0.00  0.00    +0.035 C 
ATOM     11  C   UNL     1       7.351   5.302  -6.669  0.00  0.00    +0.006 C 
ATOM     12  C   UNL     1       5.312   6.633  -3.699  0.00  0.00    +0.263 C 
ATOM     13  O   UNL     1       5.598   7.753  -3.332  0.00  0.00    -0.271 OA
ATOM     14  N   UNL     1       4.679   5.678  -2.987  0.00  0.00    -0.137 N 
ATOM     15  C   UNL     1       4.527   4.553  -3.698  0.00  0.00    +0.326 C 
ATOM     16  O   UNL     1       3.990   3.551  -3.270  0.00  0.00    -0.251 OA
ATOM     17  N   UNL     1       5.033   4.660  -4.941  0.00  0.00    -0.284 N 
ATOM     18  H   UNL     1       5.092   3.971  -5.798  0.00  0.00    +0.151 HD
ENDBRANCH   1  14
BRANCH   2  19
ATOM     19  C   UNL     1       2.458   6.188   0.012  0.00  0.00    +0.136 C 
BRANCH  19  20
ATOM     20  C   UNL     1       0.961   6.362   0.026  0.00  0.00    +0.007 A 
ATOM     21  C   UNL     1       0.283   7.522   0.039  0.00  0.00    +0.200 A 
ATOM     22  O   UNL     1      -1.038   7.280   0.050  0.00  0.00    -0.463 OA
ATOM     23  C   UNL     1      -1.284   5.954   0.045  0.00  0.00    +0.136 A 
ATOM     24  C   UNL     1      -0.047   5.303   0.030  0.00  0.00    +0.031 A 
ATOM     25  C   UNL     1      -0.006   3.847   0.023  0.00  0.00    -0.007 A 
ATOM     26  C   UNL     1       1.202   3.142   0.007  0.00  0.00    +0.009 A 
ATOM     27  C   UNL     1       1.189   1.778   0.000  0.00  0.00    +0.001 A 
ATOM     28  C   UNL     1      -0.013   1.076   0.008  0.00  0.00    +0.001 A 
ATOM     29  C   UNL     1      -1.207   1.731   0.017  0.00  0.00    +0.008 A 
ATOM     30  C   UNL     1      -1.230   3.135   0.031  0.00  0.00    -0.017 A 
ATOM     31  C   UNL     1      -2.445   3.846   0.046  0.00  0.00    +0.012 A 
ATOM     32  C   UNL     1      -2.465   5.202   0.053  0.00  0.00    +0.047 A 
ENDBRANCH  19  20
ENDBRANCH   2  19
TORSDOF 3
