REMARK  Name = ZINC15731173
REMARK  6 active torsions:
REMARK  status: ('A' for Active; 'I' for Inactive)
REMARK    1  A    between atoms: C_1  and  C_2
REMARK    2  A    between atoms: C_9  and  S_15
REMARK    3  A    between atoms: S_15  and  N_18
REMARK    4  A    between atoms: N_18  and  C_19
REMARK    5  A    between atoms: C_19  and  C_20
REMARK    6  A    between atoms: C_20  and  N_54
REMARK                            x       y       z     vdW  Elec       q    Type
REMARK                         _______ _______ _______ _____ _____    ______ ____
ROOT
ATOM      1  S   UNL     1      -0.356   0.875   2.682  0.00  0.00    +0.058 S 
ATOM      2  O   UNL     1      -1.151   1.557   3.643  0.00  0.00    -0.153 OA
ATOM      3  O   UNL     1      -0.422  -0.533   2.500  0.00  0.00    -0.153 OA
ENDROOT
BRANCH   1  11
ATOM      4  C   UNL     1       5.934   5.082   6.807  0.00  0.00    +0.018 C 
ATOM      5  C   UNL     1       5.438   4.413   5.524  0.00  0.00    +0.082 C 
ATOM      6  C   UNL     1       5.840   2.967   5.545  0.00  0.00    +0.087 C 
ATOM      7  S   UNL     1       5.673   2.147   3.966  0.00  0.00    -0.123 S 
ATOM      8  C   UNL     1       3.973   1.882   3.661  0.00  0.00    +0.029 A 
ATOM      9  C   UNL     1       3.639   0.717   2.956  0.00  0.00    +0.018 A 
ATOM     10  C   UNL     1       2.335   0.400   2.660  0.00  0.00    +0.030 A 
ATOM     11  C   UNL     1       1.323   1.256   3.056  0.00  0.00    +0.107 A 
ATOM     12  C   UNL     1       1.634   2.402   3.747  0.00  0.00    +0.053 A 
ATOM     13  C   UNL     1       2.960   2.738   4.066  0.00  0.00    +0.049 A 
ATOM     14  N   UNL     1       3.101   3.914   4.754  0.00  0.00    -0.284 N 
ATOM     15  C   UNL     1       3.964   4.590   5.427  0.00  0.00    +0.221 C 
ATOM     16  O   UNL     1       3.509   5.506   6.079  0.00  0.00    -0.275 OA
ATOM     17  H   UNL     1       2.265   4.405   4.723  0.00  0.00    +0.155 HD
ENDBRANCH   1  11
BRANCH   1  18
ATOM     18  N   UNL     1      -0.698   1.558   1.213  0.00  0.00    -0.192 NA
ATOM     19  H   UNL     1      -1.353   2.272   1.151  0.00  0.00    +0.148 HD
BRANCH  18  20
ATOM     20  C   UNL     1      -0.013   1.086   0.008  0.00  0.00    +0.087 C 
BRANCH  20  21
ATOM     21  C   UNL     1      -0.753   1.593  -1.232  0.00  0.00    -0.061 C 
BRANCH  21  31
ATOM     22  C   UNL     1      -0.871   1.382  -3.643  0.00  0.00    -0.074 C 
ATOM     23  C   UNL     1       0.022   1.216  -4.872  0.00  0.00    +0.017 C 
ATOM     24  C   UNL     1       0.756  -0.099  -4.802  0.00  0.00    -0.048 A 
ATOM     25  C   UNL     1       1.334  -0.596  -5.960  0.00  0.00    +0.004 A 
ATOM     26  C   UNL     1       2.018  -1.795  -5.939  0.00  0.00    +0.000 A 
ATOM     27  C   UNL     1       2.128  -2.503  -4.756  0.00  0.00    +0.000 A 
ATOM     28  C   UNL     1       1.551  -2.010  -3.603  0.00  0.00    +0.002 A 
ATOM     29  C   UNL     1       0.862  -0.806  -3.624  0.00  0.00    -0.061 A 
ATOM     30  C   UNL     1       0.247  -0.310  -2.341  0.00  0.00    -0.043 C 
ATOM     31  N   UNL     1      -0.044   1.129  -2.446  0.00  0.00    +0.383 N 
ATOM     32  H   UNL     1       0.840   1.645  -2.534  0.00  0.00    -0.081 HD
ENDBRANCH  21  31
ENDBRANCH  20  21
ENDBRANCH  18  20
ENDBRANCH   1  18
TORSDOF 5
