REMARK  Name = ZINC36024489
REMARK  12 active torsions:
REMARK  status: ('A' for Active; 'I' for Inactive)
REMARK    1  A    between atoms: C_1  and  C_2
REMARK    2  A    between atoms: C_2  and  C_3
REMARK    3  A    between atoms: C_2  and  C_4
REMARK    4  A    between atoms: N_8  and  C_26
REMARK    5  A    between atoms: N_13  and  S_16
REMARK    6  A    between atoms: S_16  and  C_19
REMARK    7  A    between atoms: C_26  and  C_27
REMARK    8  A    between atoms: C_27  and  C_28
REMARK    9  A    between atoms: C_31  and  O_36
REMARK   10  A    between atoms: C_32  and  O_34
REMARK   11  A    between atoms: O_34  and  C_35
REMARK   12  A    between atoms: O_36  and  C_37
REMARK                            x       y       z     vdW  Elec       q    Type
REMARK                         _______ _______ _______ _____ _____    ______ ____
ROOT
ATOM      1  C   UNL     1      -1.173   1.132   0.635  0.00  0.00    +0.022 C 
ATOM      2  C   UNL     1      -1.887   1.220   1.967  0.00  0.00    +0.201 C 
ATOM      3  O   UNL     1      -1.854   2.163   2.728  0.00  0.00    -0.277 OA
ATOM      4  N   UNL     1      -2.566   0.071   2.165  0.00  0.00    -0.313 N 
ATOM      5  C   UNL     1      -2.364  -0.821   1.020  0.00  0.00    +0.006 C 
ATOM      6  N   UNL     1      -1.178  -0.311   0.295  0.00  0.00    +0.401 N 
ATOM      7  C   UNL     1      -2.103  -2.247   1.500  0.00  0.00    +0.023 C 
ATOM      8  C   UNL     1      -3.321  -2.752   2.280  0.00  0.00    +0.109 C 
ATOM      9  N   UNL     1      -4.517  -2.597   1.440  0.00  0.00    -0.177 NA
ATOM     10  C   UNL     1      -4.814  -1.277   0.868  0.00  0.00    +0.109 C 
ATOM     11  C   UNL     1      -3.583  -0.784   0.100  0.00  0.00    +0.023 C 
ATOM     12  H   UNL     1      -1.284  -0.442  -0.700  0.00  0.00    -0.082 HD
ATOM     13  H   UNL     1      -0.338  -0.759   0.628  0.00  0.00    -0.082 HD
ENDROOT
BRANCH   1  15
ATOM     14  C   UNL     1       0.243   3.123   1.155  0.00  0.00    +0.006 C 
ATOM     15  C   UNL     1       0.263   1.644   0.765  0.00  0.00    -0.023 C 
ATOM     16  C   UNL     1       0.994   0.842   1.844  0.00  0.00    +0.006 C 
ENDBRANCH   1  15
BRANCH   9  17
ATOM     17  S   UNL     1      -5.511  -3.888   1.143  0.00  0.00    +0.061 S 
ATOM     18  O   UNL     1      -6.077  -3.677  -0.144  0.00  0.00    -0.153 OA
ATOM     19  O   UNL     1      -4.769  -5.055   1.467  0.00  0.00    -0.153 OA
BRANCH  17  20
ATOM     20  C   UNL     1      -6.840  -3.799   2.297  0.00  0.00    +0.106 A 
ATOM     21  C   UNL     1      -6.710  -4.378   3.546  0.00  0.00    +0.031 A 
ATOM     22  C   UNL     1      -7.751  -4.308   4.452  0.00  0.00    +0.040 A 
ATOM     23  C   UNL     1      -8.924  -3.658   4.109  0.00  0.00    +0.124 A 
ATOM     24  C   UNL     1      -9.053  -3.078   2.858  0.00  0.00    +0.040 A 
ATOM     25  C   UNL     1      -8.009  -3.145   1.955  0.00  0.00    +0.031 A 
ATOM     26  F   UNL     1      -9.942  -3.589   4.994  0.00  0.00    -0.205 F 
ENDBRANCH  17  20
ENDBRANCH   9  17
BRANCH   4  27
ATOM     27  C   UNL     1      -3.380  -0.238   3.343  0.00  0.00    +0.110 C 
BRANCH  27  28
ATOM     28  C   UNL     1      -2.493  -0.845   4.432  0.00  0.00    +0.054 C 
BRANCH  28  29
ATOM     29  C   UNL     1      -3.300  -1.037   5.689  0.00  0.00    -0.042 A 
ATOM     30  C   UNL     1      -3.490   0.023   6.556  0.00  0.00    +0.007 A 
ATOM     31  C   UNL     1      -4.230  -0.148   7.711  0.00  0.00    +0.049 A 
ATOM     32  C   UNL     1      -4.785  -1.385   8.002  0.00  0.00    +0.161 A 
ATOM     33  C   UNL     1      -4.594  -2.452   7.129  0.00  0.00    +0.162 A 
ATOM     34  C   UNL     1      -3.855  -2.272   5.971  0.00  0.00    +0.053 A 
BRANCH  33  35
ATOM     35  O   UNL     1      -5.136  -3.667   7.410  0.00  0.00    -0.491 OA
ATOM     36  C   UNL     1      -4.811  -4.742   6.527  0.00  0.00    +0.277 C 
ENDBRANCH  33  35
BRANCH  32  37
ATOM     37  O   UNL     1      -5.513  -1.555   9.138  0.00  0.00    -0.491 OA
ATOM     38  C   UNL     1      -5.666  -0.416   9.987  0.00  0.00    +0.277 C 
ENDBRANCH  32  37
ENDBRANCH  28  29
ENDBRANCH  27  28
ENDBRANCH   4  27
TORSDOF 8
