REMARK  Name = ZINC13063920
REMARK  12 active torsions:
REMARK  status: ('A' for Active; 'I' for Inactive)
REMARK    1  A    between atoms: C_1  and  C_2
REMARK    2  A    between atoms: C_2  and  C_3
REMARK    3  A    between atoms: C_3  and  C_5
REMARK    4  A    between atoms: C_3  and  N_69
REMARK    5  A    between atoms: N_9  and  C_10
REMARK    6  A    between atoms: C_10  and  C_11
REMARK    7  A    between atoms: C_17  and  C_18
REMARK    8  A    between atoms: C_17  and  N_69
REMARK    9  A    between atoms: C_21  and  C_24
REMARK   10  A    between atoms: C_25  and  C_26
REMARK   11  A    between atoms: C_25  and  N_69
REMARK   12  A    between atoms: C_31  and  C_38
REMARK                            x       y       z     vdW  Elec       q    Type
REMARK                         _______ _______ _______ _____ _____    ______ ____
ROOT
ATOM      1  N   UNL     1      -1.195   0.504  -1.257  0.00  0.00    +0.392 N 
ATOM      2  H   UNL     1      -2.143   0.887  -1.168  0.00  0.00    -0.080 HD
ENDROOT
BRANCH   1   3
ATOM      3  C   UNL     1      -0.363   1.016  -0.147  0.00  0.00    +0.003 C 
BRANCH   3   4
ATOM      4  C   UNL     1      -1.216   1.101   1.092  0.00  0.00    +0.138 A 
ATOM      5  N   UNL     1      -2.458   0.703   1.217  0.00  0.00    -0.115 NA
ATOM      6  N   UNL     1      -2.834   0.943   2.426  0.00  0.00    -0.023 NA
ATOM      7  N   UNL     1      -1.866   1.492   3.073  0.00  0.00    -0.044 NA
ATOM      8  N   UNL     1      -0.850   1.606   2.285  0.00  0.00    -0.226 N 
BRANCH   8   9
ATOM      9  C   UNL     1       0.455   2.179   2.625  0.00  0.00    +0.182 C 
BRANCH   9  10
ATOM     10  C   UNL     1       0.444   3.658   2.339  0.00  0.00    -0.026 A 
ATOM     11  C   UNL     1       0.828   4.124   1.095  0.00  0.00    +0.005 A 
ATOM     12  C   UNL     1       0.814   5.481   0.831  0.00  0.00    +0.000 A 
ATOM     13  C   UNL     1       0.425   6.372   1.813  0.00  0.00    +0.000 A 
ATOM     14  C   UNL     1       0.046   5.907   3.058  0.00  0.00    +0.000 A 
ATOM     15  C   UNL     1       0.056   4.550   3.321  0.00  0.00    +0.005 A 
ENDBRANCH   9  10
ENDBRANCH   8   9
ENDBRANCH   3   4
BRANCH   3  17
ATOM     16  C   UNL     1       1.653  -0.052  -1.167  0.00  0.00    +0.002 C 
ATOM     17  C   UNL     1       0.819   0.080   0.110  0.00  0.00    -0.011 C 
ENDBRANCH   3  17
ENDBRANCH   1   3
BRANCH   1  18
ATOM     18  C   UNL     1      -0.625   0.931  -2.553  0.00  0.00    -0.042 C 
BRANCH  18  19
ATOM     19  C   UNL     1      -1.700   0.839  -3.606  0.00  0.00    -0.064 A 
ATOM     20  C   UNL     1      -1.711  -0.224  -4.490  0.00  0.00    +0.002 A 
ATOM     21  C   UNL     1      -2.700  -0.311  -5.453  0.00  0.00    +0.003 A 
ATOM     22  C   UNL     1      -3.670   0.669  -5.538  0.00  0.00    -0.050 A 
ATOM     23  C   UNL     1      -3.656   1.734  -4.657  0.00  0.00    +0.003 A 
ATOM     24  C   UNL     1      -2.670   1.819  -3.691  0.00  0.00    +0.002 A 
ATOM     25  C   UNL     1      -4.745   0.577  -6.590  0.00  0.00    +0.044 C 
ENDBRANCH  18  19
ENDBRANCH   1  18
BRANCH   1  26
ATOM     26  C   UNL     1      -1.264  -0.971  -1.198  0.00  0.00    -0.036 C 
BRANCH  26  27
ATOM     27  C   UNL     1      -2.400  -1.361  -0.286  0.00  0.00    +0.001 A 
ATOM     28  C   UNL     1      -3.623  -1.628  -0.807  0.00  0.00    +0.017 A 
ATOM     29  C   UNL     1      -4.704  -2.004   0.105  0.00  0.00    -0.001 A 
ATOM     30  C   UNL     1      -5.987  -2.291  -0.373  0.00  0.00    +0.010 A 
ATOM     31  C   UNL     1      -6.974  -2.640   0.504  0.00  0.00    +0.004 A 
ATOM     32  C   UNL     1      -6.716  -2.712   1.867  0.00  0.00    -0.048 A 
ATOM     33  C   UNL     1      -5.460  -2.434   2.360  0.00  0.00    +0.029 A 
ATOM     34  C   UNL     1      -4.438  -2.077   1.485  0.00  0.00    +0.049 A 
ATOM     35  N   UNL     1      -3.172  -1.794   1.951  0.00  0.00    -0.322 N 
ATOM     36  H   UNL     1      -2.990  -1.844   2.903  0.00  0.00    +0.169 HD
ATOM     37  C   UNL     1      -2.184  -1.454   1.105  0.00  0.00    +0.251 A 
ATOM     38  O   UNL     1      -1.075  -1.215   1.552  0.00  0.00    -0.268 OA
ATOM     39  C   UNL     1      -7.821  -3.099   2.816  0.00  0.00    +0.044 C 
ENDBRANCH  26  27
ENDBRANCH   1  26
TORSDOF 9
