REMARK  Name = ZINC39923322
REMARK  7 active torsions:
REMARK  status: ('A' for Active; 'I' for Inactive)
REMARK    1  A    between atoms: C_7  and  C_10
REMARK    2  A    between atoms: N_11  and  N_12
REMARK    3  A    between atoms: C_13  and  C_15
REMARK    4  A    between atoms: C_15  and  S_16
REMARK    5  A    between atoms: S_16  and  C_17
REMARK    6  A    between atoms: C_21  and  C_30
REMARK    7  A    between atoms: N_23  and  C_24
REMARK                            x       y       z     vdW  Elec       q    Type
REMARK                         _______ _______ _______ _____ _____    ______ ____
ROOT
ATOM      1  C   UNL     1      -0.701 -10.795   0.042  0.00  0.00    +0.078 C 
ATOM      2  N   UNL     1      -1.687 -10.589   1.127  0.00  0.00    -0.262 NA
ATOM      3  N   UNL     1      -2.705  -9.707   0.536  0.00  0.00    -0.267 NA
ATOM      4  C   UNL     1      -2.808 -10.202  -0.862  0.00  0.00    +0.050 C 
ATOM      5  N   UNL     1      -1.415 -10.550  -1.229  0.00  0.00    +0.412 N 
ATOM      6  H   UNL     1      -2.093 -11.466   1.417  0.00  0.00    +0.140 HD
ATOM      7  H   UNL     1      -3.587  -9.799   1.017  0.00  0.00    +0.139 HD
ATOM      8  H   UNL     1      -0.985  -9.784  -1.725  0.00  0.00    -0.075 HD
ENDROOT
BRANCH   4   9
ATOM      9  C   UNL     1      -3.340  -9.121  -1.767  0.00  0.00    -0.046 A 
ATOM     10  C   UNL     1      -2.473  -8.204  -2.331  0.00  0.00    +0.005 A 
ATOM     11  C   UNL     1      -2.960  -7.212  -3.161  0.00  0.00    +0.020 A 
ATOM     12  C   UNL     1      -4.316  -7.137  -3.428  0.00  0.00    +0.041 A 
ATOM     13  C   UNL     1      -5.183  -8.056  -2.863  0.00  0.00    +0.020 A 
ATOM     14  C   UNL     1      -4.694  -9.050  -2.038  0.00  0.00    +0.005 A 
ATOM     15 CL   UNL     1      -4.929  -5.891  -4.470  0.00  0.00    -0.084 Cl
ENDBRANCH   4   9
BRANCH   5  16
ATOM     16  C   UNL     1      -1.398 -11.763  -2.058  0.00  0.00    -0.062 C 
ATOM     17  C   UNL     1       0.044 -12.099  -2.442  0.00  0.00    -0.015 C 
ATOM     18  C   UNL     1       0.061 -13.362  -3.306  0.00  0.00    -0.002 C 
ATOM     19  C   UNL     1      -0.762 -13.124  -4.573  0.00  0.00    -0.000 C 
ATOM     20  C   UNL     1      -2.205 -12.789  -4.189  0.00  0.00    -0.002 C 
ATOM     21  C   UNL     1      -2.222 -11.526  -3.325  0.00  0.00    -0.015 C 
ENDBRANCH   5  16
BRANCH   1  22
ATOM     22  S   UNL     1       0.672  -9.623   0.219  0.00  0.00    -0.150 S 
BRANCH  22  23
ATOM     23  C   UNL     1      -0.130  -7.997   0.176  0.00  0.00    +0.166 C 
BRANCH  23  25
ATOM     24  N   UNL     1       0.546  -5.621   0.310  0.00  0.00    -0.206 N 
ATOM     25  C   UNL     1       0.913  -6.918   0.316  0.00  0.00    +0.242 C 
ATOM     26  O   UNL     1       2.082  -7.217   0.433  0.00  0.00    -0.273 OA
ATOM     27  H   UNL     1      -0.390  -5.382   0.216  0.00  0.00    +0.177 HD
BRANCH  24  29
ATOM     28  C   UNL     1       1.159  -3.359   0.435  0.00  0.00    +0.136 C 
ATOM     29  N   UNL     1       1.515  -4.619   0.440  0.00  0.00    -0.188 NA
BRANCH  28  36
ATOM     30  C   UNL     1       0.849   1.164   0.520  0.00  0.00    +0.001 A 
ATOM     31  C   UNL     1       2.082   1.806   0.669  0.00  0.00    +0.002 A 
ATOM     32  C   UNL     1       3.241   1.114   0.774  0.00  0.00    +0.026 A 
ATOM     33  C   UNL     1       3.222  -0.306   0.735  0.00  0.00    +0.043 A 
ATOM     34  N   UNL     1       4.191  -1.193   0.815  0.00  0.00    -0.380 N 
ATOM     35  C   UNL     1       3.623  -2.541   0.719  0.00  0.00    +0.150 C 
ATOM     36  C   UNL     1       2.129  -2.355   0.565  0.00  0.00    +0.000 C 
ATOM     37  C   UNL     1       1.920  -0.978   0.579  0.00  0.00    +0.004 A 
ATOM     38  C   UNL     1       0.753  -0.189   0.474  0.00  0.00    +0.010 A 
ATOM     39  H   UNL     1       5.133  -0.987   0.921  0.00  0.00    +0.160 HD
ENDBRANCH  28  36
ENDBRANCH  24  29
ENDBRANCH  23  25
ENDBRANCH  22  23
ENDBRANCH   1  22
TORSDOF 7
