REMARK  Name = ZINC04871884
REMARK  6 active torsions:
REMARK  status: ('A' for Active; 'I' for Inactive)
REMARK    1  A    between atoms: C_1  and  C_2
REMARK    2  A    between atoms: C_6  and  C_27
REMARK    3  A    between atoms: C_13  and  N_15
REMARK    4  A    between atoms: C_16  and  C_18
REMARK    5  A    between atoms: C_18  and  O_19
REMARK    6  A    between atoms: O_19  and  C_20
REMARK                            x       y       z     vdW  Elec       q    Type
REMARK                         _______ _______ _______ _____ _____    ______ ____
ROOT
ATOM      1  C   UNL     1      -0.378   1.936   0.248  0.00  0.00    +0.044 C 
ATOM      2  C   UNL     1      -0.339   0.437   0.098  0.00  0.00    -0.048 A 
ATOM      3  C   UNL     1      -0.411  -0.127  -1.174  0.00  0.00    +0.004 A 
ATOM      4  C   UNL     1      -0.378  -1.478  -1.344  0.00  0.00    +0.012 A 
ATOM      5  C   UNL     1      -0.270  -2.313  -0.223  0.00  0.00    +0.022 A 
ATOM      6  C   UNL     1      -0.231  -3.716  -0.337  0.00  0.00    +0.051 A 
ATOM      7  N   UNL     1      -0.128  -4.432   0.763  0.00  0.00    -0.217 NA
ATOM      8  C   UNL     1      -0.061  -3.860   1.964  0.00  0.00    +0.231 A 
ATOM      9  N   UNL     1      -0.094  -2.553   2.131  0.00  0.00    -0.212 NA
ATOM     10  C   UNL     1      -0.196  -1.740   1.073  0.00  0.00    +0.077 A 
ATOM     11  C   UNL     1      -0.228  -0.345   1.208  0.00  0.00    +0.032 A 
ATOM     12  N   UNL     1       0.046  -4.672   3.082  0.00  0.00    -0.293 N 
ATOM     13  C   UNL     1       0.199  -6.038   2.933  0.00  0.00    +0.226 C 
ATOM     14  N   UNL     1       0.190  -6.815   3.983  0.00  0.00    -0.266 NA
ATOM     15  C   UNL     1      -0.306  -4.382  -1.687  0.00  0.00    +0.066 C 
ATOM     16  H   UNL     1       0.014  -4.282   3.970  0.00  0.00    +0.172 HD
ATOM     17  H   UNL     1       0.150  -6.429   4.872  0.00  0.00    +0.190 HD
ENDROOT
BRANCH  13  18
ATOM     18  N   UNL     1       0.357  -6.573   1.692  0.00  0.00    -0.175 NA
ATOM     19  C   UNL     1       0.387  -7.868   1.539  0.00  0.00    +0.287 C 
ATOM     20  O   UNL     1       0.133  -8.674   2.585  0.00  0.00    -0.267 OA
BRANCH  19  21
ATOM     21  C   UNL     1       0.706  -8.460   0.190  0.00  0.00    +0.329 C 
BRANCH  21  22
ATOM     22  O   UNL     1       1.071  -7.416  -0.714  0.00  0.00    -0.482 OA
BRANCH  22  23
ATOM     23  C   UNL     1       1.296  -7.770  -2.007  0.00  0.00    +0.121 A 
ATOM     24  C   UNL     1       1.053  -9.071  -2.423  0.00  0.00    +0.047 A 
ATOM     25  C   UNL     1       1.282  -9.429  -3.737  0.00  0.00    +0.023 A 
ATOM     26  C   UNL     1       1.754  -8.492  -4.639  0.00  0.00    +0.041 A 
ATOM     27  C   UNL     1       1.998  -7.194  -4.226  0.00  0.00    +0.023 A 
ATOM     28  C   UNL     1       1.764  -6.830  -2.914  0.00  0.00    +0.047 A 
ATOM     29 CL   UNL     1       2.043  -8.944  -6.290  0.00  0.00    -0.084 Cl
ENDBRANCH  22  23
ENDBRANCH  21  22
ENDBRANCH  19  21
ENDBRANCH  13  18
TORSDOF 4
