REMARK  Name = ZINC00969240
REMARK  8 active torsions:
REMARK  status: ('A' for Active; 'I' for Inactive)
REMARK    1  A    between atoms: C_1  and  C_2
REMARK    2  A    between atoms: C_2  and  C_3
REMARK    3  A    between atoms: C_2  and  C_4
REMARK    4  A    between atoms: C_2  and  O_28
REMARK    5  A    between atoms: C_5  and  C_6
REMARK    6  A    between atoms: C_9  and  C_11
REMARK    7  A    between atoms: C_16  and  C_19
REMARK    8  A    between atoms: C_16  and  N_22
REMARK                            x       y       z     vdW  Elec       q    Type
REMARK                         _______ _______ _______ _____ _____    ______ ____
ROOT
ATOM      1  C   UNL     1      -4.892  -3.592   0.153  0.00  0.00    +0.282 C 
ATOM      2  O   UNL     1      -6.018  -3.141   0.255  0.00  0.00    -0.267 OA
ATOM      3  N   UNL     1      -4.707  -4.920   0.018  0.00  0.00    -0.295 N 
ATOM      4  C   UNL     1      -3.356  -5.496   0.058  0.00  0.00    +0.107 C 
ATOM      5  C   UNL     1      -3.324  -6.605   1.114  0.00  0.00    +0.016 C 
ATOM      6  C   UNL     1      -4.431  -7.619   0.817  0.00  0.00    +0.015 C 
ATOM      7  C   UNL     1      -5.793  -6.925   0.887  0.00  0.00    +0.016 C 
ATOM      8  C   UNL     1      -5.854  -5.820  -0.166  0.00  0.00    +0.107 C 
ENDROOT
BRANCH   6   9
ATOM      9  N   UNL     1      -4.382  -8.702   1.809  0.00  0.00    +0.389 N 
ATOM     10  C   UNL     1      -3.076  -9.368   1.740  0.00  0.00    -0.077 C 
ATOM     11  C   UNL     1      -2.989 -10.443   2.825  0.00  0.00    -0.019 C 
ATOM     12  C   UNL     1      -4.101 -11.473   2.606  0.00  0.00    -0.004 C 
ATOM     13  C   UNL     1      -5.454 -10.756   2.606  0.00  0.00    -0.019 C 
ATOM     14  C   UNL     1      -5.450  -9.669   1.529  0.00  0.00    -0.077 C 
ATOM     15  H   UNL     1      -4.512  -8.317   2.733  0.00  0.00    -0.080 HD
ENDBRANCH   6   9
BRANCH   1  19
ATOM     16  C   UNL     1      -1.668  -1.958   0.046  0.00  0.00    +0.179 A 
ATOM     17  C   UNL     1      -2.458  -0.874   0.364  0.00  0.00    +0.059 A 
ATOM     18  C   UNL     1      -3.773  -1.340   0.447  0.00  0.00    +0.056 A 
ATOM     19  C   UNL     1      -3.737  -2.691   0.177  0.00  0.00    +0.191 A 
ATOM     20  O   UNL     1      -2.457  -3.040  -0.068  0.00  0.00    -0.442 OA
BRANCH  16  22
ATOM     21  C   UNL     1       0.916  -1.913  -0.288  0.00  0.00    -0.060 C 
ATOM     22  C   UNL     1      -0.248  -1.933  -0.137  0.00  0.00    -0.026 C 
BRANCH  21  24
ATOM     23  C   UNL     1       2.894  -0.465  -0.258  0.00  0.00    +0.055 C 
ATOM     24  C   UNL     1       2.376  -1.887  -0.476  0.00  0.00    +0.121 C 
ATOM     25  C   UNL     1       3.037  -2.831   0.530  0.00  0.00    +0.055 C 
BRANCH  24  26
ATOM     26  O   UNL     1       2.692  -2.310  -1.804  0.00  0.00    -0.377 OA
ATOM     27  H   UNL     1       2.305  -1.756  -2.496  0.00  0.00    +0.211 HD
ENDBRANCH  24  26
ENDBRANCH  21  24
ENDBRANCH  16  22
ENDBRANCH   1  19
BRANCH   6  28
ATOM     28  C   UNL     1      -4.230  -8.193  -0.562  0.00  0.00    +0.200 C 
ATOM     29  O   UNL     1      -3.174  -8.034  -1.136  0.00  0.00    -0.278 OA
ATOM     30  N   UNL     1      -5.224  -8.882  -1.157  0.00  0.00    -0.330 N 
ATOM     31  H   UNL     1      -6.092  -8.947  -0.729  0.00  0.00    +0.145 HD
ATOM     32  H   UNL     1      -5.071  -9.313  -2.012  0.00  0.00    +0.145 HD
ENDBRANCH   6  28
TORSDOF 6
