REMARK  Name = ZINC05578219
REMARK  5 active torsions:
REMARK  status: ('A' for Active; 'I' for Inactive)
REMARK    1  A    between atoms: C_1  and  C_2
REMARK    2  A    between atoms: N_13  and  N_14
REMARK    3  A    between atoms: C_15  and  C_17
REMARK    4  A    between atoms: C_20  and  O_24
REMARK    5  A    between atoms: C_22  and  O_23
REMARK                            x       y       z     vdW  Elec       q    Type
REMARK                         _______ _______ _______ _____ _____    ______ ____
ROOT
ATOM      1  C   UNL     1      12.100   6.538   1.173  0.00  0.00    +0.045 C 
ATOM      2  C   UNL     1      11.039   6.040   2.120  0.00  0.00    -0.036 A 
ATOM      3  C   UNL     1       9.867   5.504   1.624  0.00  0.00    +0.016 A 
ATOM      4  C   UNL     1       8.892   5.046   2.502  0.00  0.00    +0.028 A 
ATOM      5  C   UNL     1       9.091   5.125   3.887  0.00  0.00    +0.044 A 
ATOM      6  C   UNL     1      10.276   5.668   4.369  0.00  0.00    +0.039 A 
ATOM      7  C   UNL     1      11.240   6.120   3.488  0.00  0.00    +0.023 A 
ATOM      8 BR   UNL     1      12.849   6.856   4.157  0.00  0.00    -0.050 Br
ATOM      9  N   UNL     1       7.979   4.606   4.541  0.00  0.00    -0.280 N 
ATOM     10  C   UNL     1       7.045   4.191   3.669  0.00  0.00    +0.269 C 
ATOM     11  O   UNL     1       5.969   3.699   3.953  0.00  0.00    -0.268 OA
ATOM     12  C   UNL     1       7.558   4.433   2.306  0.00  0.00    +0.153 C 
ATOM     13  N   UNL     1       6.960   4.168   1.169  0.00  0.00    -0.174 NA
ATOM     14  H   UNL     1       7.952   4.577   5.640  0.00  0.00    +0.155 HD
ENDROOT
BRANCH  13  15
ATOM     15  N   UNL     1       5.688   3.581   1.167  0.00  0.00    -0.202 N 
ATOM     16  C   UNL     1       5.073   3.309  -0.001  0.00  0.00    +0.267 C 
ATOM     17  O   UNL     1       5.623   3.573  -1.054  0.00  0.00    -0.268 OA
ATOM     18  H   UNL     1       5.190   3.343   2.119  0.00  0.00    +0.178 HD
BRANCH  16  19
ATOM     19  C   UNL     1       3.736   2.693  -0.004  0.00  0.00    +0.080 A 
ATOM     20  C   UNL     1       3.101   2.388   1.205  0.00  0.00    +0.020 A 
ATOM     21  C   UNL     1       1.859   1.821   1.201  0.00  0.00    +0.046 A 
ATOM     22  C   UNL     1       1.221   1.532  -0.001  0.00  0.00    +0.120 A 
ATOM     23  C   UNL     1       1.837   1.827  -1.209  0.00  0.00    +0.091 A 
ATOM     24  C   UNL     1       3.094   2.408  -1.219  0.00  0.00    +0.132 A 
BRANCH  24  25
ATOM     25  O   UNL     1       3.701   2.699  -2.397  0.00  0.00    -0.506 OA
ATOM     26  H   UNL     1       3.194   2.475  -3.347  0.00  0.00    +0.292 HD
ENDBRANCH  24  25
BRANCH  22  27
ATOM     27  O   UNL     1      -0.011   0.963   0.007  0.00  0.00    -0.507 OA
ATOM     28  H   UNL     1      -0.517   0.733  -0.942  0.00  0.00    +0.292 HD
ENDBRANCH  22  27
ENDBRANCH  16  19
ENDBRANCH  13  15
TORSDOF 4
