REMARK  Name = ZINC25783860
REMARK  5 active torsions:
REMARK  status: ('A' for Active; 'I' for Inactive)
REMARK    1  A    between atoms: N_10  and  C_11
REMARK    2  A    between atoms: C_11  and  C_12
REMARK    3  A    between atoms: C_13  and  C_23
REMARK    4  A    between atoms: N_25  and  N_26
REMARK    5  A    between atoms: C_27  and  C_28
REMARK                            x       y       z     vdW  Elec       q    Type
REMARK                         _______ _______ _______ _____ _____    ______ ____
ROOT
ATOM      1  C   UNL     1       2.449   4.729  -2.545  0.00  0.00    +0.096 A 
ATOM      2  C   UNL     1       2.343   3.508  -1.943  0.00  0.00    +0.174 A 
ATOM      3  N   UNL     1       3.368   2.740  -2.353  0.00  0.00    -0.124 NA
ATOM      4  N   UNL     1       4.100   3.404  -3.179  0.00  0.00    -0.058 NA
ATOM      5  N   UNL     1       3.550   4.685  -3.328  0.00  0.00    -0.190 N 
ATOM      6  C   UNL     1       4.045   5.718  -4.132  0.00  0.00    +0.240 A 
ATOM      7  C   UNL     1       5.242   5.650  -4.975  0.00  0.00    +0.206 A 
ATOM      8  N   UNL     1       5.387   6.800  -5.574  0.00  0.00    -0.032 NA
ATOM      9  O   UNL     1       4.324   7.641  -5.162  0.00  0.00    -0.239 OA
ATOM     10  N   UNL     1       3.517   6.901  -4.264  0.00  0.00    -0.027 NA
ATOM     11  N   UNL     1       6.080   4.549  -5.112  0.00  0.00    -0.337 N 
ATOM     12  H   UNL     1       6.956   4.604  -5.774  0.00  0.00    +0.144 HD
ATOM     13  H   UNL     1       5.866   3.623  -4.558  0.00  0.00    +0.144 HD
ENDROOT
BRANCH   2  14
ATOM     14  C   UNL     1       1.286   3.101  -0.998  0.00  0.00    +0.285 C 
ATOM     15  O   UNL     1       0.397   3.879  -0.709  0.00  0.00    -0.267 OA
ATOM     16  N   UNL     1       1.306   1.867  -0.455  0.00  0.00    -0.202 N 
ATOM     17  H   UNL     1       2.062   1.136  -0.778  0.00  0.00    +0.178 HD
BRANCH  16  18
ATOM     18  N   UNL     1       0.364   1.517   0.521  0.00  0.00    -0.187 NA
ATOM     19  C   UNL     1       0.453   0.372   1.127  0.00  0.00    +0.139 C 
BRANCH  19  20
ATOM     20  C   UNL     1       1.657  -0.461   0.955  0.00  0.00    +0.013 A 
ATOM     21  C   UNL     1       2.886   0.134   0.659  0.00  0.00    +0.012 A 
ATOM     22  C   UNL     1       4.008  -0.651   0.500  0.00  0.00    +0.021 A 
ATOM     23  C   UNL     1       3.920  -2.028   0.632  0.00  0.00    +0.042 A 
ATOM     24  C   UNL     1       2.705  -2.624   0.925  0.00  0.00    +0.040 A 
ATOM     25  C   UNL     1       1.575  -1.850   1.093  0.00  0.00    +0.051 A 
ATOM     26 CL   UNL     1       0.054  -2.599   1.467  0.00  0.00    -0.083 Cl
ATOM     27 CL   UNL     1       5.338  -3.008   0.430  0.00  0.00    -0.083 Cl
ENDBRANCH  19  20
ENDBRANCH  16  18
ENDBRANCH   2  14
BRANCH   1  28
ATOM     28  C   UNL     1       1.518   5.901  -2.370  0.00  0.00    +0.163 C 
BRANCH  28  38
ATOM     29  C   UNL     1      -2.207   8.989  -2.836  0.00  0.00    +0.000 A 
ATOM     30  C   UNL     1      -0.889   9.127  -2.441  0.00  0.00    +0.002 A 
ATOM     31  C   UNL     1       0.006   8.102  -2.658  0.00  0.00    +0.023 A 
ATOM     32  C   UNL     1      -0.409   6.920  -3.275  0.00  0.00    +0.033 A 
ATOM     33  C   UNL     1      -1.730   6.785  -3.663  0.00  0.00    -0.026 A 
ATOM     34  C   UNL     1      -2.624   7.821  -3.444  0.00  0.00    +0.005 A 
ATOM     35  C   UNL     1      -2.244   5.531  -4.324  0.00  0.00    +0.038 C 
ATOM     36  C   UNL     1      -1.065   4.689  -4.818  0.00  0.00    +0.024 C 
ATOM     37  C   UNL     1      -0.041   4.598  -3.680  0.00  0.00    +0.106 C 
ATOM     38  N   UNL     1       0.545   5.923  -3.471  0.00  0.00    -0.324 N 
ENDBRANCH  28  38
ENDBRANCH   1  28
TORSDOF 5
