REMARK  Name = ZINC16656060
REMARK  13 active torsions:
REMARK  status: ('A' for Active; 'I' for Inactive)
REMARK    1  A    between atoms: C_1  and  C_2
REMARK    2  A    between atoms: C_2  and  C_3
REMARK    3  A    between atoms: C_2  and  C_4
REMARK    4  A    between atoms: C_4  and  N_5
REMARK    5  A    between atoms: C_6  and  N_31
REMARK    6  A    between atoms: C_7  and  N_14
REMARK    7  A    between atoms: N_14  and  C_15
REMARK    8  A    between atoms: C_15  and  C_16
REMARK    9  A    between atoms: C_16  and  C_17
REMARK   10  A    between atoms: C_16  and  C_18
REMARK   11  A    between atoms: C_19  and  C_21
REMARK   12  A    between atoms: C_21  and  S_22
REMARK   13  A    between atoms: S_22  and  C_23
REMARK                            x       y       z     vdW  Elec       q    Type
REMARK                         _______ _______ _______ _____ _____    ______ ____
ROOT
ATOM      1  N   UNL     1       0.015  -2.848   2.497  0.00  0.00    -0.263 N 
ATOM      2  C   UNL     1      -0.141  -2.325   3.731  0.00  0.00    +0.230 C 
ATOM      3  O   UNL     1      -0.187  -1.121   3.878  0.00  0.00    -0.274 OA
ENDROOT
BRANCH   1   6
ATOM      4  N   UNL     1      -0.909  -1.302  -0.706  0.00  0.00    -0.280 N 
ATOM      5  C   UNL     1      -0.939  -2.141   0.384  0.00  0.00    +0.127 A 
ATOM      6  C   UNL     1       0.019  -2.002   1.367  0.00  0.00    +0.140 A 
ATOM      7  C   UNL     1       1.000  -1.003   1.225  0.00  0.00    +0.277 A 
ATOM      8  O   UNL     1       1.858  -0.859   2.079  0.00  0.00    -0.266 OA
ATOM      9  N   UNL     1       0.985  -0.207   0.138  0.00  0.00    -0.273 N 
ATOM     10  H   UNL     1       1.679   0.505   0.037  0.00  0.00    +0.173 HD
ATOM     11  C   UNL     1       0.047  -0.361  -0.814  0.00  0.00    +0.331 A 
ATOM     12  O   UNL     1       0.059   0.368  -1.787  0.00  0.00    -0.246 OA
BRANCH   5  13
ATOM     13  N   UNL     1      -1.912  -3.106   0.491  0.00  0.00    -0.343 N 
ATOM     14  H   UNL     1      -2.624  -3.151  -0.165  0.00  0.00    +0.144 HD
ATOM     15  H   UNL     1      -1.886  -3.741   1.224  0.00  0.00    +0.144 HD
ENDBRANCH   5  13
BRANCH   4  16
ATOM     16  C   UNL     1      -1.919  -1.438  -1.758  0.00  0.00    +0.131 C 
BRANCH  16  18
ATOM     17  C   UNL     1      -2.696   0.919  -1.463  0.00  0.00    +0.009 C 
ATOM     18  C   UNL     1      -3.121  -0.550  -1.428  0.00  0.00    +0.003 C 
ATOM     19  C   UNL     1      -4.227  -0.786  -2.459  0.00  0.00    +0.009 C 
ENDBRANCH  16  18
ENDBRANCH   4  16
ENDBRANCH   1   6
BRANCH   1  20
ATOM     20  C   UNL     1       0.179  -4.294   2.330  0.00  0.00    +0.117 C 
BRANCH  20  21
ATOM     21  C   UNL     1       1.651  -4.666   2.525  0.00  0.00    +0.001 C 
ATOM     22  C   UNL     1       1.799  -6.189   2.504  0.00  0.00    +0.009 C 
ATOM     23  C   UNL     1       2.484  -4.057   1.395  0.00  0.00    +0.009 C 
ENDBRANCH  20  21
ENDBRANCH   1  20
BRANCH   2  24
ATOM     24  C   UNL     1      -0.256  -3.235   4.926  0.00  0.00    +0.170 C 
BRANCH  24  25
ATOM     25  S   UNL     1      -0.455  -2.238   6.429  0.00  0.00    -0.114 S 
BRANCH  25  26
ATOM     26  C   UNL     1      -0.574  -3.432   7.720  0.00  0.00    +0.028 A 
ATOM     27  C   UNL     1      -0.512  -4.788   7.422  0.00  0.00    +0.036 A 
ATOM     28  C   UNL     1      -0.602  -5.721   8.438  0.00  0.00    +0.042 A 
ATOM     29  C   UNL     1      -0.763  -5.306   9.748  0.00  0.00    +0.021 A 
ATOM     30  C   UNL     1      -0.831  -3.958  10.047  0.00  0.00    +0.022 A 
ATOM     31  C   UNL     1      -0.737  -3.019   9.037  0.00  0.00    +0.054 A 
ATOM     32 CL   UNL     1      -0.821  -1.327   9.414  0.00  0.00    -0.082 Cl
ATOM     33 CL   UNL     1      -0.517  -7.415   8.068  0.00  0.00    -0.084 Cl
ENDBRANCH  25  26
ENDBRANCH  24  25
ENDBRANCH   2  24
TORSDOF 9
