REMARK  Name = ZINC35345500
REMARK  3 active torsions:
REMARK  status: ('A' for Active; 'I' for Inactive)
REMARK    1  A    between atoms: C_3  and  N_9
REMARK    2  A    between atoms: N_9  and  C_10
REMARK    3  A    between atoms: C_15  and  N_16
REMARK                            x       y       z     vdW  Elec       q    Type
REMARK                         _______ _______ _______ _____ _____    ______ ____
ROOT
ATOM      1  C   UNL     1       3.513   3.521  -0.106  0.00  0.00    +0.054 A 
ATOM      2  C   UNL     1       2.281   4.154  -0.077  0.00  0.00    +0.048 A 
ATOM      3  C   UNL     1       2.205   5.542  -0.161  0.00  0.00    +0.039 A 
ATOM      4  C   UNL     1       3.378   6.278  -0.274  0.00  0.00    -0.016 A 
ATOM      5  C   UNL     1       4.607   5.654  -0.303  0.00  0.00    +0.030 A 
ATOM      6  C   UNL     1       4.684   4.271  -0.213  0.00  0.00    +0.046 A 
ATOM      7  C   UNL     1       2.965   7.730  -0.344  0.00  0.00    +0.133 C 
ATOM      8  C   UNL     1       1.454   7.688  -0.256  0.00  0.00    +0.222 C 
ATOM      9  O   UNL     1       0.705   8.642  -0.275  0.00  0.00    -0.275 OA
ATOM     10  N   UNL     1       1.099   6.396  -0.154  0.00  0.00    -0.285 N 
ATOM     11  H   UNL     1       0.181   6.092  -0.084  0.00  0.00    +0.155 HD
ENDROOT
BRANCH   6  12
ATOM     12  N   UNL     1       5.931   3.631  -0.237  0.00  0.00    -0.357 N 
ATOM     13  H   UNL     1       5.981   2.665  -0.178  0.00  0.00    +0.142 HD
ATOM     14  H   UNL     1       6.744   4.156  -0.312  0.00  0.00    +0.142 HD
ENDBRANCH   6  12
BRANCH   1  15
ATOM     15  N   UNL     1       3.583   2.125  -0.021  0.00  0.00    -0.312 N 
ATOM     16  H   UNL     1       4.436   1.675  -0.125  0.00  0.00    +0.152 HD
BRANCH  15  19
ATOM     17  C   UNL     1       0.361   1.065   1.395  0.00  0.00    +0.017 A 
ATOM     18  C   UNL     1       1.506   1.803   1.166  0.00  0.00    +0.026 A 
ATOM     19  C   UNL     1       2.424   1.380   0.213  0.00  0.00    +0.050 A 
ATOM     20  C   UNL     1       2.187   0.214  -0.507  0.00  0.00    +0.063 A 
ATOM     21  C   UNL     1       1.040  -0.519  -0.273  0.00  0.00    +0.037 A 
ATOM     22  C   UNL     1       0.128  -0.095   0.677  0.00  0.00    +0.019 A 
ATOM     23 BR   UNL     1      -1.441  -1.102   0.995  0.00  0.00    -0.050 Br
ATOM     24 CL   UNL     1       3.331  -0.318  -1.699  0.00  0.00    -0.082 Cl
ENDBRANCH  15  19
ENDBRANCH   1  15
TORSDOF 3
