REMARK  Name = ZINC58944807
REMARK  5 active torsions:
REMARK  status: ('A' for Active; 'I' for Inactive)
REMARK    1  A    between atoms: C_6  and  N_7
REMARK    2  A    between atoms: N_9  and  C_19
REMARK    3  A    between atoms: C_13  and  C_16
REMARK    4  A    between atoms: C_19  and  C_20
REMARK    5  A    between atoms: C_20  and  C_21
REMARK                            x       y       z     vdW  Elec       q    Type
REMARK                         _______ _______ _______ _____ _____    ______ ____
ROOT
ATOM      1  N   UNL     1      -1.173  -0.708   0.010  0.00  0.00    -0.226 NA
ATOM      2  C   UNL     1      -1.331  -1.730  -0.798  0.00  0.00    +0.164 C 
ATOM      3  N   UNL     1      -2.508  -2.457  -0.817  0.00  0.00    -0.250 N 
ATOM      4  C   UNL     1      -2.857  -3.284  -1.792  0.00  0.00    +0.223 C 
ATOM      5  O   UNL     1      -3.978  -3.738  -1.719  0.00  0.00    -0.275 OA
ATOM      6  C   UNL     1      -2.054  -3.729  -2.966  0.00  0.00    +0.120 C 
ATOM      7  C   UNL     1      -1.010  -2.693  -3.386  0.00  0.00    +0.148 C 
ATOM      8  S   UNL     1      -0.048  -2.232  -1.913  0.00  0.00    -0.077 S 
ENDROOT
BRANCH   1  14
ATOM      9  C   UNL     1      -0.017   1.392   0.010  0.00  0.00    +0.029 A 
ATOM     10  C   UNL     1       1.170   2.095   0.002  0.00  0.00    +0.022 A 
ATOM     11  C   UNL     1       2.378   1.419  -0.013  0.00  0.00    +0.041 A 
ATOM     12  C   UNL     1       2.404   0.035  -0.021  0.00  0.00    +0.022 A 
ATOM     13  C   UNL     1       1.224  -0.680  -0.014  0.00  0.00    +0.029 A 
ATOM     14  C   UNL     1       0.002  -0.004   0.002  0.00  0.00    +0.067 A 
ATOM     15 CL   UNL     1       3.868   2.311  -0.023  0.00  0.00    -0.084 Cl
ENDBRANCH   1  14
BRANCH   7  16
ATOM     16  C   UNL     1      -0.097  -3.285  -4.429  0.00  0.00    +0.224 C 
ATOM     17  O   UNL     1       0.131  -4.476  -4.430  0.00  0.00    -0.275 OA
ATOM     18  N   UNL     1       0.468  -2.490  -5.360  0.00  0.00    -0.328 N 
ATOM     19  H   UNL     1       0.286  -1.537  -5.359  0.00  0.00    +0.145 HD
ATOM     20  H   UNL     1       1.055  -2.871  -6.031  0.00  0.00    +0.145 HD
ENDBRANCH   7  16
BRANCH   3  21
ATOM     21  C   UNL     1      -3.427  -2.303   0.313  0.00  0.00    +0.120 C 
BRANCH  21  22
ATOM     22  C   UNL     1      -4.406  -1.164   0.022  0.00  0.00    +0.054 C 
BRANCH  22  23
ATOM     23  C   UNL     1      -5.352  -1.006   1.185  0.00  0.00    -0.042 A 
ATOM     24  C   UNL     1      -6.538  -1.716   1.211  0.00  0.00    +0.007 A 
ATOM     25  C   UNL     1      -7.408  -1.575   2.275  0.00  0.00    +0.050 A 
ATOM     26  C   UNL     1      -7.095  -0.719   3.319  0.00  0.00    +0.166 A 
ATOM     27  C   UNL     1      -5.900  -0.003   3.292  0.00  0.00    +0.166 A 
ATOM     28  C   UNL     1      -5.030  -0.154   2.225  0.00  0.00    +0.053 A 
ATOM     29  O   UNL     1      -5.825   0.761   4.421  0.00  0.00    -0.453 OA
ATOM     30  C   UNL     1      -7.167   0.816   4.939  0.00  0.00    +0.466 C 
ATOM     31  O   UNL     1      -7.767  -0.404   4.464  0.00  0.00    -0.453 OA
ENDBRANCH  22  23
ENDBRANCH  21  22
ENDBRANCH   3  21
TORSDOF 5
