REMARK  Name = ZINC40801582
REMARK  8 active torsions:
REMARK  status: ('A' for Active; 'I' for Inactive)
REMARK    1  A    between atoms: C_1  and  C_2
REMARK    2  A    between atoms: C_11  and  C_14
REMARK    3  A    between atoms: C_14  and  C_15
REMARK    4  A    between atoms: N_17  and  C_18
REMARK    5  A    between atoms: C_19  and  C_27
REMARK    6  A    between atoms: N_29  and  C_30
REMARK    7  A    between atoms: C_30  and  C_31
REMARK    8  A    between atoms: C_30  and  C_32
REMARK                            x       y       z     vdW  Elec       q    Type
REMARK                         _______ _______ _______ _____ _____    ______ ____
ROOT
ATOM      1  C   UNL     1       2.598  -5.445  -0.414  0.00  0.00    +0.222 C 
ATOM      2  O   UNL     1       1.746  -6.015  -1.061  0.00  0.00    -0.275 OA
ATOM      3  N   UNL     1       3.887  -5.493  -0.806  0.00  0.00    -0.279 N 
ATOM      4  H   UNL     1       4.569  -5.037  -0.288  0.00  0.00    +0.155 HD
ENDROOT
BRANCH   3   5
ATOM      5  C   UNL     1       4.238  -6.194  -1.950  0.00  0.00    +0.084 A 
ATOM      6  C   UNL     1       5.501  -6.356  -2.496  0.00  0.00    +0.069 A 
ATOM      7  C   UNL     1       5.603  -7.144  -3.712  0.00  0.00    -0.023 A 
ATOM      8  C   UNL     1       4.423  -7.625  -4.158  0.00  0.00    -0.004 A 
ATOM      9  S   UNL     1       3.231  -7.049  -2.986  0.00  0.00    -0.077 S 
ATOM     10  C   UNL     1       4.198  -8.465  -5.378  0.00  0.00    +0.043 C 
ATOM     11  C   UNL     1       5.455  -8.386  -6.257  0.00  0.00    +0.005 C 
ATOM     12  C   UNL     1       6.689  -8.623  -5.380  0.00  0.00    +0.005 C 
ATOM     13  C   UNL     1       6.904  -7.427  -4.449  0.00  0.00    +0.037 C 
BRANCH   6  14
ATOM     14  C   UNL     1       6.685  -5.755  -1.873  0.00  0.00    +0.247 C 
ATOM     15  O   UNL     1       7.315  -6.378  -1.038  0.00  0.00    -0.270 OA
ATOM     16  N   UNL     1       7.076  -4.515  -2.225  0.00  0.00    -0.309 N 
ATOM     17  H   UNL     1       6.574  -4.019  -2.891  0.00  0.00    +0.149 HD
BRANCH  16  18
ATOM     18  C   UNL     1       8.259  -3.915  -1.603  0.00  0.00    +0.067 C 
ATOM     19  C   UNL     1       8.850  -2.861  -2.541  0.00  0.00    +0.027 C 
ATOM     20  C   UNL     1       7.861  -3.256  -0.281  0.00  0.00    +0.027 C 
ENDBRANCH  16  18
ENDBRANCH   6  14
ENDBRANCH   3   5
BRANCH   1  21
ATOM     21  C   UNL     1       2.217  -4.683   0.829  0.00  0.00    +0.150 C 
BRANCH  21  32
ATOM     22  C   UNL     1      -0.018   1.503   0.010  0.00  0.00    +0.044 C 
ATOM     23  C   UNL     1       0.002  -0.004   0.002  0.00  0.00    -0.048 A 
ATOM     24  C   UNL     1       0.006  -0.687  -1.200  0.00  0.00    +0.007 A 
ATOM     25  C   UNL     1       0.019  -2.070  -1.216  0.00  0.00    +0.048 A 
ATOM     26  C   UNL     1       0.031  -2.773  -0.024  0.00  0.00    +0.143 A 
ATOM     27  C   UNL     1       0.038  -2.085   1.188  0.00  0.00    +0.076 A 
ATOM     28  C   UNL     1       0.023  -0.700   1.197  0.00  0.00    +0.030 A 
ATOM     29  N   UNL     1       0.086  -2.805   2.389  0.00  0.00    -0.280 N 
ATOM     30  C   UNL     1       0.342  -4.129   2.355  0.00  0.00    +0.259 C 
ATOM     31  O   UNL     1       0.279  -4.788   3.371  0.00  0.00    -0.271 OA
ATOM     32  C   UNL     1       0.706  -4.787   1.048  0.00  0.00    +0.268 C 
ATOM     33  O   UNL     1       0.025  -4.133  -0.026  0.00  0.00    -0.477 OA
ATOM     34  H   UNL     1      -0.063  -2.356   3.236  0.00  0.00    +0.155 HD
ENDBRANCH  21  32
ENDBRANCH   1  21
TORSDOF 5
