REMARK  Name = ZINC35021820
REMARK  5 active torsions:
REMARK  status: ('A' for Active; 'I' for Inactive)
REMARK    1  A    between atoms: C_6  and  C_7
REMARK    2  A    between atoms: C_7  and  N_8
REMARK    3  A    between atoms: C_9  and  C_11
REMARK    4  A    between atoms: C_11  and  N_12
REMARK    5  A    between atoms: N_12  and  C_13
REMARK                            x       y       z     vdW  Elec       q    Type
REMARK                         _______ _______ _______ _____ _____    ______ ____
ROOT
ATOM      1  N   UNL     1      -1.726  -1.017  -1.368  0.00  0.00    -0.310 N 
ATOM      2  C   UNL     1      -2.867  -1.694  -1.606  0.00  0.00    +0.230 C 
ATOM      3  O   UNL     1      -3.535  -2.102  -0.680  0.00  0.00    -0.274 OA
ATOM      4  H   UNL     1      -1.192  -0.691  -2.108  0.00  0.00    +0.149 HD
ENDROOT
BRANCH   1   5
ATOM      5  C   UNL     1      -1.293  -0.775   0.011  0.00  0.00    +0.139 C 
BRANCH   5  11
ATOM      6  C   UNL     1      -0.017   1.378   0.010  0.00  0.00    +0.007 A 
ATOM      7  C   UNL     1       1.171   2.086   0.002  0.00  0.00    +0.022 A 
ATOM      8  C   UNL     1       2.378   1.412  -0.013  0.00  0.00    +0.059 A 
ATOM      9  C   UNL     1       2.397   0.027  -0.021  0.00  0.00    +0.060 A 
ATOM     10  C   UNL     1       1.208  -0.680  -0.013  0.00  0.00    +0.026 A 
ATOM     11  C   UNL     1       0.002  -0.004   0.002  0.00  0.00    -0.029 A 
ATOM     12 CL   UNL     1       3.912  -0.821  -0.040  0.00  0.00    -0.082 Cl
ATOM     13 CL   UNL     1       3.869   2.301  -0.023  0.00  0.00    -0.082 Cl
ENDBRANCH   5  11
ENDBRANCH   1   5
BRANCH   2  14
ATOM     14  C   UNL     1      -3.313  -1.943  -3.024  0.00  0.00    +0.197 C 
BRANCH  14  15
ATOM     15  N   UNL     1      -4.572  -2.692  -3.016  0.00  0.00    -0.330 N 
ATOM     16  H   UNL     1      -4.980  -2.945  -2.173  0.00  0.00    +0.147 HD
BRANCH  15  17
ATOM     17  C   UNL     1      -5.188  -3.045  -4.230  0.00  0.00    +0.112 A 
ATOM     18  C   UNL     1      -4.607  -2.692  -5.432  0.00  0.00    +0.142 A 
ATOM     19  N   UNL     1      -5.215  -3.041  -6.566  0.00  0.00    -0.229 NA
ATOM     20  C   UNL     1      -6.342  -3.706  -6.553  0.00  0.00    +0.180 A 
ATOM     21  N   UNL     1      -6.988  -4.096  -5.409  0.00  0.00    -0.261 N 
ATOM     22  C   UNL     1      -6.391  -3.761  -4.226  0.00  0.00    +0.280 A 
ATOM     23  O   UNL     1      -6.909  -4.082  -3.167  0.00  0.00    -0.265 OA
ATOM     24  C   UNL     1      -8.165  -4.788  -5.569  0.00  0.00    +0.104 A 
ATOM     25  C   UNL     1      -8.644  -5.060  -6.782  0.00  0.00    +0.067 A 
ATOM     26  S   UNL     1      -7.407  -4.322  -7.838  0.00  0.00    -0.058 S 
ENDBRANCH  15  17
ENDBRANCH  14  15
ENDBRANCH   2  14
TORSDOF 5
