REMARK  Name = ZINC06178037
REMARK  9 active torsions:
REMARK  status: ('A' for Active; 'I' for Inactive)
REMARK    1  A    between atoms: C_1  and  C_2
REMARK    2  A    between atoms: C_4  and  C_39
REMARK    3  A    between atoms: C_9  and  C_14
REMARK    4  A    between atoms: C_14  and  C_16
REMARK    5  A    between atoms: C_14  and  N_73
REMARK    6  A    between atoms: N_20  and  C_21
REMARK    7  A    between atoms: N_28  and  C_31
REMARK    8  A    between atoms: C_36  and  O_37
REMARK    9  A    between atoms: O_37  and  C_38
REMARK                            x       y       z     vdW  Elec       q    Type
REMARK                         _______ _______ _______ _____ _____    ______ ____
ROOT
ATOM      1  C   UNL     1       2.626  -0.821  -0.183  0.00  0.00    +0.039 C 
ENDROOT
BRANCH   1  10
ATOM      2  C   UNL     1       0.317  -5.002  -5.910  0.00  0.00    +0.044 C 
ATOM      3  C   UNL     1       1.386  -4.197  -5.218  0.00  0.00    -0.050 A 
ATOM      4  C   UNL     1       2.636  -4.064  -5.807  0.00  0.00    +0.008 A 
ATOM      5  C   UNL     1       3.629  -3.333  -5.191  0.00  0.00    -0.026 A 
ATOM      6  C   UNL     1       3.378  -2.722  -3.967  0.00  0.00    +0.052 A 
ATOM      7  C   UNL     1       2.110  -2.859  -3.373  0.00  0.00    -0.001 A 
ATOM      8  C   UNL     1       1.117  -3.606  -4.017  0.00  0.00    +0.013 A 
ATOM      9  C   UNL     1       1.855  -2.211  -2.085  0.00  0.00    +0.017 A 
ATOM     10  C   UNL     1       2.855  -1.500  -1.509  0.00  0.00    +0.011 A 
ATOM     11  C   UNL     1       4.108  -1.388  -2.149  0.00  0.00    +0.251 A 
ATOM     12  O   UNL     1       4.992  -0.740  -1.616  0.00  0.00    -0.268 OA
ATOM     13  N   UNL     1       4.353  -1.984  -3.329  0.00  0.00    -0.322 N 
ATOM     14  H   UNL     1       5.227  -1.890  -3.740  0.00  0.00    +0.169 HD
ATOM     15  C   UNL     1       4.982  -3.197  -5.841  0.00  0.00    +0.046 C 
ENDBRANCH   1  10
BRANCH   1  21
ATOM     16  C   UNL     1       3.656  -2.722   0.907  0.00  0.00    -0.058 C 
ATOM     17  C   UNL     1       4.786  -3.142   1.850  0.00  0.00    +0.086 C 
ATOM     18  N   UNL     1       4.594  -2.498   3.157  0.00  0.00    -0.331 N 
ATOM     19  C   UNL     1       4.588  -1.035   3.025  0.00  0.00    +0.086 C 
ATOM     20  C   UNL     1       3.458  -0.615   2.082  0.00  0.00    -0.058 C 
ATOM     21  N   UNL     1       3.675  -1.251   0.765  0.00  0.00    +0.391 N 
ATOM     22  H   UNL     1       4.592  -0.963   0.402  0.00  0.00    -0.080 HD
BRANCH  18  23
ATOM     23  C   UNL     1       5.570  -2.916   4.070  0.00  0.00    +0.072 A 
ATOM     24  C   UNL     1       6.660  -3.654   3.633  0.00  0.00    +0.027 A 
ATOM     25  C   UNL     1       7.625  -4.061   4.536  0.00  0.00    +0.002 A 
ATOM     26  C   UNL     1       7.501  -3.742   5.875  0.00  0.00    +0.004 A 
ATOM     27  C   UNL     1       6.414  -3.011   6.319  0.00  0.00    +0.047 A 
ATOM     28  C   UNL     1       5.446  -2.595   5.420  0.00  0.00    +0.141 A 
BRANCH  28  29
ATOM     29  O   UNL     1       4.376  -1.877   5.855  0.00  0.00    -0.493 OA
ATOM     30  C   UNL     1       4.315  -1.585   7.252  0.00  0.00    +0.277 C 
ENDBRANCH  28  29
ENDBRANCH  18  23
ENDBRANCH   1  21
BRANCH   1  31
ATOM     31  C   UNL     1       2.712   0.673  -0.363  0.00  0.00    +0.143 A 
ATOM     32  N   UNL     1       3.803   1.380  -0.531  0.00  0.00    -0.115 NA
ATOM     33  N   UNL     1       3.462   2.617  -0.646  0.00  0.00    -0.023 NA
ATOM     34  N   UNL     1       2.182   2.717  -0.562  0.00  0.00    -0.044 NA
ATOM     35  N   UNL     1       1.683   1.541  -0.381  0.00  0.00    -0.227 N 
BRANCH  35  36
ATOM     36  C   UNL     1       0.264   1.211  -0.231  0.00  0.00    +0.111 C 
ATOM     37  C   UNL     1      -0.332   1.977   0.969  0.00  0.00    +0.027 C 
ATOM     38  C   UNL     1      -0.973   3.237   0.333  0.00  0.00    +0.002 C 
ATOM     39  C   UNL     1      -1.563   2.690  -0.991  0.00  0.00    +0.002 C 
ATOM     40  C   UNL     1      -0.518   1.665  -1.476  0.00  0.00    +0.027 C 
ENDBRANCH  35  36
ENDBRANCH   1  31
TORSDOF 6
