REMARK  Name = ZINC39656004
REMARK  7 active torsions:
REMARK  status: ('A' for Active; 'I' for Inactive)
REMARK    1  A    between atoms: C_1  and  C_2
REMARK    2  A    between atoms: C_8  and  C_11
REMARK    3  A    between atoms: C_11  and  C_12
REMARK    4  A    between atoms: C_12  and  N_13
REMARK    5  A    between atoms: C_14  and  C_16
REMARK    6  A    between atoms: C_27  and  C_29
REMARK    7  A    between atoms: C_32  and  C_37
REMARK                            x       y       z     vdW  Elec       q    Type
REMARK                         _______ _______ _______ _____ _____    ______ ____
ROOT
ATOM      1  C   UNL     1       4.160  -0.441  -7.287  0.00  0.00    +0.100 C 
ATOM      2  C   UNL     1       5.248   0.138  -6.355  0.00  0.00    +0.121 C 
ATOM      3  N   UNL     1       5.917  -1.052  -5.777  0.00  0.00    -0.296 N 
ATOM      4  C   UNL     1       5.997  -2.013  -6.903  0.00  0.00    +0.115 C 
ATOM      5  C   UNL     1       4.657  -1.851  -7.647  0.00  0.00    -0.004 C 
ATOM      6  C   UNL     1       4.872  -1.966  -9.153  0.00  0.00    -0.010 C 
ATOM      7  C   UNL     1       5.310  -3.394  -9.494  0.00  0.00    -0.082 C 
ATOM      8  N   UNL     1       4.280  -4.342  -9.052  0.00  0.00    +0.379 N 
ATOM      9  C   UNL     1       4.146  -4.290  -7.591  0.00  0.00    -0.082 C 
ATOM     10  C   UNL     1       3.659  -2.901  -7.170  0.00  0.00    -0.010 C 
ATOM     11  C   UNL     1       6.354  -1.222  -4.513  0.00  0.00    +0.250 C 
ATOM     12  O   UNL     1       6.970  -2.225  -4.213  0.00  0.00    -0.270 OA
ATOM     13  H   UNL     1       3.398  -4.101  -9.479  0.00  0.00    -0.086 HD
ATOM     14  H   UNL     1       4.542  -5.275  -9.332  0.00  0.00    -0.086 HD
ENDROOT
BRANCH  11  15
ATOM     15  C   UNL     1       6.083  -0.188  -3.493  0.00  0.00    +0.075 A 
ATOM     16  C   UNL     1       6.073   1.163  -3.849  0.00  0.00    +0.016 A 
ATOM     17  C   UNL     1       5.820   2.123  -2.893  0.00  0.00    +0.007 A 
ATOM     18  C   UNL     1       5.575   1.754  -1.581  0.00  0.00    -0.012 A 
ATOM     19  C   UNL     1       5.583   0.419  -1.218  0.00  0.00    +0.162 A 
ATOM     20  C   UNL     1       5.830  -0.558  -2.169  0.00  0.00    +0.171 A 
ATOM     21  F   UNL     1       5.832  -1.862  -1.817  0.00  0.00    -0.202 F 
ATOM     22  F   UNL     1       5.343   0.067   0.064  0.00  0.00    -0.202 F 
ATOM     23  C   UNL     1       5.300   2.812  -0.543  0.00  0.00    +0.047 C 
ENDBRANCH  11  15
BRANCH   1  25
ATOM     24  N   UNL     1       1.687  -0.450  -7.262  0.00  0.00    -0.315 N 
ATOM     25  C   UNL     1       2.839  -0.518  -6.566  0.00  0.00    +0.218 C 
ATOM     26  O   UNL     1       2.813  -0.642  -5.360  0.00  0.00    -0.275 OA
ATOM     27  H   UNL     1       1.708  -0.351  -8.227  0.00  0.00    +0.149 HD
BRANCH  24  28
ATOM     28  C   UNL     1       0.403  -0.526  -6.561  0.00  0.00    +0.109 C 
BRANCH  28  29
ATOM     29  C   UNL     1      -0.739  -0.425  -7.575  0.00  0.00    +0.056 C 
BRANCH  29  37
ATOM     30  C   UNL     1      -3.140   4.245  -5.288  0.00  0.00    +0.044 C 
ATOM     31  C   UNL     1      -3.416   2.771  -5.434  0.00  0.00    -0.050 A 
ATOM     32  C   UNL     1      -4.577   2.232  -4.896  0.00  0.00    +0.005 A 
ATOM     33  C   UNL     1      -4.848   0.886  -5.017  0.00  0.00    +0.026 A 
ATOM     34  C   UNL     1      -3.952   0.058  -5.685  0.00  0.00    +0.047 A 
ATOM     35  N   UNL     1      -3.936  -1.289  -5.967  0.00  0.00    -0.360 N 
ATOM     36  C   UNL     1      -2.802  -1.605  -6.664  0.00  0.00    +0.087 A 
ATOM     37  C   UNL     1      -2.060  -0.503  -6.855  0.00  0.00    -0.021 A 
ATOM     38  C   UNL     1      -2.778   0.610  -6.229  0.00  0.00    +0.003 A 
ATOM     39  C   UNL     1      -2.525   1.977  -6.099  0.00  0.00    +0.013 A 
ATOM     40  H   UNL     1      -4.626  -1.921  -5.710  0.00  0.00    +0.165 HD
ENDBRANCH  29  37
ENDBRANCH  28  29
ENDBRANCH  24  28
ENDBRANCH   1  25
TORSDOF 5
