REMARK  Name = ZINC15936582
REMARK  7 active torsions:
REMARK  status: ('A' for Active; 'I' for Inactive)
REMARK    1  A    between atoms: C_1  and  C_2
REMARK    2  A    between atoms: C_6  and  C_8
REMARK    3  A    between atoms: C_8  and  N_9
REMARK    4  A    between atoms: N_9  and  C_10
REMARK    5  A    between atoms: C_11  and  C_13
REMARK    6  A    between atoms: C_20  and  C_22
REMARK    7  A    between atoms: C_22  and  C_23
REMARK                            x       y       z     vdW  Elec       q    Type
REMARK                         _______ _______ _______ _____ _____    ______ ____
ROOT
ATOM      1  C   UNL     1      -2.148  -5.971   0.265  0.00  0.00    +0.039 A 
ATOM      2  C   UNL     1      -1.195  -6.872  -0.227  0.00  0.00    +0.017 A 
ATOM      3  C   UNL     1      -1.585  -8.039  -0.818  0.00  0.00    +0.049 A 
ATOM      4  C   UNL     1      -2.935  -8.344  -0.937  0.00  0.00    +0.155 A 
ATOM      5  C   UNL     1      -3.904  -7.452  -0.448  0.00  0.00    +0.110 A 
ATOM      6  C   UNL     1      -3.505  -6.264   0.159  0.00  0.00    +0.044 A 
ATOM      7  N   UNL     1      -5.115  -8.017  -0.706  0.00  0.00    -0.213 NA
ATOM      8  C   UNL     1      -4.927  -9.156  -1.300  0.00  0.00    +0.201 A 
ATOM      9  O   UNL     1      -3.614  -9.389  -1.457  0.00  0.00    -0.439 OA
ENDROOT
BRANCH   1  12
ATOM     10  N   UNL     1      -0.621  -4.067   0.445  0.00  0.00    -0.293 N 
ATOM     11  C   UNL     1       0.060  -4.545  -0.761  0.00  0.00    +0.133 C 
ATOM     12  C   UNL     1      -1.713  -4.711   0.902  0.00  0.00    +0.247 C 
ATOM     13  O   UNL     1      -2.340  -4.255   1.838  0.00  0.00    -0.270 OA
BRANCH  10  14
ATOM     14  C   UNL     1      -0.114  -2.890   1.154  0.00  0.00    +0.179 C 
BRANCH  14  20
ATOM     15  C   UNL     1      -1.791   1.814   0.741  0.00  0.00    +0.065 C 
ATOM     16  C   UNL     1      -1.492   0.374   0.414  0.00  0.00    +0.030 A 
ATOM     17  C   UNL     1      -1.828  -0.265  -0.723  0.00  0.00    +0.105 A 
ATOM     18  N   UNL     1      -1.368  -1.549  -0.606  0.00  0.00    -0.348 N 
ATOM     19  H   UNL     1      -1.457  -2.255  -1.266  0.00  0.00    +0.166 HD
ATOM     20  C   UNL     1      -0.767  -1.650   0.599  0.00  0.00    +0.102 A 
ATOM     21  N   UNL     1      -0.841  -0.495   1.201  0.00  0.00    -0.346 N 
ATOM     22  H   UNL     1      -0.483  -0.296   2.081  0.00  0.00    +0.167 HD
ENDBRANCH  14  20
ENDBRANCH  10  14
ENDBRANCH   1  12
BRANCH   8  23
ATOM     23  C   UNL     1      -6.025 -10.085  -1.748  0.00  0.00    +0.131 C 
BRANCH  23  24
ATOM     24  C   UNL     1      -6.428  -9.744  -3.160  0.00  0.00    -0.038 A 
ATOM     25  C   UNL     1      -7.427  -8.816  -3.388  0.00  0.00    +0.005 A 
ATOM     26  C   UNL     1      -7.797  -8.502  -4.682  0.00  0.00    +0.020 A 
ATOM     27  C   UNL     1      -7.166  -9.116  -5.750  0.00  0.00    +0.041 A 
ATOM     28  C   UNL     1      -6.165 -10.044  -5.521  0.00  0.00    +0.020 A 
ATOM     29  C   UNL     1      -5.793 -10.353  -4.226  0.00  0.00    +0.005 A 
ATOM     30 CL   UNL     1      -7.630  -8.723  -7.375  0.00  0.00    -0.084 Cl
ENDBRANCH  23  24
ENDBRANCH   8  23
TORSDOF 5
