REMARK  Name = ZINC36597442
REMARK  11 active torsions:
REMARK  status: ('A' for Active; 'I' for Inactive)
REMARK    1  A    between atoms: C_1  and  C_2
REMARK    2  A    between atoms: C_5  and  C_7
REMARK    3  A    between atoms: C_7  and  N_8
REMARK    4  A    between atoms: N_8  and  C_9
REMARK    5  A    between atoms: C_9  and  C_11
REMARK    6  A    between atoms: C_9  and  C_18
REMARK    7  A    between atoms: C_14  and  O_17
REMARK    8  A    between atoms: N_20  and  C_21
REMARK    9  A    between atoms: C_27  and  C_29
REMARK   10  A    between atoms: C_30  and  O_36
REMARK   11  A    between atoms: C_34  and  O_35
REMARK                            x       y       z     vdW  Elec       q    Type
REMARK                         _______ _______ _______ _____ _____    ______ ____
ROOT
ATOM      1  N   UNL     1       1.947  -3.590  -1.402  0.00  0.00    -0.274 N 
ATOM      2  C   UNL     1       1.034  -4.461  -1.875  0.00  0.00    +0.255 C 
ATOM      3  O   UNL     1       1.165  -4.936  -2.987  0.00  0.00    -0.270 OA
ENDROOT
BRANCH   2   4
ATOM      4  C   UNL     1      -0.123  -4.838  -1.047  0.00  0.00    +0.119 A 
ATOM      5  C   UNL     1      -1.315  -4.102  -1.121  0.00  0.00    +0.133 A 
ATOM      6  C   UNL     1      -2.398  -4.466  -0.337  0.00  0.00    +0.046 A 
ATOM      7  C   UNL     1      -2.307  -5.549   0.516  0.00  0.00    +0.007 A 
ATOM      8  C   UNL     1      -1.137  -6.281   0.598  0.00  0.00    +0.046 A 
ATOM      9  C   UNL     1      -0.044  -5.939  -0.181  0.00  0.00    +0.133 A 
BRANCH   9  10
ATOM     10  O   UNL     1       1.101  -6.662  -0.103  0.00  0.00    -0.506 OA
ATOM     11  H   UNL     1       1.724  -6.343   0.565  0.00  0.00    +0.292 HD
ENDBRANCH   9  10
BRANCH   5  12
ATOM     12  O   UNL     1      -1.407  -3.038  -1.958  0.00  0.00    -0.506 OA
ATOM     13  H   UNL     1      -1.722  -3.261  -2.845  0.00  0.00    +0.292 HD
ENDBRANCH   5  12
ENDBRANCH   2   4
BRANCH   1  14
ATOM     14  C   UNL     1       1.861  -3.119  -0.018  0.00  0.00    +0.183 C 
BRANCH  14  19
ATOM     15  C   UNL     1       0.519   1.743  -0.070  0.00  0.00    +0.086 C 
ATOM     16  C   UNL     1       0.431   0.241   0.015  0.00  0.00    +0.102 A 
ATOM     17  C   UNL     1      -0.694  -0.472   0.205  0.00  0.00    +0.045 A 
ATOM     18  C   UNL     1      -0.318  -1.835   0.219  0.00  0.00    +0.046 A 
ATOM     19  C   UNL     1       1.015  -1.873   0.038  0.00  0.00    +0.122 A 
ATOM     20  O   UNL     1       1.462  -0.614  -0.091  0.00  0.00    -0.463 OA
ENDBRANCH  14  19
ENDBRANCH   1  14
BRANCH   1  21
ATOM     21  C   UNL     1       3.025  -3.114  -2.272  0.00  0.00    +0.193 C 
BRANCH  21  22
ATOM     22  C   UNL     1       3.909  -4.273  -2.657  0.00  0.00    -0.018 A 
ATOM     23  C   UNL     1       4.145  -4.547  -3.991  0.00  0.00    +0.009 A 
ATOM     24  C   UNL     1       4.954  -5.609  -4.346  0.00  0.00    +0.046 A 
ATOM     25  C   UNL     1       5.530  -6.401  -3.363  0.00  0.00    +0.117 A 
ATOM     26  C   UNL     1       5.291  -6.123  -2.025  0.00  0.00    +0.046 A 
ATOM     27  C   UNL     1       4.486  -5.057  -1.675  0.00  0.00    +0.009 A 
BRANCH  25  28
ATOM     28  O   UNL     1       6.325  -7.446  -3.710  0.00  0.00    -0.507 OA
ATOM     29  H   UNL     1       7.261  -7.217  -3.795  0.00  0.00    +0.292 HD
ENDBRANCH  25  28
ENDBRANCH  21  22
BRANCH  21  30
ATOM     30  C   UNL     1       2.434  -2.499  -3.514  0.00  0.00    +0.238 C 
ATOM     31  O   UNL     1       1.230  -2.462  -3.659  0.00  0.00    -0.273 OA
ATOM     32  N   UNL     1       3.243  -1.990  -4.465  0.00  0.00    -0.311 N 
ATOM     33  H   UNL     1       4.206  -2.020  -4.349  0.00  0.00    +0.149 HD
BRANCH  32  34
ATOM     34  C   UNL     1       2.668  -1.392  -5.672  0.00  0.00    +0.073 C 
ATOM     35  C   UNL     1       2.391  -2.489  -6.702  0.00  0.00    +0.022 C 
ATOM     36  C   UNL     1       1.791  -1.865  -7.964  0.00  0.00    +0.002 C 
ATOM     37  C   UNL     1       2.777  -0.852  -8.550  0.00  0.00    +0.000 C 
ATOM     38  C   UNL     1       3.054   0.245  -7.520  0.00  0.00    +0.002 C 
ATOM     39  C   UNL     1       3.654  -0.380  -6.258  0.00  0.00    +0.022 C 
ENDBRANCH  32  34
ENDBRANCH  21  30
ENDBRANCH   1  21
TORSDOF 10
