REMARK  Name = ZINC09358096
REMARK  7 active torsions:
REMARK  status: ('A' for Active; 'I' for Inactive)
REMARK    1  A    between atoms: C_1  and  C_2
REMARK    2  A    between atoms: C_2  and  C_3
REMARK    3  A    between atoms: C_3  and  C_4
REMARK    4  A    between atoms: C_11  and  N_33
REMARK    5  A    between atoms: C_12  and  C_31
REMARK    6  A    between atoms: N_20  and  C_23
REMARK    7  A    between atoms: C_23  and  C_24
REMARK                            x       y       z     vdW  Elec       q    Type
REMARK                         _______ _______ _______ _____ _____    ______ ____
ROOT
ATOM      1  C   UNL     1       0.762  -2.018   1.233  0.00  0.00    +0.045 A 
ATOM      2  C   UNL     1       1.657  -2.794   0.604  0.00  0.00    +0.061 A 
ATOM      3  C   UNL     1       1.317  -4.144   0.851  0.00  0.00    +0.245 A 
ATOM      4  N   UNL     1       0.255  -4.160   1.601  0.00  0.00    -0.135 NA
ATOM      5  N   UNL     1      -0.115  -2.832   1.864  0.00  0.00    -0.278 N 
ATOM      6  H   UNL     1      -0.870  -2.547   2.403  0.00  0.00    +0.189 HD
ATOM      7  O   UNL     1       2.046  -5.173   0.342  0.00  0.00    -0.421 OA
ATOM      8  C   UNL     1       3.252  -4.887  -0.188  0.00  0.00    +0.201 C 
ATOM      9  C   UNL     1       3.683  -3.639  -0.477  0.00  0.00    +0.110 C 
ATOM     10  C   UNL     1       2.844  -2.415  -0.238  0.00  0.00    +0.145 C 
ATOM     11  C   UNL     1       2.418  -1.785  -1.525  0.00  0.00    -0.001 A 
ATOM     12  C   UNL     1       1.661  -2.265  -2.573  0.00  0.00    +0.007 A 
ATOM     13  C   UNL     1       1.446  -1.403  -3.643  0.00  0.00    +0.000 A 
ATOM     14  C   UNL     1       1.968  -0.125  -3.652  0.00  0.00    +0.002 A 
ATOM     15  C   UNL     1       2.730   0.364  -2.603  0.00  0.00    +0.024 A 
ATOM     16  C   UNL     1       2.954  -0.492  -1.523  0.00  0.00    +0.041 A 
ATOM     17  N   UNL     1       3.669  -0.269  -0.360  0.00  0.00    -0.265 N 
ATOM     18  C   UNL     1       3.660  -1.346   0.454  0.00  0.00    +0.241 C 
ATOM     19  O   UNL     1       4.202  -1.439   1.535  0.00  0.00    -0.274 OA
ENDROOT
BRANCH   8  20
ATOM     20  N   UNL     1       4.101  -5.934  -0.450  0.00  0.00    -0.328 N 
ATOM     21  H   UNL     1       3.824  -6.843  -0.254  0.00  0.00    +0.145 HD
ATOM     22  H   UNL     1       4.976  -5.765  -0.831  0.00  0.00    +0.145 HD
ENDBRANCH   8  20
BRANCH   9  23
ATOM     23  C   UNL     1       4.992  -3.477  -1.036  0.00  0.00    +0.102 C 
ATOM     24  N   UNL     1       6.030  -3.347  -1.479  0.00  0.00    -0.191 NA
ENDBRANCH   9  23
BRANCH   1  25
ATOM     25  C   UNL     1       0.742  -0.511   1.242  0.00  0.00    +0.055 C 
BRANCH  25  27
ATOM     26  C   UNL     1      -0.019   1.526   0.010  0.00  0.00    +0.004 C 
ATOM     27  C   UNL     1       0.002  -0.004   0.002  0.00  0.00    +0.003 C 
ENDBRANCH  25  27
ENDBRANCH   1  25
BRANCH  17  28
ATOM     28  C   UNL     1       4.356   0.987  -0.048  0.00  0.00    +0.150 C 
BRANCH  28  29
ATOM     29  C   UNL     1       3.415   1.904   0.689  0.00  0.00    -0.011 A 
ATOM     30  C   UNL     1       2.766   2.919   0.011  0.00  0.00    +0.006 A 
ATOM     31  C   UNL     1       1.902   3.760   0.687  0.00  0.00    +0.000 A 
ATOM     32  C   UNL     1       1.688   3.588   2.042  0.00  0.00    +0.001 A 
ATOM     33  C   UNL     1       2.336   2.574   2.721  0.00  0.00    +0.020 A 
ATOM     34  C   UNL     1       3.196   1.728   2.044  0.00  0.00    +0.046 A 
ATOM     35 CL   UNL     1       4.006   0.450   2.895  0.00  0.00    -0.083 Cl
ENDBRANCH  28  29
ENDBRANCH  17  28
TORSDOF 6
