REMARK  Name = ZINC63503030
REMARK  4 active torsions:
REMARK  status: ('A' for Active; 'I' for Inactive)
REMARK    1  A    between atoms: C_1  and  O_2
REMARK    2  A    between atoms: O_2  and  C_3
REMARK    3  A    between atoms: C_3  and  C_5
REMARK    4  A    between atoms: C_7  and  N_19
REMARK                            x       y       z     vdW  Elec       q    Type
REMARK                         _______ _______ _______ _____ _____    ______ ____
ROOT
ATOM      1  C   UNL     1       0.657  -2.104  -1.120  0.00  0.00    +0.208 C 
ATOM      2  C   UNL     1       1.815  -2.638  -0.265  0.00  0.00    +0.150 C 
ATOM      3  C   UNL     1       2.736  -3.357  -1.252  0.00  0.00    +0.009 A 
ATOM      4  C   UNL     1       3.958  -4.064  -1.155  0.00  0.00    -0.030 A 
ATOM      5  C   UNL     1       4.479  -4.573  -2.297  0.00  0.00    -0.005 A 
ATOM      6  S   UNL     1       3.310  -4.103  -3.542  0.00  0.00    -0.078 S 
ATOM      7  C   UNL     1       2.168  -3.238  -2.478  0.00  0.00    +0.072 A 
ATOM      8  N   UNL     1       0.973  -2.534  -2.486  0.00  0.00    -0.324 N 
ATOM      9  C   UNL     1       5.748  -5.349  -2.455  0.00  0.00    +0.043 C 
ATOM     10  C   UNL     1       6.579  -5.176  -1.175  0.00  0.00    +0.005 C 
ATOM     11  C   UNL     1       5.672  -5.409   0.036  0.00  0.00    +0.005 C 
ATOM     12  C   UNL     1       4.678  -4.255   0.177  0.00  0.00    +0.036 C 
ATOM     13  H   UNL     1       0.432  -2.353  -3.270  0.00  0.00    +0.147 HD
ENDROOT
BRANCH   2  14
ATOM     14  N   UNL     1       1.314  -3.576   0.743  0.00  0.00    -0.344 N 
ATOM     15  C   UNL     1       0.626  -4.725   0.486  0.00  0.00    +0.086 A 
ATOM     16  C   UNL     1       0.337  -5.315   1.664  0.00  0.00    +0.019 A 
ATOM     17  C   UNL     1       0.866  -4.500   2.685  0.00  0.00    +0.019 A 
ATOM     18  C   UNL     1       1.463  -3.446   2.092  0.00  0.00    +0.086 A 
ENDBRANCH   2  14
BRANCH   1  19
ATOM     19  C   UNL     1       0.598  -0.600  -1.043  0.00  0.00    +0.330 C 
ATOM     20  O   UNL     1       1.088   0.070  -1.921  0.00  0.00    -0.249 OA
BRANCH  19  22
ATOM     21  C   UNL     1      -0.017   1.425   0.010  0.00  0.00    +0.280 C 
ATOM     22  O   UNL     1       0.002  -0.004   0.002  0.00  0.00    -0.467 OA
ENDBRANCH  19  22
ENDBRANCH   1  19
TORSDOF 3
