REMARK  Name = ZINC02708577
REMARK  9 active torsions:
REMARK  status: ('A' for Active; 'I' for Inactive)
REMARK    1  A    between atoms: C_1  and  C_2
REMARK    2  A    between atoms: C_2  and  O_3
REMARK    3  A    between atoms: O_3  and  C_4
REMARK    4  A    between atoms: C_6  and  C_11
REMARK    5  A    between atoms: C_9  and  O_10
REMARK    6  A    between atoms: C_12  and  C_13
REMARK    7  A    between atoms: C_12  and  C_15
REMARK    8  A    between atoms: N_17  and  C_18
REMARK    9  A    between atoms: C_19  and  C_27
REMARK                            x       y       z     vdW  Elec       q    Type
REMARK                         _______ _______ _______ _____ _____    ______ ____
ROOT
ATOM      1  C   UNL     1       3.783  -0.999   0.177  0.00  0.00    +0.259 C 
ATOM      2  O   UNL     1       4.824  -0.371   0.170  0.00  0.00    -0.269 OA
ATOM      3  N   UNL     1       3.807  -2.344   0.271  0.00  0.00    -0.275 N 
ATOM      4  H   UNL     1       2.977  -2.845   0.277  0.00  0.00    +0.156 HD
ENDROOT
BRANCH   3   5
ATOM      5  C   UNL     1       5.019  -3.010   0.361  0.00  0.00    +0.085 A 
ATOM      6  C   UNL     1       5.247  -4.374   0.470  0.00  0.00    +0.068 A 
ATOM      7  C   UNL     1       6.628  -4.821   0.544  0.00  0.00    -0.023 A 
ATOM      8  C   UNL     1       7.553  -3.837   0.509  0.00  0.00    -0.004 A 
ATOM      9  S   UNL     1       6.617  -2.340   0.372  0.00  0.00    -0.077 S 
ATOM     10  C   UNL     1       9.041  -3.994   0.575  0.00  0.00    +0.043 C 
ATOM     11  C   UNL     1       9.356  -5.415   1.064  0.00  0.00    +0.005 C 
ATOM     12  C   UNL     1       8.513  -6.411   0.264  0.00  0.00    +0.005 C 
ATOM     13  C   UNL     1       7.041  -6.283   0.660  0.00  0.00    +0.037 C 
BRANCH   6  14
ATOM     14  C   UNL     1       4.136  -5.330   0.504  0.00  0.00    +0.244 C 
ATOM     15  O   UNL     1       3.710  -5.806  -0.532  0.00  0.00    -0.270 OA
ATOM     16  N   UNL     1       3.587  -5.683   1.683  0.00  0.00    -0.325 N 
ATOM     17  H   UNL     1       3.926  -5.304   2.509  0.00  0.00    +0.145 HD
ATOM     18  H   UNL     1       2.852  -6.316   1.706  0.00  0.00    +0.145 HD
ENDBRANCH   6  14
ENDBRANCH   3   5
BRANCH   1  20
ATOM     19  C   UNL     1       2.471   1.082  -0.015  0.00  0.00    +0.032 C 
ATOM     20  C   UNL     1       2.497  -0.292   0.082  0.00  0.00    +0.114 C 
BRANCH  19  23
ATOM     21  C   UNL     1      -0.233   3.674   0.052  0.00  0.00    +0.162 A 
ATOM     22  C   UNL     1       0.960   3.028   0.302  0.00  0.00    +0.057 A 
ATOM     23  C   UNL     1       1.208   1.775  -0.277  0.00  0.00    -0.020 A 
ATOM     24  C   UNL     1       0.242   1.187  -1.106  0.00  0.00    +0.012 A 
ATOM     25  C   UNL     1      -0.942   1.843  -1.353  0.00  0.00    +0.050 A 
ATOM     26  C   UNL     1      -1.189   3.082  -0.774  0.00  0.00    +0.158 A 
BRANCH  26  27
ATOM     27  O   UNL     1      -2.362   3.721  -1.018  0.00  0.00    -0.503 OA
ATOM     28  H   UNL     1      -2.340   4.302  -1.790  0.00  0.00    +0.292 HD
ENDBRANCH  26  27
BRANCH  21  29
ATOM     29  O   UNL     1      -0.478   4.889   0.612  0.00  0.00    -0.489 OA
BRANCH  29  31
ATOM     30  C   UNL     1       0.092   6.797   1.982  0.00  0.00    +0.048 C 
ATOM     31  C   UNL     1       0.544   5.436   1.448  0.00  0.00    +0.226 C 
ENDBRANCH  29  31
ENDBRANCH  21  29
ENDBRANCH  19  23
BRANCH  20  32
ATOM     32  C   UNL     1       1.271  -1.032   0.089  0.00  0.00    +0.104 C 
ATOM     33  N   UNL     1       0.298  -1.619   0.096  0.00  0.00    -0.191 NA
ENDBRANCH  20  32
ENDBRANCH   1  20
TORSDOF 8
