REMARK  Name = ZINC38650024
REMARK  12 active torsions:
REMARK  status: ('A' for Active; 'I' for Inactive)
REMARK    1  A    between atoms: C_1  and  C_2
REMARK    2  A    between atoms: C_2  and  C_3
REMARK    3  A    between atoms: C_3  and  O_4
REMARK    4  A    between atoms: O_4  and  C_5
REMARK    5  A    between atoms: C_8  and  C_11
REMARK    6  A    between atoms: C_11  and  O_13
REMARK    7  A    between atoms: O_13  and  C_14
REMARK    8  A    between atoms: C_21  and  N_35
REMARK    9  A    between atoms: C_22  and  C_33
REMARK   10  A    between atoms: C_23  and  C_25
REMARK   11  A    between atoms: C_30  and  O_31
REMARK   12  A    between atoms: O_31  and  C_32
REMARK                            x       y       z     vdW  Elec       q    Type
REMARK                         _______ _______ _______ _____ _____    ______ ____
ROOT
ATOM      1  C   UNL     1      -7.686  -6.420   0.013  0.00  0.00    +0.135 A 
ATOM      2  C   UNL     1      -8.773  -5.560  -0.055  0.00  0.00    +0.047 A 
ATOM      3  C   UNL     1     -10.056  -6.069  -0.081  0.00  0.00    +0.012 A 
ATOM      4  C   UNL     1     -10.264  -7.437  -0.039  0.00  0.00    +0.008 A 
ATOM      5  C   UNL     1      -9.182  -8.301   0.029  0.00  0.00    +0.138 A 
ATOM      6  C   UNL     1      -7.891  -7.790   0.050  0.00  0.00    +0.093 A 
ATOM      7  O   UNL     1      -9.366  -9.643   0.072  0.00  0.00    -0.441 OA
ATOM      8  C   UNL     1     -10.533 -10.173  -0.332  0.00  0.00    +0.199 C 
ATOM      9  C   UNL     1     -11.664  -9.434  -0.420  0.00  0.00    +0.098 C 
ATOM     10  C   UNL     1     -11.671  -7.973  -0.067  0.00  0.00    +0.101 C 
ENDROOT
BRANCH  10  11
ATOM     11  C   UNL     1     -12.303  -7.790   1.289  0.00  0.00    +0.007 A 
ATOM     12  C   UNL     1     -11.736  -8.382   2.401  0.00  0.00    +0.008 A 
ATOM     13  C   UNL     1     -12.315  -8.215   3.645  0.00  0.00    +0.001 A 
ATOM     14  C   UNL     1     -13.462  -7.455   3.780  0.00  0.00    +0.004 A 
ATOM     15  C   UNL     1     -14.032  -6.861   2.672  0.00  0.00    +0.046 A 
ATOM     16  C   UNL     1     -13.450  -7.022   1.423  0.00  0.00    +0.124 A 
BRANCH  16  17
ATOM     17  O   UNL     1     -14.006  -6.434   0.331  0.00  0.00    -0.495 OA
ATOM     18  C   UNL     1     -15.187  -5.658   0.543  0.00  0.00    +0.277 C 
ENDBRANCH  16  17
ENDBRANCH  10  11
BRANCH   8  19
ATOM     19  N   UNL     1     -10.580 -11.504  -0.665  0.00  0.00    -0.328 N 
ATOM     20  H   UNL     1      -9.778 -12.047  -0.607  0.00  0.00    +0.145 HD
ATOM     21  H   UNL     1     -11.415 -11.901  -0.958  0.00  0.00    +0.145 HD
ENDBRANCH   8  19
BRANCH   9  22
ATOM     22  C   UNL     1     -12.877 -10.056  -0.857  0.00  0.00    +0.101 C 
ATOM     23  N   UNL     1     -13.839 -10.550  -1.204  0.00  0.00    -0.191 NA
ENDBRANCH   9  22
BRANCH   1  24
ATOM     24  O   UNL     1      -6.423  -5.920   0.038  0.00  0.00    -0.422 OA
BRANCH  24  25
ATOM     25  C   UNL     1      -5.699  -5.974  -1.098  0.00  0.00    +0.344 C 
ATOM     26  O   UNL     1      -6.145  -6.539  -2.077  0.00  0.00    -0.245 OA
BRANCH  25  30
ATOM     27  C   UNL     1      -1.859  -4.171  -1.254  0.00  0.00    +0.121 A 
ATOM     28  C   UNL     1      -2.367  -4.817  -2.375  0.00  0.00    +0.046 A 
ATOM     29  C   UNL     1      -3.612  -5.403  -2.329  0.00  0.00    +0.018 A 
ATOM     30  C   UNL     1      -4.365  -5.348  -1.152  0.00  0.00    +0.060 A 
ATOM     31  C   UNL     1      -3.849  -4.698  -0.027  0.00  0.00    +0.018 A 
ATOM     32  C   UNL     1      -2.601  -4.119  -0.080  0.00  0.00    +0.046 A 
BRANCH  27  33
ATOM     33  O   UNL     1      -0.631  -3.594  -1.304  0.00  0.00    -0.492 OA
BRANCH  33  34
ATOM     34  C   UNL     1       0.078  -3.685  -2.542  0.00  0.00    +0.229 C 
BRANCH  34  36
ATOM     35  C   UNL     1       2.190  -3.080  -3.731  0.00  0.00    +0.007 C 
ATOM     36  C   UNL     1       1.431  -2.983  -2.406  0.00  0.00    +0.038 C 
ENDBRANCH  34  36
ENDBRANCH  33  34
ENDBRANCH  27  33
ENDBRANCH  25  30
ENDBRANCH  24  25
ENDBRANCH   1  24
TORSDOF 10
