REMARK  Name = ZINC13065517
REMARK  10 active torsions:
REMARK  status: ('A' for Active; 'I' for Inactive)
REMARK    1  A    between atoms: C_1  and  C_2
REMARK    2  A    between atoms: C_4  and  C_36
REMARK    3  A    between atoms: C_9  and  C_14
REMARK    4  A    between atoms: C_14  and  N_63
REMARK    5  A    between atoms: C_15  and  C_16
REMARK    6  A    between atoms: C_15  and  N_63
REMARK    7  A    between atoms: C_22  and  C_23
REMARK    8  A    between atoms: C_22  and  N_63
REMARK    9  A    between atoms: N_27  and  C_28
REMARK   10  A    between atoms: C_28  and  C_29
REMARK                            x       y       z     vdW  Elec       q    Type
REMARK                         _______ _______ _______ _____ _____    ______ ____
ROOT
ATOM      1  N   UNL     1      -1.602   7.279  -1.746  0.00  0.00    +0.390 N 
ATOM      2  H   UNL     1      -1.038   6.684  -2.364  0.00  0.00    -0.080 HD
ENDROOT
BRANCH   1   3
ATOM      3  C   UNL     1      -1.203   7.032  -0.345  0.00  0.00    -0.036 C 
BRANCH   3  12
ATOM      4  C   UNL     1       2.043   0.329   0.037  0.00  0.00    +0.044 C 
ATOM      5  C   UNL     1       0.829   1.210   0.171  0.00  0.00    -0.050 A 
ATOM      6  C   UNL     1      -0.386   0.654   0.551  0.00  0.00    +0.008 A 
ATOM      7  C   UNL     1      -1.511   1.441   0.675  0.00  0.00    -0.026 A 
ATOM      8  C   UNL     1      -1.428   2.807   0.428  0.00  0.00    +0.052 A 
ATOM      9  C   UNL     1      -0.196   3.367   0.043  0.00  0.00    -0.001 A 
ATOM     10  C   UNL     1       0.932   2.548  -0.082  0.00  0.00    +0.013 A 
ATOM     11  C   UNL     1      -0.120   4.805  -0.220  0.00  0.00    +0.017 A 
ATOM     12  C   UNL     1      -1.246   5.549  -0.082  0.00  0.00    +0.001 A 
ATOM     13  C   UNL     1      -2.458   4.938   0.308  0.00  0.00    +0.251 A 
ATOM     14  O   UNL     1      -3.458   5.625   0.426  0.00  0.00    -0.268 OA
ATOM     15  N   UNL     1      -2.536   3.618   0.551  0.00  0.00    -0.322 N 
ATOM     16  H   UNL     1      -3.385   3.231   0.817  0.00  0.00    +0.169 HD
ATOM     17  C   UNL     1      -2.824   0.823   1.083  0.00  0.00    +0.046 C 
ENDBRANCH   3  12
ENDBRANCH   1   3
BRANCH   1  18
ATOM     18  C   UNL     1      -3.031   6.946  -1.931  0.00  0.00    -0.042 C 
BRANCH  18  19
ATOM     19  C   UNL     1      -3.379   7.085  -3.390  0.00  0.00    -0.064 A 
ATOM     20  C   UNL     1      -3.972   8.246  -3.852  0.00  0.00    +0.002 A 
ATOM     21  C   UNL     1      -4.287   8.375  -5.191  0.00  0.00    +0.000 A 
ATOM     22  C   UNL     1      -4.018   7.341  -6.068  0.00  0.00    +0.000 A 
ATOM     23  C   UNL     1      -3.430   6.178  -5.605  0.00  0.00    +0.000 A 
ATOM     24  C   UNL     1      -3.111   6.051  -4.267  0.00  0.00    +0.002 A 
ENDBRANCH  18  19
ENDBRANCH   1  18
BRANCH   1  25
ATOM     25  C   UNL     1      -1.365   8.695  -2.096  0.00  0.00    +0.001 C 
BRANCH  25  26
ATOM     26  C   UNL     1       0.121   8.940  -2.149  0.00  0.00    +0.135 A 
ATOM     27  N   UNL     1       0.878   9.374  -1.171  0.00  0.00    -0.115 NA
ATOM     28  N   UNL     1       2.088   9.450  -1.608  0.00  0.00    -0.023 NA
ATOM     29  N   UNL     1       2.121   9.082  -2.841  0.00  0.00    -0.044 NA
ATOM     30  N   UNL     1       0.928   8.760  -3.211  0.00  0.00    -0.227 N 
BRANCH  30  31
ATOM     31  C   UNL     1       0.527   8.287  -4.539  0.00  0.00    +0.182 C 
BRANCH  31  32
ATOM     32  C   UNL     1       0.232   9.469  -5.425  0.00  0.00    -0.026 A 
ATOM     33  C   UNL     1      -1.049   9.987  -5.483  0.00  0.00    +0.008 A 
ATOM     34  C   UNL     1      -1.319  11.074  -6.292  0.00  0.00    +0.038 A 
ATOM     35  C   UNL     1      -0.310  11.639  -7.053  0.00  0.00    +0.123 A 
ATOM     36  C   UNL     1       0.971  11.116  -6.999  0.00  0.00    +0.038 A 
ATOM     37  C   UNL     1       1.241  10.032  -6.185  0.00  0.00    +0.008 A 
ATOM     38  F   UNL     1      -0.574  12.698  -7.848  0.00  0.00    -0.205 F 
ENDBRANCH  31  32
ENDBRANCH  30  31
ENDBRANCH  25  26
ENDBRANCH   1  25
TORSDOF 8
