REMARK  Name = ZINC02107400
REMARK  3 active torsions:
REMARK  status: ('A' for Active; 'I' for Inactive)
REMARK    1  A    between atoms: C_11  and  C_15
REMARK    2  A    between atoms: C_16  and  O_31
REMARK    3  A    between atoms: N_21  and  C_24
REMARK                            x       y       z     vdW  Elec       q    Type
REMARK                         _______ _______ _______ _____ _____    ______ ____
ROOT
ATOM      1  C   UNL     1       1.391   2.787   0.489  0.00  0.00    +0.068 A 
ATOM      2  C   UNL     1       1.213   1.531  -0.014  0.00  0.00    +0.199 A 
ATOM      3  N   UNL     1       2.290   0.848  -0.519  0.00  0.00    -0.306 N 
ATOM      4  H   UNL     1       2.167  -0.044  -0.881  0.00  0.00    +0.171 HD
ATOM      5  C   UNL     1       3.514   1.405  -0.515  0.00  0.00    +0.168 A 
ATOM      6  S   UNL     1       4.841   0.530  -1.152  0.00  0.00    -0.012 S 
ATOM      7  N   UNL     1       3.712   2.640  -0.019  0.00  0.00    -0.256 N 
ATOM      8  C   UNL     1       2.681   3.346   0.487  0.00  0.00    +0.265 A 
ATOM      9  O   UNL     1       2.865   4.465   0.936  0.00  0.00    -0.267 OA
ENDROOT
BRANCH   1  20
ATOM     10  C   UNL     1      -0.824   8.846  -1.699  0.00  0.00    +0.001 A 
ATOM     11  C   UNL     1      -0.650   8.097  -2.852  0.00  0.00    +0.002 A 
ATOM     12  C   UNL     1      -0.372   6.742  -2.816  0.00  0.00    +0.026 A 
ATOM     13  C   UNL     1      -0.272   6.151  -1.558  0.00  0.00    +0.047 A 
ATOM     14  C   UNL     1      -0.451   6.923  -0.380  0.00  0.00    +0.003 A 
ATOM     15  C   UNL     1      -0.731   8.291  -0.447  0.00  0.00    +0.010 A 
ATOM     16  C   UNL     1      -0.281   6.006   0.725  0.00  0.00    -0.022 A 
ATOM     17  C   UNL     1      -0.022   4.786   0.195  0.00  0.00    +0.011 A 
ATOM     18  N   UNL     1      -0.014   4.867  -1.168  0.00  0.00    -0.359 N 
ATOM     19  H   UNL     1       0.148   4.124  -1.770  0.00  0.00    +0.166 HD
ATOM     20  C   UNL     1       0.223   3.561   1.043  0.00  0.00    +0.018 C 
ATOM     21  C   UNL     1      -0.498   4.920   2.923  0.00  0.00    -0.076 C 
ATOM     22  C   UNL     1      -0.362   6.271   2.207  0.00  0.00    +0.018 C 
ATOM     23  N   UNL     1       0.534   3.988   2.425  0.00  0.00    +0.388 N 
ATOM     24  H   UNL     1       1.447   4.458   2.435  0.00  0.00    -0.084 HD
ATOM     25  H   UNL     1       0.567   3.163   3.034  0.00  0.00    -0.084 HD
ENDBRANCH   1  20
BRANCH   7  26
ATOM     26  C   UNL     1       4.998   3.196  -0.028  0.00  0.00    +0.052 A 
ATOM     27  C   UNL     1       5.426   3.940  -1.119  0.00  0.00    +0.027 A 
ATOM     28  C   UNL     1       6.693   4.490  -1.124  0.00  0.00    +0.017 A 
ATOM     29  C   UNL     1       7.538   4.293  -0.047  0.00  0.00    +0.018 A 
ATOM     30  C   UNL     1       7.115   3.548   1.040  0.00  0.00    +0.017 A 
ATOM     31  C   UNL     1       5.848   2.999   1.052  0.00  0.00    +0.027 A 
ATOM     32 BR   UNL     1       9.274   5.042  -0.060  0.00  0.00    -0.050 Br
ENDBRANCH   7  26
BRANCH   2  33
ATOM     33  O   UNL     1      -0.014   0.969  -0.019  0.00  0.00    -0.493 OA
ATOM     34  H   UNL     1      -0.037   0.080  -0.399  0.00  0.00    +0.294 HD
ENDBRANCH   2  33
TORSDOF 3
