REMARK  Name = ZINC18107056
REMARK  2 active torsions:
REMARK  status: ('A' for Active; 'I' for Inactive)
REMARK    1  A    between atoms: C_4  and  C_7
REMARK    2  A    between atoms: C_12  and  C_22
REMARK                            x       y       z     vdW  Elec       q    Type
REMARK                         _______ _______ _______ _____ _____    ______ ____
ROOT
ATOM      1  C   UNL     1       1.071   3.314  -0.670  0.00  0.00    +0.032 C 
ATOM      2  C   UNL     1      -0.034   4.038   0.098  0.00  0.00    +0.059 C 
ATOM      3  C   UNL     1      -1.313   3.219   0.061  0.00  0.00    +0.017 C 
ATOM      4  C   UNL     1      -1.263   1.877   0.018  0.00  0.00    +0.039 C 
ATOM      5  C   UNL     1      -2.452   0.946  -0.016  0.00  0.00    +0.172 C 
ATOM      6  N   UNL     1      -3.723   1.584   0.253  0.00  0.00    -0.329 N 
ATOM      7  C   UNL     1      -4.240   2.549  -0.610  0.00  0.00    +0.049 A 
ATOM      8  C   UNL     1      -5.377   2.308  -1.364  0.00  0.00    +0.025 A 
ATOM      9  C   UNL     1      -5.790   3.251  -2.290  0.00  0.00    +0.002 A 
ATOM     10  C   UNL     1      -5.076   4.422  -2.462  0.00  0.00    +0.002 A 
ATOM     11  C   UNL     1      -3.952   4.675  -1.695  0.00  0.00    +0.025 A 
ATOM     12  C   UNL     1      -3.548   3.741  -0.756  0.00  0.00    +0.052 A 
ATOM     13  N   UNL     1      -2.457   3.950   0.080  0.00  0.00    -0.316 N 
ATOM     14  C   UNL     1      -0.014   1.211   0.009  0.00  0.00    +0.163 C 
ATOM     15  O   UNL     1       0.002  -0.004   0.002  0.00  0.00    -0.292 OA
ATOM     16  C   UNL     1       1.289   1.952   0.000  0.00  0.00    +0.088 C 
ATOM     17  H   UNL     1      -4.224   1.336   1.046  0.00  0.00    +0.147 HD
ATOM     18  H   UNL     1      -2.518   4.673   0.724  0.00  0.00    +0.152 HD
ENDROOT
BRANCH   1  22
ATOM     19  C   UNL     1       4.677   5.599  -0.514  0.00  0.00    +0.000 A 
ATOM     20  C   UNL     1       4.114   5.278  -1.735  0.00  0.00    +0.000 A 
ATOM     21  C   UNL     1       2.947   4.539  -1.785  0.00  0.00    +0.004 A 
ATOM     22  C   UNL     1       2.343   4.120  -0.615  0.00  0.00    -0.044 A 
ATOM     23  C   UNL     1       2.903   4.445   0.607  0.00  0.00    +0.004 A 
ATOM     24  C   UNL     1       4.073   5.180   0.657  0.00  0.00    +0.000 A 
ENDBRANCH   1  22
BRANCH   5  25
ATOM     25  C   UNL     1      -2.516   0.311  -1.381  0.00  0.00    +0.130 A 
ATOM     26  C   UNL     1      -2.001  -0.886  -1.717  0.00  0.00    +0.047 A 
ATOM     27  C   UNL     1      -2.289  -1.085  -3.087  0.00  0.00    +0.041 A 
ATOM     28  C   UNL     1      -2.962   0.001  -3.506  0.00  0.00    +0.195 A 
ATOM     29  O   UNL     1      -3.102   0.840  -2.467  0.00  0.00    -0.466 OA
ENDBRANCH   5  25
TORSDOF 2
