REMARK  Name = ZINC39766182
REMARK  9 active torsions:
REMARK  status: ('A' for Active; 'I' for Inactive)
REMARK    1  A    between atoms: C_4  and  C_7
REMARK    2  A    between atoms: C_7  and  N_8
REMARK    3  A    between atoms: C_9  and  C_29
REMARK    4  A    between atoms: C_12  and  S_13
REMARK    5  A    between atoms: S_13  and  C_14
REMARK    6  A    between atoms: C_14  and  C_15
REMARK    7  A    between atoms: N_17  and  C_18
REMARK    8  A    between atoms: C_22  and  N_24
REMARK    9  A    between atoms: C_33  and  N_35
REMARK                            x       y       z     vdW  Elec       q    Type
REMARK                         _______ _______ _______ _____ _____    ______ ____
ROOT
ATOM      1  N   UNL     1       3.847  -0.560   1.917  0.00  0.00    -0.298 N 
ATOM      2  C   UNL     1       5.052  -0.100   2.397  0.00  0.00    +0.165 A 
ATOM      3  N   UNL     1       5.498  -1.000   3.242  0.00  0.00    -0.128 NA
ATOM      4  N   UNL     1       4.667  -1.976   3.323  0.00  0.00    -0.122 NA
ATOM      5  C   UNL     1       3.636  -1.758   2.537  0.00  0.00    +0.193 A 
ENDROOT
BRANCH   2   6
ATOM      6  C   UNL     1       5.718   1.167   2.029  0.00  0.00    +0.021 A 
ATOM      7  C   UNL     1       5.609   1.665   0.730  0.00  0.00    +0.012 A 
ATOM      8  C   UNL     1       6.233   2.849   0.393  0.00  0.00    +0.003 A 
ATOM      9  C   UNL     1       6.966   3.541   1.341  0.00  0.00    +0.033 A 
ATOM     10  C   UNL     1       7.079   3.053   2.630  0.00  0.00    +0.127 A 
ATOM     11  C   UNL     1       6.454   1.874   2.981  0.00  0.00    +0.044 A 
BRANCH  10  12
ATOM     12  N   UNL     1       7.865   3.801   3.637  0.00  0.00    +0.056 N 
ATOM     13  O   UNL     1       8.408   4.837   3.332  0.00  0.00    -0.126 OA
ATOM     14  O   UNL     1       7.964   3.376   4.764  0.00  0.00    -0.126 OA
ENDBRANCH  10  12
ENDBRANCH   2   6
BRANCH   1  15
ATOM     15  C   UNL     1       2.970   0.102   0.947  0.00  0.00    +0.161 C 
BRANCH  15  19
ATOM     16  C   UNL     1       0.557   3.001   2.951  0.00  0.00    +0.000 A 
ATOM     17  C   UNL     1       1.787   3.363   2.436  0.00  0.00    +0.000 A 
ATOM     18  C   UNL     1       2.568   2.425   1.788  0.00  0.00    +0.005 A 
ATOM     19  C   UNL     1       2.119   1.124   1.655  0.00  0.00    -0.028 A 
ATOM     20  C   UNL     1       0.889   0.762   2.171  0.00  0.00    +0.005 A 
ATOM     21  C   UNL     1       0.107   1.700   2.819  0.00  0.00    +0.000 A 
ENDBRANCH  15  19
ENDBRANCH   1  15
BRANCH   5  22
ATOM     22  S   UNL     1       2.243  -2.815   2.322  0.00  0.00    -0.077 S 
BRANCH  22  23
ATOM     23  C   UNL     1       2.584  -4.218   3.420  0.00  0.00    +0.173 C 
BRANCH  23  24
ATOM     24  C   UNL     1       1.454  -5.212   3.331  0.00  0.00    +0.227 C 
ATOM     25  O   UNL     1       0.511  -4.994   2.599  0.00  0.00    -0.275 OA
ATOM     26  N   UNL     1       1.490  -6.342   4.065  0.00  0.00    -0.285 N 
ATOM     27  H   UNL     1       2.204  -6.480   4.707  0.00  0.00    +0.155 HD
BRANCH  26  28
ATOM     28  C   UNL     1       0.499  -7.315   3.901  0.00  0.00    +0.035 A 
ATOM     29  C   UNL     1      -0.120  -7.476   2.667  0.00  0.00    +0.023 A 
ATOM     30  C   UNL     1      -1.100  -8.436   2.504  0.00  0.00    +0.004 A 
ATOM     31  C   UNL     1      -1.467  -9.240   3.566  0.00  0.00    +0.023 A 
ATOM     32  C   UNL     1      -0.851  -9.085   4.802  0.00  0.00    +0.031 A 
ATOM     33  C   UNL     1       0.137  -8.124   4.968  0.00  0.00    +0.046 A 
BRANCH  32  34
ATOM     34  N   UNL     1      -1.222  -9.898   5.875  0.00  0.00    -0.330 N 
ATOM     35  C   UNL     1      -0.660  -9.836   7.232  0.00  0.00    +0.105 C 
ATOM     36  C   UNL     1      -1.353 -10.935   8.066  0.00  0.00    +0.020 C 
ATOM     37  C   UNL     1      -1.859 -11.925   6.984  0.00  0.00    +0.020 C 
ATOM     38  C   UNL     1      -2.248 -10.957   5.836  0.00  0.00    +0.105 C 
ENDBRANCH  32  34
ENDBRANCH  26  28
ENDBRANCH  23  24
ENDBRANCH  22  23
ENDBRANCH   5  22
TORSDOF 9
