REMARK  Name = ZINC34707141
REMARK  14 active torsions:
REMARK  status: ('A' for Active; 'I' for Inactive)
REMARK    1  A    between atoms: C_1  and  C_2
REMARK    2  A    between atoms: C_2  and  C_4
REMARK    3  A    between atoms: C_2  and  N_17
REMARK    4  A    between atoms: N_14  and  C_15
REMARK    5  A    between atoms: N_17  and  C_18
REMARK    6  A    between atoms: C_18  and  C_19
REMARK    7  A    between atoms: C_19  and  C_20
REMARK    8  A    between atoms: C_20  and  C_21
REMARK    9  A    between atoms: C_21  and  C_22
REMARK   10  A    between atoms: C_22  and  C_23
REMARK   11  A    between atoms: C_23  and  N_24
REMARK   12  A    between atoms: C_25  and  C_27
REMARK   13  A    between atoms: C_27  and  O_28
REMARK   14  A    between atoms: O_28  and  C_29
REMARK                            x       y       z     vdW  Elec       q    Type
REMARK                         _______ _______ _______ _____ _____    ______ ____
ROOT
ATOM      1  N   UNL     1       0.666  -0.594   1.311  0.00  0.00    -0.289 N 
ATOM      2  C   UNL     1       1.880  -0.128   1.667  0.00  0.00    +0.254 C 
ATOM      3  O   UNL     1       2.442  -0.582   2.641  0.00  0.00    -0.272 OA
ENDROOT
BRANCH   1   5
ATOM      4  C   UNL     1      -0.068   1.393   0.088  0.00  0.00    +0.036 C 
ATOM      5  C   UNL     1       0.041  -0.134   0.069  0.00  0.00    +0.139 C 
BRANCH   5   6
ATOM      6  C   UNL     1       0.881  -0.562  -1.107  0.00  0.00    +0.133 A 
ATOM      7  N   UNL     1       1.927  -1.297  -0.880  0.00  0.00    -0.232 NA
ATOM      8  C   UNL     1       2.730  -1.721  -1.888  0.00  0.00    +0.080 A 
ATOM      9  C   UNL     1       3.855  -2.512  -1.647  0.00  0.00    +0.048 A 
ATOM     10  C   UNL     1       4.639  -2.918  -2.706  0.00  0.00    +0.043 A 
ATOM     11  C   UNL     1       4.323  -2.549  -4.008  0.00  0.00    +0.021 A 
ATOM     12  C   UNL     1       3.226  -1.775  -4.268  0.00  0.00    +0.017 A 
ATOM     13  C   UNL     1       2.416  -1.352  -3.216  0.00  0.00    +0.065 A 
ATOM     14  C   UNL     1       1.225  -0.519  -3.437  0.00  0.00    +0.262 A 
ATOM     15  O   UNL     1       0.899  -0.167  -4.555  0.00  0.00    -0.267 OA
ATOM     16  N   UNL     1       0.502  -0.165  -2.349  0.00  0.00    -0.298 N 
ATOM     17  C   UNL     1      -0.698   0.660  -2.513  0.00  0.00    +0.154 C 
ATOM     18 CL   UNL     1       6.038  -3.901  -2.408  0.00  0.00    -0.083 Cl
ENDBRANCH   5   6
ENDBRANCH   1   5
BRANCH   1  19
ATOM     19  C   UNL     1      -0.027  -1.561   2.165  0.00  0.00    +0.108 C 
BRANCH  19  20
ATOM     20  C   UNL     1       0.358  -2.981   1.746  0.00  0.00    +0.019 C 
BRANCH  20  21
ATOM     21  C   UNL     1      -0.366  -3.991   2.638  0.00  0.00    +0.001 C 
BRANCH  21  22
ATOM     22  C   UNL     1       0.019  -5.411   2.218  0.00  0.00    -0.002 C 
BRANCH  22  23
ATOM     23  C   UNL     1      -0.705  -6.420   3.111  0.00  0.00    -0.020 C 
BRANCH  23  24
ATOM     24  C   UNL     1      -0.320  -7.840   2.691  0.00  0.00    -0.086 C 
BRANCH  24  25
ATOM     25  N   UNL     1      -1.015  -8.810   3.548  0.00  0.00    +0.378 N 
ATOM     26  H   UNL     1      -0.762  -9.746   3.272  0.00  0.00    -0.090 HD
ATOM     27  H   UNL     1      -0.750  -8.660   4.510  0.00  0.00    -0.090 HD
ATOM     28  H   UNL     1      -2.013  -8.690   3.452  0.00  0.00    -0.090 HD
ENDBRANCH  24  25
ENDBRANCH  23  24
ENDBRANCH  22  23
ENDBRANCH  21  22
ENDBRANCH  20  21
ENDBRANCH  19  20
ENDBRANCH   1  19
BRANCH   2  29
ATOM     29  C   UNL     1       2.539   0.956   0.854  0.00  0.00    +0.324 C 
BRANCH  29  30
ATOM     30  O   UNL     1       3.867   1.172   1.336  0.00  0.00    -0.483 OA
BRANCH  30  31
ATOM     31  C   UNL     1       4.604   2.125   0.707  0.00  0.00    +0.121 A 
ATOM     32  C   UNL     1       4.059   2.841  -0.348  0.00  0.00    +0.045 A 
ATOM     33  C   UNL     1       4.810   3.810  -0.986  0.00  0.00    +0.004 A 
ATOM     34  C   UNL     1       6.105   4.065  -0.573  0.00  0.00    +0.000 A 
ATOM     35  C   UNL     1       6.651   3.353   0.479  0.00  0.00    +0.004 A 
ATOM     36  C   UNL     1       5.901   2.388   1.124  0.00  0.00    +0.045 A 
ENDBRANCH  30  31
ENDBRANCH  29  30
ENDBRANCH   2  29
TORSDOF 12
