REMARK  Name = ZINC30922871
REMARK  10 active torsions:
REMARK  status: ('A' for Active; 'I' for Inactive)
REMARK    1  A    between atoms: C_1  and  C_2
REMARK    2  A    between atoms: C_4  and  C_32
REMARK    3  A    between atoms: C_6  and  C_31
REMARK    4  A    between atoms: C_10  and  C_11
REMARK    5  A    between atoms: N_13  and  C_14
REMARK    6  A    between atoms: C_14  and  C_16
REMARK    7  A    between atoms: C_14  and  C_27
REMARK    8  A    between atoms: C_16  and  C_17
REMARK    9  A    between atoms: C_27  and  O_29
REMARK   10  A    between atoms: O_29  and  C_30
REMARK                            x       y       z     vdW  Elec       q    Type
REMARK                         _______ _______ _______ _____ _____    ______ ____
ROOT
ATOM      1  C   UNL     1       4.356  -2.937  -1.054  0.00  0.00    +0.252 C 
ATOM      2  O   UNL     1       5.518  -2.586  -1.138  0.00  0.00    -0.270 OA
ATOM      3  N   UNL     1       4.024  -4.226  -1.263  0.00  0.00    -0.298 N 
ATOM      4  H   UNL     1       2.974  -4.543  -1.187  0.00  0.00    +0.150 HD
ENDROOT
BRANCH   1  14
ATOM      5  C   UNL     1       4.815   0.018  -0.536  0.00  0.00    +0.046 C 
ATOM      6  C   UNL     1       3.452  -0.623  -0.481  0.00  0.00    -0.020 A 
ATOM      7  C   UNL     1       2.321   0.153  -0.180  0.00  0.00    +0.032 A 
ATOM      8  C   UNL     1       2.233   1.539   0.103  0.00  0.00    +0.050 A 
ATOM      9  N   UNL     1       1.058   2.070   0.361  0.00  0.00    -0.237 NA
ATOM     10  C   UNL     1      -0.056   1.358   0.369  0.00  0.00    +0.128 A 
ATOM     11  N   UNL     1      -0.045   0.064   0.114  0.00  0.00    -0.225 NA
ATOM     12  C   UNL     1       1.087  -0.548  -0.154  0.00  0.00    +0.113 A 
ATOM     13  S   UNL     1       1.558  -2.214  -0.543  0.00  0.00    -0.064 S 
ATOM     14  C   UNL     1       3.314  -1.954  -0.724  0.00  0.00    +0.079 A 
ATOM     15  C   UNL     1      -1.366   2.040   0.668  0.00  0.00    +0.088 C 
ATOM     16  C   UNL     1       3.473   2.395   0.107  0.00  0.00    +0.066 C 
ENDBRANCH   1  14
BRANCH   3  17
ATOM     17  C   UNL     1       5.063  -5.205  -1.591  0.00  0.00    +0.186 C 
BRANCH  17  18
ATOM     18  C   UNL     1       5.686  -5.723  -0.320  0.00  0.00    +0.328 C 
ATOM     19  O   UNL     1       5.302  -5.314   0.750  0.00  0.00    -0.249 OA
BRANCH  18  20
ATOM     20  O   UNL     1       6.667  -6.636  -0.377  0.00  0.00    -0.467 OA
ATOM     21  C   UNL     1       7.221  -7.089   0.886  0.00  0.00    +0.280 C 
ENDBRANCH  18  20
ENDBRANCH  17  18
BRANCH  17  22
ATOM     22  C   UNL     1       4.440  -6.370  -2.364  0.00  0.00    +0.071 C 
BRANCH  22  23
ATOM     23  C   UNL     1       3.925  -5.874  -3.691  0.00  0.00    -0.020 A 
ATOM     24  C   UNL     1       2.669  -5.491  -3.968  0.00  0.00    +0.087 A 
ATOM     25  N   UNL     1       2.577  -5.101  -5.276  0.00  0.00    -0.360 N 
ATOM     26  H   UNL     1       1.616  -4.748  -5.679  0.00  0.00    +0.165 HD
ATOM     27  C   UNL     1       3.802  -5.234  -5.891  0.00  0.00    +0.047 A 
ATOM     28  C   UNL     1       4.700  -5.724  -4.925  0.00  0.00    +0.003 A 
ATOM     29  C   UNL     1       6.033  -5.959  -5.268  0.00  0.00    +0.010 A 
ATOM     30  C   UNL     1       6.458  -5.710  -6.543  0.00  0.00    +0.001 A 
ATOM     31  C   UNL     1       5.576  -5.228  -7.500  0.00  0.00    +0.002 A 
ATOM     32  C   UNL     1       4.257  -4.989  -7.182  0.00  0.00    +0.026 A 
ENDBRANCH  22  23
ENDBRANCH  17  22
ENDBRANCH   3  17
TORSDOF 6
