REMARK  Name = ZINC34683895
REMARK  10 active torsions:
REMARK  status: ('A' for Active; 'I' for Inactive)
REMARK    1  A    between atoms: C_1  and  C_2
REMARK    2  A    between atoms: C_5  and  S_8
REMARK    3  A    between atoms: S_8  and  N_11
REMARK    4  A    between atoms: N_11  and  C_12
REMARK    5  A    between atoms: N_11  and  C_18
REMARK    6  A    between atoms: N_21  and  C_24
REMARK    7  A    between atoms: C_24  and  C_25
REMARK    8  A    between atoms: C_29  and  O_32
REMARK    9  A    between atoms: C_30  and  O_31
REMARK   10  A    between atoms: O_32  and  C_33
REMARK                            x       y       z     vdW  Elec       q    Type
REMARK                         _______ _______ _______ _____ _____    ______ ____
ROOT
ATOM      1  C   UNL     1       1.998  -5.895  -1.140  0.00  0.00    +0.095 C 
ATOM      2  C   UNL     1       3.492  -5.771  -1.450  0.00  0.00    +0.006 C 
ATOM      3  C   UNL     1       3.864  -6.766  -2.552  0.00  0.00    -0.077 C 
ATOM      4  N   UNL     1       3.568  -8.131  -2.102  0.00  0.00    +0.383 N 
ATOM      5  C   UNL     1       2.126  -8.279  -1.872  0.00  0.00    -0.077 C 
ATOM      6  C   UNL     1       1.688  -7.342  -0.744  0.00  0.00    +0.006 C 
ATOM      7  H   UNL     1       4.066  -8.317  -1.244  0.00  0.00    -0.081 HD
ENDROOT
BRANCH   1   8
ATOM      8  N   UNL     1       1.651  -4.999  -0.034  0.00  0.00    -0.200 N 
BRANCH   8   9
ATOM      9  C   UNL     1       2.304  -5.121   1.194  0.00  0.00    +0.052 A 
ATOM     10  C   UNL     1       3.455  -4.385   1.447  0.00  0.00    +0.025 A 
ATOM     11  C   UNL     1       4.098  -4.507   2.663  0.00  0.00    +0.002 A 
ATOM     12  C   UNL     1       3.598  -5.362   3.629  0.00  0.00    +0.000 A 
ATOM     13  C   UNL     1       2.452  -6.096   3.380  0.00  0.00    +0.002 A 
ATOM     14  C   UNL     1       1.801  -5.974   2.169  0.00  0.00    +0.025 A 
ENDBRANCH   8   9
BRANCH   8  15
ATOM     15  S   UNL     1       0.484  -3.842  -0.241  0.00  0.00    +0.075 S 
ATOM     16  O   UNL     1      -0.086  -3.607   1.039  0.00  0.00    -0.150 OA
ATOM     17  O   UNL     1      -0.294  -4.246  -1.359  0.00  0.00    -0.150 OA
BRANCH  15  22
ATOM     18  C   UNL     1       3.286   1.256  -1.842  0.00  0.00    +0.044 C 
ATOM     19  C   UNL     1       2.587  -0.018  -1.442  0.00  0.00    -0.050 A 
ATOM     20  C   UNL     1       2.166  -0.909  -2.411  0.00  0.00    +0.005 A 
ATOM     21  C   UNL     1       1.524  -2.077  -2.045  0.00  0.00    +0.029 A 
ATOM     22  C   UNL     1       1.303  -2.354  -0.708  0.00  0.00    +0.109 A 
ATOM     23  C   UNL     1       1.724  -1.463   0.261  0.00  0.00    +0.029 A 
ATOM     24  C   UNL     1       2.370  -0.297  -0.105  0.00  0.00    +0.005 A 
ENDBRANCH  15  22
ENDBRANCH   8  15
ENDBRANCH   1   8
BRANCH   4  25
ATOM     25  C   UNL     1       3.998  -9.088  -3.131  0.00  0.00    -0.039 C 
BRANCH  25  26
ATOM     26  C   UNL     1       3.809 -10.493  -2.621  0.00  0.00    -0.019 A 
ATOM     27  C   UNL     1       4.887 -11.197  -2.117  0.00  0.00    +0.005 A 
ATOM     28  C   UNL     1       4.717 -12.486  -1.649  0.00  0.00    +0.004 A 
ATOM     29  C   UNL     1       3.468 -13.078  -1.682  0.00  0.00    +0.049 A 
ATOM     30  C   UNL     1       2.383 -12.378  -2.185  0.00  0.00    +0.161 A 
ATOM     31  C   UNL     1       2.554 -11.078  -2.652  0.00  0.00    +0.160 A 
BRANCH  31  32
ATOM     32  O   UNL     1       1.491 -10.385  -3.142  0.00  0.00    -0.503 OA
ATOM     33  H   UNL     1       1.350 -10.500  -4.091  0.00  0.00    +0.292 HD
ENDBRANCH  31  32
BRANCH  30  34
ATOM     34  O   UNL     1       1.154 -12.959  -2.219  0.00  0.00    -0.491 OA
ATOM     35  C   UNL     1       1.053 -14.293  -1.718  0.00  0.00    +0.277 C 
ENDBRANCH  30  34
ENDBRANCH  25  26
ENDBRANCH   4  25
TORSDOF 8
