REMARK  Name = ZINC16668843
REMARK  10 active torsions:
REMARK  status: ('A' for Active; 'I' for Inactive)
REMARK    1  A    between atoms: C_1  and  C_2
REMARK    2  A    between atoms: C_5  and  C_8
REMARK    3  A    between atoms: C_11  and  S_20
REMARK    4  A    between atoms: N_12  and  C_13
REMARK    5  A    between atoms: C_16  and  C_19
REMARK    6  A    between atoms: S_20  and  C_21
REMARK    7  A    between atoms: C_21  and  C_22
REMARK    8  A    between atoms: C_22  and  C_24
REMARK    9  A    between atoms: C_25  and  N_36
REMARK   10  A    between atoms: N_26  and  C_33
REMARK                            x       y       z     vdW  Elec       q    Type
REMARK                         _______ _______ _______ _____ _____    ______ ____
ROOT
ATOM      1  C   UNL     1      -2.092   0.913  -0.728  0.00  0.00    +0.169 A 
ATOM      2  N   UNL     1      -2.265  -0.335  -0.361  0.00  0.00    -0.128 NA
ATOM      3  N   UNL     1      -3.518  -0.588  -0.236  0.00  0.00    -0.122 NA
ATOM      4  C   UNL     1      -4.226   0.484  -0.515  0.00  0.00    +0.197 A 
ATOM      5  N   UNL     1      -3.344   1.480  -0.833  0.00  0.00    -0.270 N 
ENDROOT
BRANCH   1  10
ATOM      6  C   UNL     1       2.939   3.538  -1.683  0.00  0.00    +0.044 C 
ATOM      7  C   UNL     1       1.621   2.849  -1.436  0.00  0.00    -0.050 A 
ATOM      8  C   UNL     1       0.451   3.408  -1.917  0.00  0.00    +0.004 A 
ATOM      9  C   UNL     1      -0.758   2.783  -1.694  0.00  0.00    +0.012 A 
ATOM     10  C   UNL     1      -0.800   1.586  -0.976  0.00  0.00    +0.020 A 
ATOM     11  C   UNL     1       0.385   1.025  -0.497  0.00  0.00    +0.012 A 
ATOM     12  C   UNL     1       1.588   1.661  -0.728  0.00  0.00    +0.004 A 
ENDBRANCH   1  10
BRANCH   5  13
ATOM     13  C   UNL     1      -3.650   2.800  -1.193  0.00  0.00    +0.051 A 
ATOM     14  C   UNL     1      -3.302   3.849  -0.352  0.00  0.00    +0.026 A 
ATOM     15  C   UNL     1      -3.600   5.148  -0.712  0.00  0.00    +0.005 A 
ATOM     16  C   UNL     1      -4.252   5.405  -1.904  0.00  0.00    -0.050 A 
ATOM     17  C   UNL     1      -4.604   4.362  -2.741  0.00  0.00    +0.005 A 
ATOM     18  C   UNL     1      -4.305   3.061  -2.389  0.00  0.00    +0.026 A 
ATOM     19  C   UNL     1      -4.581   6.824  -2.291  0.00  0.00    +0.044 C 
ENDBRANCH   5  13
BRANCH   4  20
ATOM     20  S   UNL     1      -5.983   0.616  -0.479  0.00  0.00    -0.078 S 
BRANCH  20  21
ATOM     21  C   UNL     1      -6.414  -1.069   0.024  0.00  0.00    +0.157 C 
BRANCH  21  22
ATOM     22  C   UNL     1      -7.912  -1.195   0.124  0.00  0.00    +0.182 C 
ATOM     23  O   UNL     1      -8.620  -0.239  -0.121  0.00  0.00    -0.291 OA
BRANCH  22  24
ATOM     24  C   UNL     1      -8.493  -2.425   0.503  0.00  0.00    +0.120 A 
ATOM     25  C   UNL     1      -9.887  -2.603   0.490  0.00  0.00    +0.116 A 
ATOM     26  N   UNL     1     -10.402  -3.813   0.859  0.00  0.00    -0.278 N 
ATOM     27  C   UNL     1      -9.605  -4.822   1.242  0.00  0.00    +0.331 A 
ATOM     28  O   UNL     1     -10.112  -5.878   1.567  0.00  0.00    -0.246 OA
ATOM     29  N   UNL     1      -8.267  -4.709   1.280  0.00  0.00    -0.274 N 
ATOM     30  H   UNL     1      -7.714  -5.489   1.573  0.00  0.00    +0.173 HD
ATOM     31  C   UNL     1      -7.660  -3.557   0.929  0.00  0.00    +0.266 A 
ATOM     32  O   UNL     1      -6.448  -3.458   0.964  0.00  0.00    -0.267 OA
BRANCH  26  33
ATOM     33  C   UNL     1     -11.854  -4.010   0.843  0.00  0.00    +0.094 C 
ATOM     34  C   UNL     1     -12.385  -5.292   0.198  0.00  0.00    +0.027 C 
ATOM     35  C   UNL     1     -12.560  -3.948  -0.512  0.00  0.00    +0.027 C 
ENDBRANCH  26  33
BRANCH  25  36
ATOM     36  N   UNL     1     -10.710  -1.588   0.110  0.00  0.00    -0.344 N 
ATOM     37  H   UNL     1     -10.345  -0.708  -0.069  0.00  0.00    +0.144 HD
ATOM     38  H   UNL     1     -11.663  -1.746   0.017  0.00  0.00    +0.144 HD
ENDBRANCH  25  36
ENDBRANCH  22  24
ENDBRANCH  21  22
ENDBRANCH  20  21
ENDBRANCH   4  20
TORSDOF 8
