REMARK  Name = ZINC03343949
REMARK  10 active torsions:
REMARK  status: ('A' for Active; 'I' for Inactive)
REMARK    1  A    between atoms: C_7  and  C_11
REMARK    2  A    between atoms: C_11  and  C_12
REMARK    3  A    between atoms: C_12  and  C_14
REMARK    4  A    between atoms: C_12  and  N_29
REMARK    5  A    between atoms: C_14  and  O_16
REMARK    6  A    between atoms: O_16  and  C_17
REMARK    7  A    between atoms: C_17  and  C_18
REMARK    8  A    between atoms: N_20  and  C_21
REMARK    9  A    between atoms: C_21  and  C_22
REMARK   10  A    between atoms: C_30  and  C_32
REMARK                            x       y       z     vdW  Elec       q    Type
REMARK                         _______ _______ _______ _____ _____    ______ ____
ROOT
ATOM      1  C   UNL     1       2.453  -4.278  -0.045  0.00  0.00    +0.186 C 
ENDROOT
BRANCH   1   2
ATOM      2  N   UNL     1       2.427  -2.813  -0.037  0.00  0.00    -0.298 N 
ATOM      3  C   UNL     1       1.248  -2.160  -0.022  0.00  0.00    +0.245 C 
ATOM      4  O   UNL     1       0.207  -2.787  -0.016  0.00  0.00    -0.270 OA
ATOM      5  H   UNL     1       3.259  -2.313  -0.042  0.00  0.00    +0.150 HD
BRANCH   3   6
ATOM      6  C   UNL     1       1.222  -0.683  -0.013  0.00  0.00    +0.037 A 
ATOM      7  C   UNL     1       0.002  -0.004   0.002  0.00  0.00    +0.016 A 
ATOM      8  C   UNL     1      -0.017   1.374   0.010  0.00  0.00    +0.039 A 
ATOM      9  C   UNL     1       1.173   2.086   0.002  0.00  0.00    +0.123 A 
ATOM     10  C   UNL     1       2.387   1.417  -0.013  0.00  0.00    +0.039 A 
ATOM     11  C   UNL     1       2.417   0.039  -0.021  0.00  0.00    +0.016 A 
ATOM     12  F   UNL     1       1.149   3.437   0.009  0.00  0.00    -0.205 F 
ENDBRANCH   3   6
ENDBRANCH   1   2
BRANCH   1  13
ATOM     13  C   UNL     1       3.755  -4.761   0.540  0.00  0.00    +0.328 C 
ATOM     14  O   UNL     1       4.577  -3.963   0.925  0.00  0.00    -0.249 OA
BRANCH  13  15
ATOM     15  O   UNL     1       4.002  -6.077   0.634  0.00  0.00    -0.454 OA
BRANCH  15  16
ATOM     16  C   UNL     1       5.276  -6.469   1.208  0.00  0.00    +0.327 C 
BRANCH  16  17
ATOM     17  C   UNL     1       5.375  -7.973   1.232  0.00  0.00    +0.251 C 
ATOM     18  O   UNL     1       4.461  -8.647   0.807  0.00  0.00    -0.272 OA
ATOM     19  N   UNL     1       6.479  -8.568   1.726  0.00  0.00    -0.308 N 
ATOM     20  H   UNL     1       7.210  -8.029   2.066  0.00  0.00    +0.149 HD
BRANCH  19  21
ATOM     21  C   UNL     1       6.574 -10.030   1.749  0.00  0.00    +0.139 C 
BRANCH  21  22
ATOM     22  C   UNL     1       7.897 -10.437   2.345  0.00  0.00    -0.030 A 
ATOM     23  C   UNL     1       8.998 -10.614   1.528  0.00  0.00    +0.008 A 
ATOM     24  C   UNL     1      10.212 -10.983   2.074  0.00  0.00    +0.038 A 
ATOM     25  C   UNL     1      10.324 -11.186   3.439  0.00  0.00    +0.123 A 
ATOM     26  C   UNL     1       9.220 -11.013   4.256  0.00  0.00    +0.038 A 
ATOM     27  C   UNL     1       8.007 -10.639   3.709  0.00  0.00    +0.008 A 
ATOM     28  F   UNL     1      11.510 -11.551   3.974  0.00  0.00    -0.205 F 
ENDBRANCH  21  22
ENDBRANCH  19  21
ENDBRANCH  16  17
ENDBRANCH  15  16
ENDBRANCH  13  15
ENDBRANCH   1  13
BRANCH   1  29
ATOM     29  C   UNL     1       2.323  -4.782  -1.484  0.00  0.00    +0.071 C 
BRANCH  29  36
ATOM     30  C   UNL     1       0.657  -0.907  -3.529  0.00  0.00    +0.001 A 
ATOM     31  C   UNL     1      -0.684  -1.012  -3.875  0.00  0.00    +0.002 A 
ATOM     32  C   UNL     1      -1.389  -2.166  -3.614  0.00  0.00    +0.026 A 
ATOM     33  C   UNL     1      -0.753  -3.239  -2.997  0.00  0.00    +0.047 A 
ATOM     34  C   UNL     1       0.604  -3.126  -2.643  0.00  0.00    +0.003 A 
ATOM     35  C   UNL     1       1.300  -1.949  -2.923  0.00  0.00    +0.010 A 
ATOM     36  C   UNL     1       0.970  -4.404  -2.028  0.00  0.00    -0.020 A 
ATOM     37  C   UNL     1      -0.131  -5.173  -2.036  0.00  0.00    +0.087 A 
ATOM     38  N   UNL     1      -1.170  -4.493  -2.611  0.00  0.00    -0.360 N 
ATOM     39  H   UNL     1      -2.067  -4.843  -2.730  0.00  0.00    +0.165 HD
ENDBRANCH  29  36
ENDBRANCH   1  29
TORSDOF 10
