REMARK  Name = ZINC40848360
REMARK  13 active torsions:
REMARK  status: ('A' for Active; 'I' for Inactive)
REMARK    1  A    between atoms: C_1  and  C_2
REMARK    2  A    between atoms: C_2  and  C_3
REMARK    3  A    between atoms: C_2  and  C_4
REMARK    4  A    between atoms: C_2  and  N_5
REMARK    5  A    between atoms: C_6  and  C_8
REMARK    6  A    between atoms: C_8  and  N_9
REMARK    7  A    between atoms: N_9  and  C_10
REMARK    8  A    between atoms: N_9  and  S_31
REMARK    9  A    between atoms: C_16  and  C_29
REMARK   10  A    between atoms: N_20  and  C_22
REMARK   11  A    between atoms: C_22  and  C_23
REMARK   12  A    between atoms: N_27  and  C_28
REMARK   13  A    between atoms: S_31  and  C_34
REMARK                            x       y       z     vdW  Elec       q    Type
REMARK                         _______ _______ _______ _____ _____    ______ ____
ROOT
ATOM      1  C   UNL     1       5.200  -1.007  -1.974  0.00  0.00    +0.098 C 
ATOM      2  C   UNL     1       5.735  -2.385  -2.335  0.00  0.00    +0.032 C 
ATOM      3  C   UNL     1       6.298  -3.108  -1.107  0.00  0.00    +0.040 C 
ATOM      4  C   UNL     1       6.807  -4.487  -1.533  0.00  0.00    +0.055 C 
ATOM      5  C   UNL     1       7.000  -5.364  -0.324  0.00  0.00    +0.030 C 
ATOM      6  C   UNL     1       6.166  -5.265   0.742  0.00  0.00    +0.016 C 
ATOM      7  C   UNL     1       5.138  -4.300   0.747  0.00  0.00    +0.020 C 
ATOM      8  C   UNL     1       5.168  -3.261  -0.112  0.00  0.00    +0.010 C 
ATOM      9  N   UNL     1       4.185  -2.294  -0.142  0.00  0.00    -0.326 N 
ATOM     10  C   UNL     1       4.618  -0.956  -0.567  0.00  0.00    +0.126 C 
ENDROOT
BRANCH   5  11
ATOM     11  C   UNL     1       8.073  -6.312  -0.300  0.00  0.00    +0.095 C 
ATOM     12  N   UNL     1       8.924  -7.064  -0.280  0.00  0.00    -0.191 NA
ENDBRANCH   5  11
BRANCH   1  13
ATOM     13  N   UNL     1       4.154  -0.640  -2.933  0.00  0.00    -0.162 NA
BRANCH  13  14
ATOM     14  S   UNL     1       4.524  -0.469  -4.538  0.00  0.00    +0.079 S 
ATOM     15  O   UNL     1       5.691  -1.246  -4.770  0.00  0.00    -0.151 OA
ATOM     16  O   UNL     1       3.317  -0.674  -5.258  0.00  0.00    -0.151 OA
BRANCH  14  17
ATOM     17  C   UNL     1       4.981   1.214  -4.790  0.00  0.00    +0.194 A 
ATOM     18  C   UNL     1       4.011   2.143  -5.118  0.00  0.00    +0.049 A 
ATOM     19  C   UNL     1       4.381   3.465  -5.314  0.00  0.00    +0.005 A 
ATOM     20  C   UNL     1       5.718   3.804  -5.173  0.00  0.00    +0.020 A 
ATOM     21  C   UNL     1       6.631   2.820  -4.844  0.00  0.00    +0.113 A 
ATOM     22  N   UNL     1       6.243   1.574  -4.659  0.00  0.00    -0.236 NA
ENDBRANCH  14  17
ENDBRANCH  13  14
BRANCH  13  23
ATOM     23  C   UNL     1       2.780  -0.425  -2.471  0.00  0.00    +0.205 C 
BRANCH  23  25
ATOM     24  N   UNL     1       1.409   1.462  -1.647  0.00  0.00    -0.309 N 
ATOM     25  C   UNL     1       2.622   1.002  -2.014  0.00  0.00    +0.229 C 
ATOM     26  O   UNL     1       3.585   1.738  -1.977  0.00  0.00    -0.274 OA
ATOM     27  H   UNL     1       0.651   0.857  -1.615  0.00  0.00    +0.149 HD
BRANCH  24  29
ATOM     28  C   UNL     1       1.667   3.749  -2.474  0.00  0.00    +0.031 C 
ATOM     29  C   UNL     1       1.236   2.873  -1.295  0.00  0.00    +0.026 C 
ATOM     30  C   UNL     1       2.095   3.204  -0.073  0.00  0.00    +0.031 C 
ATOM     31  C   UNL     1      -0.235   3.142  -0.972  0.00  0.00    +0.031 C 
ENDBRANCH  24  29
ENDBRANCH  23  25
ENDBRANCH  13  23
ENDBRANCH   1  13
BRANCH   9  32
ATOM     32  C   UNL     1       2.796  -2.583   0.225  0.00  0.00    +0.159 C 
BRANCH  32  33
ATOM     33  C   UNL     1       2.491  -1.962   1.563  0.00  0.00    +0.053 A 
ATOM     34  C   UNL     1       1.963  -0.742   1.780  0.00  0.00    +0.106 A 
ATOM     35  N   UNL     1       1.850  -0.569   3.106  0.00  0.00    -0.352 N 
ATOM     36  C   UNL     1       2.287  -1.635   3.718  0.00  0.00    +0.173 A 
ATOM     37  N   UNL     1       2.691  -2.531   2.792  0.00  0.00    -0.337 N 
ATOM     38  C   UNL     1       3.243  -3.863   3.053  0.00  0.00    +0.150 C 
ATOM     39  H   UNL     1       1.498   0.224   3.540  0.00  0.00    +0.166 HD
ENDBRANCH  32  33
ENDBRANCH   9  32
TORSDOF 9
