REMARK  Name = ZINC29088484
REMARK  6 active torsions:
REMARK  status: ('A' for Active; 'I' for Inactive)
REMARK    1  A    between atoms: C_1  and  C_2
REMARK    2  A    between atoms: C_7  and  C_9
REMARK    3  A    between atoms: C_7  and  C_10
REMARK    4  A    between atoms: N_13  and  C_17
REMARK    5  A    between atoms: C_17  and  C_18
REMARK    6  A    between atoms: C_24  and  C_26
REMARK                            x       y       z     vdW  Elec       q    Type
REMARK                         _______ _______ _______ _____ _____    ______ ____
ROOT
ATOM      1  C   UNL     1      -0.061   1.649   0.498  0.00  0.00    +0.007 C 
ATOM      2  C   UNL     1      -0.046   0.132   0.299  0.00  0.00    -0.011 C 
ATOM      3  C   UNL     1       0.612  -0.200  -1.042  0.00  0.00    +0.038 C 
ATOM      4  C   UNL     1       0.646  -1.713  -1.232  0.00  0.00    +0.113 C 
ATOM      5  C   UNL     1       1.417  -2.381  -0.099  0.00  0.00    +0.041 C 
ATOM      6  C   UNL     1       0.756  -2.041   1.240  0.00  0.00    -0.032 C 
ATOM      7  C   UNL     1       0.748  -0.523   1.431  0.00  0.00    +0.009 C 
ATOM      8  C   UNL     1      -0.682  -2.564   1.246  0.00  0.00    +0.011 C 
ATOM      9  C   UNL     1       1.542  -2.695   2.378  0.00  0.00    +0.011 C 
ATOM     10  C   UNL     1       1.261  -2.063  -2.567  0.00  0.00    +0.247 C 
ATOM     11  O   UNL     1       2.385  -1.813  -2.946  0.00  0.00    -0.273 OA
ATOM     12  N   UNL     1       0.296  -2.715  -3.249  0.00  0.00    -0.215 N 
ATOM     13  C   UNL     1      -0.829  -2.819  -2.531  0.00  0.00    +0.310 C 
ATOM     14  O   UNL     1      -1.838  -3.366  -2.931  0.00  0.00    -0.252 OA
ATOM     15  N   UNL     1      -0.717  -2.252  -1.315  0.00  0.00    -0.285 N 
ATOM     16  H   UNL     1      -1.402  -2.208  -0.629  0.00  0.00    +0.151 HD
ENDROOT
BRANCH  12  17
ATOM     17  C   UNL     1       0.458  -3.241  -4.606  0.00  0.00    +0.214 C 
BRANCH  17  18
ATOM     18  C   UNL     1       0.970  -4.657  -4.537  0.00  0.00    +0.237 C 
ATOM     19  O   UNL     1       1.179  -5.175  -3.461  0.00  0.00    -0.274 OA
ATOM     20  N   UNL     1       1.197  -5.348  -5.673  0.00  0.00    -0.262 N 
ATOM     21  C   UNL     1       1.669  -6.654  -5.609  0.00  0.00    +0.188 A 
ATOM     22  N   UNL     1       1.949  -7.387  -4.550  0.00  0.00    -0.126 NA
ATOM     23  N   UNL     1       2.375  -8.572  -4.651  0.00  0.00    -0.144 NA
ATOM     24  C   UNL     1       2.546  -9.092  -5.850  0.00  0.00    +0.107 A 
ATOM     25  S   UNL     1       2.027  -7.717  -6.868  0.00  0.00    -0.035 S 
ATOM     26  H   UNL     1       1.030  -4.933  -6.534  0.00  0.00    +0.157 HD
BRANCH  24  27
ATOM     27  C   UNL     1       3.034 -10.460  -6.249  0.00  0.00    +0.047 C 
ATOM     28  C   UNL     1       2.098 -11.524  -5.673  0.00  0.00    +0.010 C 
ATOM     29  C   UNL     1       2.594 -12.914  -6.079  0.00  0.00    +0.001 C 
ATOM     30  C   UNL     1       4.007 -13.130  -5.535  0.00  0.00    +0.000 C 
ATOM     31  C   UNL     1       4.943 -12.066  -6.111  0.00  0.00    +0.001 C 
ATOM     32  C   UNL     1       4.448 -10.676  -5.705  0.00  0.00    +0.010 C 
ENDBRANCH  24  27
ENDBRANCH  17  18
ENDBRANCH  12  17
TORSDOF 3
