REMARK  Name = ZINC15184260
REMARK  7 active torsions:
REMARK  status: ('A' for Active; 'I' for Inactive)
REMARK    1  A    between atoms: C_1  and  C_2
REMARK    2  A    between atoms: C_5  and  N_9
REMARK    3  A    between atoms: C_18  and  S_19
REMARK    4  A    between atoms: S_19  and  C_20
REMARK    5  A    between atoms: C_20  and  C_22
REMARK    6  A    between atoms: C_20  and  C_23
REMARK    7  A    between atoms: C_30  and  C_34
REMARK                            x       y       z     vdW  Elec       q    Type
REMARK                         _______ _______ _______ _____ _____    ______ ____
ROOT
ATOM      1  N   UNL     1       2.318   1.381  -0.013  0.00  0.00    -0.255 N 
ATOM      2  C   UNL     1       2.295   0.214   0.656  0.00  0.00    +0.268 A 
ATOM      3  O   UNL     1       3.284  -0.177   1.251  0.00  0.00    -0.267 OA
ATOM      4  C   UNL     1       1.092  -0.561   0.660  0.00  0.00    +0.076 A 
ATOM      5  C   UNL     1       0.844  -1.846   1.316  0.00  0.00    -0.023 A 
ATOM      6  C   UNL     1      -0.385  -2.381   1.170  0.00  0.00    -0.004 A 
ATOM      7  S   UNL     1      -1.274  -1.223   0.164  0.00  0.00    -0.073 S 
ATOM      8  C   UNL     1       0.012  -0.020  -0.057  0.00  0.00    +0.117 A 
ATOM      9  N   UNL     1       0.099   1.140  -0.698  0.00  0.00    -0.215 NA
ATOM     10  C   UNL     1       1.218   1.835  -0.685  0.00  0.00    +0.178 A 
ATOM     11  C   UNL     1      -0.887  -3.674   1.738  0.00  0.00    +0.046 C 
ATOM     12  C   UNL     1       0.091  -4.135   2.829  0.00  0.00    -0.009 C 
ATOM     13  C   UNL     1       1.518  -4.034   2.283  0.00  0.00    +0.008 C 
ATOM     14  C   UNL     1       1.915  -2.565   2.132  0.00  0.00    +0.037 C 
ATOM     15  C   UNL     1      -0.212  -5.585   3.209  0.00  0.00    +0.008 C 
ENDROOT
BRANCH   1  20
ATOM     16  C   UNL     1       7.077   4.474  -0.046  0.00  0.00    +0.045 C 
ATOM     17  C   UNL     1       5.813   3.654  -0.037  0.00  0.00    -0.032 A 
ATOM     18  C   UNL     1       5.599   2.706  -1.021  0.00  0.00    +0.007 A 
ATOM     19  C   UNL     1       4.444   1.948  -1.013  0.00  0.00    +0.026 A 
ATOM     20  C   UNL     1       3.493   2.146  -0.021  0.00  0.00    +0.053 A 
ATOM     21  C   UNL     1       3.709   3.097   0.966  0.00  0.00    +0.046 A 
ATOM     22  C   UNL     1       4.869   3.849   0.955  0.00  0.00    +0.046 A 
ATOM     23 CL   UNL     1       5.142   5.040   2.189  0.00  0.00    -0.083 Cl
ENDBRANCH   1  20
BRANCH  10  24
ATOM     24  S   UNL     1       1.297   3.370  -1.547  0.00  0.00    -0.075 S 
BRANCH  24  25
ATOM     25  C   UNL     1      -0.383   3.443  -2.215  0.00  0.00    +0.137 C 
ATOM     26  C   UNL     1      -0.585   2.304  -3.216  0.00  0.00    +0.029 C 
BRANCH  25  27
ATOM     27  C   UNL     1      -0.591   4.765  -2.909  0.00  0.00    +0.233 C 
ATOM     28  O   UNL     1       0.359   5.373  -3.351  0.00  0.00    -0.274 OA
ATOM     29  N   UNL     1      -1.834   5.270  -3.037  0.00  0.00    -0.239 N 
ATOM     30  C   UNL     1      -2.020   6.452  -3.658  0.00  0.00    +0.303 C 
ATOM     31  O   UNL     1      -1.067   7.062  -4.101  0.00  0.00    -0.253 OA
ATOM     32  N   UNL     1      -3.263   6.958  -3.787  0.00  0.00    -0.313 N 
ATOM     33  H   UNL     1      -2.595   4.784  -2.683  0.00  0.00    +0.159 HD
ATOM     34  H   UNL     1      -4.023   6.471  -3.433  0.00  0.00    +0.146 HD
ATOM     35  H   UNL     1      -3.397   7.808  -4.233  0.00  0.00    +0.146 HD
ENDBRANCH  25  27
ENDBRANCH  24  25
ENDBRANCH  10  24
TORSDOF 4
