REMARK  Name = ZINC14536806
REMARK  8 active torsions:
REMARK  status: ('A' for Active; 'I' for Inactive)
REMARK    1  A    between atoms: C_1  and  N_2
REMARK    2  A    between atoms: N_2  and  C_3
REMARK    3  A    between atoms: C_4  and  C_6
REMARK    4  A    between atoms: N_9  and  C_11
REMARK    5  A    between atoms: C_11  and  C_12
REMARK    6  A    between atoms: C_20  and  N_67
REMARK    7  A    between atoms: C_25  and  C_28
REMARK    8  A    between atoms: C_28  and  O_29
REMARK                            x       y       z     vdW  Elec       q    Type
REMARK                         _______ _______ _______ _____ _____    ______ ____
ROOT
ATOM      1  C   UNL     1      -0.910  -3.950  -1.101  0.00  0.00    +0.151 A 
ATOM      2  C   UNL     1      -0.600  -4.116   0.259  0.00  0.00    +0.004 A 
ATOM      3  C   UNL     1      -0.386  -2.869   0.747  0.00  0.00    +0.043 A 
ATOM      4  N   UNL     1      -0.557  -2.010  -0.271  0.00  0.00    -0.267 N 
ATOM      5  N   UNL     1      -0.868  -2.651  -1.344  0.00  0.00    -0.166 NA
ATOM      6  C   UNL     1      -0.028  -2.579   2.182  0.00  0.00    +0.054 C 
ATOM      7  C   UNL     1      -0.360  -3.818   3.023  0.00  0.00    -0.009 C 
ATOM      8  C   UNL     1       0.248  -5.062   2.369  0.00  0.00    -0.064 C 
ATOM      9  C   UNL     1      -0.506  -5.379   1.070  0.00  0.00    +0.024 C 
ENDROOT
BRANCH   8  15
ATOM     10  C   UNL     1      -1.264  -6.469   3.631  0.00  0.00    -0.078 C 
ATOM     11  C   UNL     1      -1.352  -7.746   4.470  0.00  0.00    -0.013 C 
ATOM     12  C   UNL     1      -0.521  -7.571   5.744  0.00  0.00    +0.011 C 
ATOM     13  C   UNL     1       0.925  -7.246   5.360  0.00  0.00    -0.013 C 
ATOM     14  C   UNL     1       0.947  -5.984   4.495  0.00  0.00    -0.078 C 
ATOM     15  N   UNL     1       0.150  -6.225   3.274  0.00  0.00    +0.382 N 
ATOM     16  H   UNL     1       0.519  -7.054   2.794  0.00  0.00    -0.081 HD
BRANCH  12  17
ATOM     17  C   UNL     1      -0.555  -8.866   6.558  0.00  0.00    +0.159 C 
BRANCH  17  18
ATOM     18  O   UNL     1      -1.887  -9.107   7.015  0.00  0.00    -0.395 OA
ATOM     19  H   UNL     1      -1.984  -9.914   7.539  0.00  0.00    +0.209 HD
ENDBRANCH  17  18
ENDBRANCH  12  17
ENDBRANCH   8  15
BRANCH   1  23
ATOM     20  C   UNL     1      -1.976  -5.758  -4.268  0.00  0.00    +0.132 C 
ATOM     21  N   UNL     1      -1.604  -4.701  -3.325  0.00  0.00    -0.302 N 
ATOM     22  C   UNL     1      -1.643  -3.298  -3.744  0.00  0.00    +0.132 C 
ATOM     23  C   UNL     1      -1.225  -5.019  -2.071  0.00  0.00    +0.267 C 
ATOM     24  O   UNL     1      -1.143  -6.185  -1.738  0.00  0.00    -0.268 OA
ENDBRANCH   1  23
BRANCH   4  25
ATOM     25  C   UNL     1      -0.417  -0.554  -0.173  0.00  0.00    +0.147 C 
BRANCH  25  26
ATOM     26  C   UNL     1       1.032  -0.161  -0.469  0.00  0.00    +0.010 C 
ATOM     27  C   UNL     1       1.152   1.364  -0.491  0.00  0.00    +0.005 C 
ATOM     28  C   UNL     1       2.600   1.758  -0.787  0.00  0.00    +0.000 C 
ATOM     29  C   UNL     1       3.516   1.190   0.299  0.00  0.00    +0.000 C 
ATOM     30  C   UNL     1       3.396  -0.336   0.320  0.00  0.00    +0.000 C 
ATOM     31  C   UNL     1       1.947  -0.729   0.616  0.00  0.00    +0.005 C 
ENDBRANCH  25  26
ENDBRANCH   4  25
TORSDOF 6
