REMARK  Name = ZINC19790398
REMARK  9 active torsions:
REMARK  status: ('A' for Active; 'I' for Inactive)
REMARK    1  A    between atoms: C_1  and  C_2
REMARK    2  A    between atoms: C_2  and  N_3
REMARK    3  A    between atoms: N_3  and  C_4
REMARK    4  A    between atoms: N_3  and  C_25
REMARK    5  A    between atoms: C_4  and  C_5
REMARK    6  A    between atoms: C_6  and  O_24
REMARK    7  A    between atoms: C_13  and  C_16
REMARK    8  A    between atoms: C_21  and  O_22
REMARK    9  A    between atoms: O_22  and  C_23
REMARK                            x       y       z     vdW  Elec       q    Type
REMARK                         _______ _______ _______ _____ _____    ______ ____
ROOT
ATOM      1  C   UNL     1       1.007   2.261   2.270  0.00  0.00    +0.020 A 
ATOM      2  C   UNL     1       2.243   1.825   1.823  0.00  0.00    +0.122 A 
ATOM      3  C   UNL     1       3.316   2.708   1.734  0.00  0.00    +0.046 A 
ATOM      4  C   UNL     1       3.166   4.016   2.099  0.00  0.00    +0.019 A 
ATOM      5  C   UNL     1       1.928   4.469   2.556  0.00  0.00    +0.065 A 
ATOM      6  C   UNL     1       0.836   3.587   2.644  0.00  0.00    +0.143 A 
ATOM      7  O   UNL     1      -0.359   4.027   3.086  0.00  0.00    -0.462 OA
ATOM      8  C   UNL     1      -0.584   5.290   3.458  0.00  0.00    +0.208 A 
ATOM      9  C   UNL     1       0.381   6.245   3.423  0.00  0.00    +0.068 A 
ATOM     10  C   UNL     1       1.728   5.874   2.957  0.00  0.00    +0.200 A 
ATOM     11  O   UNL     1       2.633   6.688   2.904  0.00  0.00    -0.286 OA
ENDROOT
BRANCH   9  12
ATOM     12  C   UNL     1       0.084   7.635   3.848  0.00  0.00    +0.030 A 
ATOM     13  C   UNL     1      -0.250   7.905   5.172  0.00  0.00    +0.012 A 
ATOM     14  C   UNL     1      -0.525   9.201   5.562  0.00  0.00    +0.001 A 
ATOM     15  C   UNL     1      -0.469  10.232   4.642  0.00  0.00    +0.004 A 
ATOM     16  C   UNL     1      -0.137   9.974   3.325  0.00  0.00    +0.046 A 
ATOM     17  C   UNL     1       0.145   8.680   2.921  0.00  0.00    +0.128 A 
BRANCH  17  18
ATOM     18  O   UNL     1       0.476   8.426   1.627  0.00  0.00    -0.494 OA
ATOM     19  C   UNL     1       0.518   9.543   0.737  0.00  0.00    +0.277 C 
ENDBRANCH  17  18
ENDBRANCH   9  12
BRANCH   2  20
ATOM     20  O   UNL     1       2.408   0.527   1.463  0.00  0.00    -0.506 OA
ATOM     21  H   UNL     1       3.388   0.175   1.108  0.00  0.00    +0.292 HD
ENDBRANCH   2  20
BRANCH   1  22
ATOM     22  C   UNL     1      -0.149   1.297   2.356  0.00  0.00    -0.035 C 
BRANCH  22  23
ATOM     23  N   UNL     1      -1.109   1.587   1.283  0.00  0.00    +0.384 N 
ATOM     24  H   UNL     1      -1.194   2.679   1.191  0.00  0.00    -0.081 HD
BRANCH  23  25
ATOM     25  C   UNL     1      -2.439   1.055   1.609  0.00  0.00    -0.068 C 
ATOM     26  C   UNL     1      -2.430  -0.467   1.460  0.00  0.00    -0.015 C 
ATOM     27  C   UNL     1      -3.816  -1.021   1.799  0.00  0.00    -0.002 C 
ATOM     28  C   UNL     1      -4.852  -0.421   0.847  0.00  0.00    -0.000 C 
ATOM     29  C   UNL     1      -4.861   1.102   0.996  0.00  0.00    -0.002 C 
ATOM     30  C   UNL     1      -3.475   1.655   0.656  0.00  0.00    -0.015 C 
ENDBRANCH  23  25
BRANCH  23  32
ATOM     31  C   UNL     1       0.356   2.051  -0.625  0.00  0.00    -0.017 C 
ATOM     32  C   UNL     1      -0.633   1.062  -0.004  0.00  0.00    -0.081 C 
ENDBRANCH  23  32
ENDBRANCH  22  23
ENDBRANCH   1  22
TORSDOF 7
