REMARK  Name = ZINC08645693
REMARK  8 active torsions:
REMARK  status: ('A' for Active; 'I' for Inactive)
REMARK    1  A    between atoms: C_1  and  C_2
REMARK    2  A    between atoms: C_2  and  C_4
REMARK    3  A    between atoms: C_2  and  N_12
REMARK    4  A    between atoms: C_13  and  C_15
REMARK    5  A    between atoms: C_15  and  N_16
REMARK    6  A    between atoms: C_19  and  C_23
REMARK    7  A    between atoms: C_19  and  C_24
REMARK    8  A    between atoms: C_27  and  N_30
REMARK                            x       y       z     vdW  Elec       q    Type
REMARK                         _______ _______ _______ _____ _____    ______ ____
ROOT
ATOM      1  N   UNL     1      -0.016   1.343   0.009  0.00  0.00    -0.215 N 
ATOM      2  C   UNL     1       0.002  -0.004   0.002  0.00  0.00    +0.251 C 
ATOM      3  O   UNL     1      -0.954  -0.749   0.008  0.00  0.00    -0.272 OA
ATOM      4  C   UNL     1       1.467  -0.394  -0.014  0.00  0.00    +0.135 C 
ATOM      5  N   UNL     1       2.170   0.901  -0.014  0.00  0.00    -0.281 N 
ATOM      6  C   UNL     1       1.220   1.854   0.000  0.00  0.00    +0.310 C 
ATOM      7  O   UNL     1       1.460   3.045   0.004  0.00  0.00    -0.252 OA
ATOM      8  C   UNL     1       1.799  -1.187  -1.280  0.00  0.00    +0.047 C 
ATOM      9  H   UNL     1       3.130   1.039  -0.022  0.00  0.00    +0.152 HD
ENDROOT
BRANCH   4  10
ATOM     10  C   UNL     1       1.818  -1.188   1.218  0.00  0.00    -0.015 A 
ATOM     11  C   UNL     1       0.860  -1.975   1.829  0.00  0.00    +0.008 A 
ATOM     12  C   UNL     1       1.183  -2.707   2.956  0.00  0.00    +0.033 A 
ATOM     13  C   UNL     1       2.461  -2.644   3.478  0.00  0.00    +0.126 A 
ATOM     14  C   UNL     1       3.418  -1.853   2.870  0.00  0.00    +0.033 A 
ATOM     15  C   UNL     1       3.096  -1.125   1.740  0.00  0.00    +0.008 A 
BRANCH  13  16
ATOM     16  N   UNL     1       2.805  -3.423   4.689  0.00  0.00    +0.056 N 
ATOM     17  O   UNL     1       3.932  -3.368   5.149  0.00  0.00    -0.126 OA
ATOM     18  O   UNL     1       1.962  -4.120   5.224  0.00  0.00    -0.126 OA
ENDBRANCH  13  16
ENDBRANCH   4  10
BRANCH   1  19
ATOM     19  C   UNL     1      -1.239   2.150   0.020  0.00  0.00    +0.213 C 
BRANCH  19  21
ATOM     20  N   UNL     1      -2.757   3.147   1.700  0.00  0.00    -0.307 N 
ATOM     21  C   UNL     1      -1.652   2.419   1.444  0.00  0.00    +0.231 C 
ATOM     22  O   UNL     1      -0.989   1.980   2.360  0.00  0.00    -0.274 OA
ATOM     23  H   UNL     1      -3.287   3.498   0.967  0.00  0.00    +0.149 HD
BRANCH  20  25
ATOM     24  C   UNL     1      -3.989   2.234   3.605  0.00  0.00    +0.033 C 
ATOM     25  C   UNL     1      -3.158   3.408   3.084  0.00  0.00    +0.100 C 
BRANCH  25  26
ATOM     26  C   UNL     1      -3.980   4.670   3.139  0.00  0.00    -0.026 A 
ATOM     27  C   UNL     1      -3.806   5.563   4.180  0.00  0.00    +0.007 A 
ATOM     28  C   UNL     1      -4.560   6.720   4.232  0.00  0.00    +0.022 A 
ATOM     29  C   UNL     1      -5.489   6.986   3.242  0.00  0.00    +0.059 A 
ATOM     30  C   UNL     1      -5.663   6.091   2.200  0.00  0.00    +0.060 A 
ATOM     31  C   UNL     1      -4.904   4.936   2.147  0.00  0.00    +0.027 A 
ATOM     32 CL   UNL     1      -6.829   6.423   0.957  0.00  0.00    -0.082 Cl
ATOM     33 CL   UNL     1      -6.436   8.439   3.306  0.00  0.00    -0.082 Cl
ENDBRANCH  25  26
ENDBRANCH  20  25
ENDBRANCH  19  21
ENDBRANCH   1  19
TORSDOF 6
