REMARK  Name = ZINC39596501
REMARK  10 active torsions:
REMARK  status: ('A' for Active; 'I' for Inactive)
REMARK    1  A    between atoms: C_1  and  C_2
REMARK    2  A    between atoms: C_2  and  O_3
REMARK    3  A    between atoms: O_3  and  C_4
REMARK    4  A    between atoms: C_8  and  C_10
REMARK    5  A    between atoms: C_14  and  C_23
REMARK    6  A    between atoms: N_25  and  C_26
REMARK    7  A    between atoms: C_26  and  C_27
REMARK    8  A    between atoms: C_27  and  C_29
REMARK    9  A    between atoms: C_27  and  O_30
REMARK   10  A    between atoms: O_30  and  C_31
REMARK                            x       y       z     vdW  Elec       q    Type
REMARK                         _______ _______ _______ _____ _____    ______ ____
ROOT
ATOM      1  C   UNL     1       2.253  -4.280   3.693  0.00  0.00    +0.247 C 
ATOM      2  O   UNL     1       2.823  -3.547   4.477  0.00  0.00    -0.270 OA
ATOM      3  N   UNL     1       2.263  -5.614   3.889  0.00  0.00    -0.296 N 
ATOM      4  C   UNL     1       1.743  -6.668   2.987  0.00  0.00    +0.121 C 
ATOM      5  C   UNL     1       2.778  -7.811   3.084  0.00  0.00    +0.100 C 
ATOM      6  C   UNL     1       3.465  -7.603   4.444  0.00  0.00    -0.004 C 
ATOM      7  C   UNL     1       2.803  -6.358   5.052  0.00  0.00    +0.115 C 
ATOM      8  C   UNL     1       3.238  -8.815   5.342  0.00  0.00    -0.010 C 
ATOM      9  C   UNL     1       3.979  -8.609   6.666  0.00  0.00    -0.082 C 
ATOM     10  N   UNL     1       5.413  -8.431   6.404  0.00  0.00    +0.379 N 
ATOM     11  C   UNL     1       5.630  -7.211   5.617  0.00  0.00    -0.082 C 
ATOM     12  C   UNL     1       4.958  -7.358   4.249  0.00  0.00    -0.010 C 
ATOM     13  H   UNL     1       5.907  -8.357   7.281  0.00  0.00    -0.086 HD
ATOM     14  H   UNL     1       5.761  -9.227   5.891  0.00  0.00    -0.086 HD
ENDROOT
BRANCH   1  19
ATOM     15  C   UNL     1       1.261  -1.938   0.925  0.00  0.00    +0.121 A 
ATOM     16  C   UNL     1       0.221  -2.644   0.337  0.00  0.00    +0.046 A 
ATOM     17  C   UNL     1      -0.155  -3.877   0.838  0.00  0.00    +0.004 A 
ATOM     18  C   UNL     1       0.501  -4.413   1.927  0.00  0.00    +0.013 A 
ATOM     19  C   UNL     1       1.548  -3.710   2.526  0.00  0.00    +0.040 A 
ATOM     20  C   UNL     1       1.930  -2.469   2.015  0.00  0.00    +0.058 A 
BRANCH  15  21
ATOM     21  O   UNL     1       1.626  -0.727   0.428  0.00  0.00    -0.492 OA
BRANCH  21  23
ATOM     22  C   UNL     1       1.443   1.127  -1.112  0.00  0.00    +0.048 C 
ATOM     23  C   UNL     1       0.892  -0.239  -0.697  0.00  0.00    +0.225 C 
ENDBRANCH  21  23
ENDBRANCH  15  21
ENDBRANCH   1  19
BRANCH   5  24
ATOM     24  C   UNL     1       3.781  -7.707   1.965  0.00  0.00    +0.218 C 
ATOM     25  O   UNL     1       4.132  -6.617   1.564  0.00  0.00    -0.275 OA
ATOM     26  N   UNL     1       4.289  -8.825   1.409  0.00  0.00    -0.312 N 
ATOM     27  H   UNL     1       4.009  -9.697   1.730  0.00  0.00    +0.149 HD
BRANCH  26  28
ATOM     28  C   UNL     1       5.265  -8.724   0.321  0.00  0.00    +0.148 C 
BRANCH  28  29
ATOM     29  C   UNL     1       5.678 -10.128  -0.126  0.00  0.00    +0.187 C 
ATOM     30  C   UNL     1       6.787 -10.024  -1.174  0.00  0.00    +0.053 C 
BRANCH  29  31
ATOM     31  O   UNL     1       4.550 -10.799  -0.690  0.00  0.00    -0.488 OA
BRANCH  31  32
ATOM     32  C   UNL     1       4.564 -12.158  -0.664  0.00  0.00    +0.121 A 
ATOM     33  C   UNL     1       5.588 -12.830  -0.014  0.00  0.00    +0.048 A 
ATOM     34  C   UNL     1       5.601 -14.211   0.011  0.00  0.00    +0.042 A 
ATOM     35  C   UNL     1       4.592 -14.925  -0.612  0.00  0.00    +0.124 A 
ATOM     36  C   UNL     1       3.569 -14.256  -1.262  0.00  0.00    +0.042 A 
ATOM     37  C   UNL     1       3.550 -12.875  -1.284  0.00  0.00    +0.048 A 
ATOM     38  F   UNL     1       4.606 -16.276  -0.587  0.00  0.00    -0.205 F 
ENDBRANCH  31  32
ENDBRANCH  29  31
ENDBRANCH  28  29
ENDBRANCH  26  28
ENDBRANCH   5  24
TORSDOF 8
