REMARK  Name = ZINC20238767
REMARK  8 active torsions:
REMARK  status: ('A' for Active; 'I' for Inactive)
REMARK    1  A    between atoms: C_1  and  C_2
REMARK    2  A    between atoms: C_2  and  O_3
REMARK    3  A    between atoms: O_3  and  C_4
REMARK    4  A    between atoms: C_7  and  C_13
REMARK    5  A    between atoms: C_8  and  N_10
REMARK    6  A    between atoms: C_16  and  C_18
REMARK    7  A    between atoms: C_28  and  C_30
REMARK    8  A    between atoms: C_35  and  C_36
REMARK                            x       y       z     vdW  Elec       q    Type
REMARK                         _______ _______ _______ _____ _____    ______ ____
ROOT
ATOM      1  C   UNL     1      -4.182  -9.434   0.659  0.00  0.00    +0.063 C 
ATOM      2  C   UNL     1      -5.235  -9.216   1.536  0.00  0.00    +0.084 C 
ATOM      3  C   UNL     1      -5.498  -7.877   2.126  0.00  0.00    +0.153 C 
ATOM      4  N   UNL     1      -5.263  -6.755   1.495  0.00  0.00    -0.283 NA
ATOM      5  N   UNL     1      -6.026  -7.934   3.433  0.00  0.00    -0.152 N 
ATOM      6  C   UNL     1      -6.680  -9.090   3.805  0.00  0.00    +0.181 C 
ATOM      7  N   UNL     1      -6.793 -10.198   3.117  0.00  0.00    -0.152 NA
ATOM      8  C   UNL     1      -6.160 -10.303   1.928  0.00  0.00    +0.273 C 
ATOM      9  O   UNL     1      -6.342 -11.267   1.200  0.00  0.00    -0.268 OA
ATOM     10  S   UNL     1      -7.281  -8.679   5.422  0.00  0.00    -0.033 S 
ATOM     11  C   UNL     1      -6.547  -7.053   5.539  0.00  0.00    +0.130 C 
ATOM     12  N   UNL     1      -5.957  -6.930   4.375  0.00  0.00    -0.164 NA
ATOM     13  H   UNL     1      -5.452  -5.907   1.926  0.00  0.00    +0.188 HD
ENDROOT
BRANCH  11  14
ATOM     14  C   UNL     1      -6.594  -6.091   6.663  0.00  0.00    +0.012 A 
ATOM     15  C   UNL     1      -7.278  -6.417   7.835  0.00  0.00    +0.011 A 
ATOM     16  C   UNL     1      -7.318  -5.516   8.879  0.00  0.00    +0.001 A 
ATOM     17  C   UNL     1      -6.681  -4.293   8.767  0.00  0.00    +0.000 A 
ATOM     18  C   UNL     1      -6.002  -3.965   7.607  0.00  0.00    +0.004 A 
ATOM     19  C   UNL     1      -5.950  -4.859   6.558  0.00  0.00    -0.041 A 
ATOM     20  C   UNL     1      -5.204  -4.502   5.298  0.00  0.00    +0.044 C 
ENDBRANCH  11  14
BRANCH   1  24
ATOM     21  C   UNL     1      -1.657  -7.215  -0.502  0.00  0.00    +0.138 A 
ATOM     22  C   UNL     1      -1.908  -6.648   0.731  0.00  0.00    +0.050 A 
ATOM     23  C   UNL     1      -2.900  -7.415   1.338  0.00  0.00    +0.050 A 
ATOM     24  C   UNL     1      -3.224  -8.430   0.449  0.00  0.00    +0.129 A 
ATOM     25  O   UNL     1      -2.462  -8.281  -0.656  0.00  0.00    -0.455 OA
BRANCH  21  29
ATOM     26  C   UNL     1       1.170  -5.813  -3.343  0.00  0.00    +0.123 A 
ATOM     27  C   UNL     1       0.159  -4.969  -2.896  0.00  0.00    +0.046 A 
ATOM     28  C   UNL     1      -0.760  -5.420  -1.975  0.00  0.00    +0.017 A 
ATOM     29  C   UNL     1      -0.676  -6.728  -1.489  0.00  0.00    +0.048 A 
ATOM     30  C   UNL     1       0.342  -7.573  -1.942  0.00  0.00    +0.140 A 
ATOM     31  C   UNL     1       1.254  -7.116  -2.867  0.00  0.00    +0.079 A 
BRANCH  30  32
ATOM     32  N   UNL     1       0.436  -8.959  -1.431  0.00  0.00    +0.057 N 
ATOM     33  O   UNL     1       1.258  -9.718  -1.889  0.00  0.00    -0.126 OA
ATOM     34  O   UNL     1      -0.309  -9.333  -0.555  0.00  0.00    -0.126 OA
ENDBRANCH  30  32
BRANCH  26  35
ATOM     35  O   UNL     1       2.074  -5.365  -4.251  0.00  0.00    -0.492 OA
BRANCH  35  37
ATOM     36  C   UNL     1       3.030  -3.693  -5.712  0.00  0.00    +0.048 C 
ATOM     37  C   UNL     1       1.929  -4.015  -4.699  0.00  0.00    +0.225 C 
ENDBRANCH  35  37
ENDBRANCH  26  35
ENDBRANCH  21  29
ENDBRANCH   1  24
TORSDOF 6
