REMARK  Name = ZINC09194427
REMARK  6 active torsions:
REMARK  status: ('A' for Active; 'I' for Inactive)
REMARK    1  A    between atoms: C_1  and  C_2
REMARK    2  A    between atoms: C_9  and  C_13
REMARK    3  A    between atoms: N_15  and  C_16
REMARK    4  A    between atoms: C_17  and  C_25
REMARK    5  A    between atoms: N_27  and  C_28
REMARK    6  A    between atoms: C_28  and  C_29
REMARK                            x       y       z     vdW  Elec       q    Type
REMARK                         _______ _______ _______ _____ _____    ______ ____
ROOT
ATOM      1  C   UNL     1       1.056  -6.205  -0.043  0.00  0.00    +0.085 A 
ATOM      2  C   UNL     1      -0.073  -7.013  -0.031  0.00  0.00    +0.069 A 
ATOM      3  C   UNL     1       0.129  -8.451  -0.048  0.00  0.00    -0.023 A 
ATOM      4  C   UNL     1       1.420  -8.850  -0.062  0.00  0.00    -0.004 A 
ATOM      5  S   UNL     1       2.358  -7.348  -0.062  0.00  0.00    -0.077 S 
ATOM      6  C   UNL     1       1.930 -10.258  -0.074  0.00  0.00    +0.043 C 
ATOM      7  C   UNL     1       0.775 -11.194   0.310  0.00  0.00    +0.005 C 
ATOM      8  C   UNL     1      -0.460 -10.817  -0.513  0.00  0.00    +0.005 C 
ATOM      9  C   UNL     1      -1.006  -9.467  -0.044  0.00  0.00    +0.037 C 
ENDROOT
BRANCH   1  12
ATOM     10  C   UNL     1       2.325  -4.208  -0.044  0.00  0.00    +0.284 C 
ATOM     11  O   UNL     1       3.345  -4.867  -0.058  0.00  0.00    -0.266 OA
ATOM     12  N   UNL     1       1.125  -4.823  -0.036  0.00  0.00    -0.273 N 
ATOM     13  H   UNL     1       0.310  -4.296  -0.025  0.00  0.00    +0.156 HD
BRANCH  10  22
ATOM     14  C   UNL     1      -1.337   2.101   0.020  0.00  0.00    +0.044 C 
ATOM     15  C   UNL     1      -0.017   1.374   0.010  0.00  0.00    -0.047 A 
ATOM     16  C   UNL     1       1.166   2.100   0.002  0.00  0.00    +0.004 A 
ATOM     17  C   UNL     1       2.373   1.456  -0.013  0.00  0.00    +0.015 A 
ATOM     18  C   UNL     1       2.412   0.062  -0.021  0.00  0.00    +0.064 A 
ATOM     19  C   UNL     1       3.693  -0.669  -0.037  0.00  0.00    +0.193 A 
ATOM     20  O   UNL     1       4.762  -0.085  -0.044  0.00  0.00    -0.287 OA
ATOM     21  C   UNL     1       3.618  -2.138  -0.045  0.00  0.00    +0.103 A 
ATOM     22  C   UNL     1       2.398  -2.729  -0.036  0.00  0.00    +0.194 A 
ATOM     23  O   UNL     1       1.256  -2.026  -0.021  0.00  0.00    -0.450 OA
ATOM     24  C   UNL     1       1.218  -0.680  -0.013  0.00  0.00    +0.140 A 
ATOM     25  C   UNL     1       0.002  -0.004   0.002  0.00  0.00    +0.050 A 
ENDBRANCH  10  22
ENDBRANCH   1  12
BRANCH   2  26
ATOM     26  C   UNL     1      -1.421  -6.435  -0.007  0.00  0.00    +0.247 C 
ATOM     27  O   UNL     1      -1.996  -6.189  -1.051  0.00  0.00    -0.270 OA
ATOM     28  N   UNL     1      -2.022  -6.176   1.171  0.00  0.00    -0.304 N 
ATOM     29  H   UNL     1      -1.564  -6.372   2.003  0.00  0.00    +0.149 HD
BRANCH  28  30
ATOM     30  C   UNL     1      -3.369  -5.599   1.195  0.00  0.00    +0.179 C 
BRANCH  30  31
ATOM     31  C   UNL     1      -3.808  -5.410   2.624  0.00  0.00    +0.122 A 
ATOM     32  C   UNL     1      -3.608  -4.308   3.369  0.00  0.00    +0.046 A 
ATOM     33  C   UNL     1      -4.179  -4.562   4.638  0.00  0.00    +0.041 A 
ATOM     34  C   UNL     1      -4.694  -5.803   4.592  0.00  0.00    +0.195 A 
ATOM     35  O   UNL     1      -4.472  -6.310   3.368  0.00  0.00    -0.466 OA
ENDBRANCH  30  31
ENDBRANCH  28  30
ENDBRANCH   2  26
TORSDOF 5
