REMARK  Name = ZINC08790766
REMARK  7 active torsions:
REMARK  status: ('A' for Active; 'I' for Inactive)
REMARK    1  A    between atoms: C_1  and  C_2
REMARK    2  A    between atoms: C_16  and  C_18
REMARK    3  A    between atoms: C_18  and  C_19
REMARK    4  A    between atoms: C_19  and  C_20
REMARK    5  A    between atoms: N_24  and  C_27
REMARK    6  A    between atoms: C_27  and  C_28
REMARK    7  A    between atoms: C_28  and  C_29
REMARK                            x       y       z     vdW  Elec       q    Type
REMARK                         _______ _______ _______ _____ _____    ______ ____
ROOT
ATOM      1  C   UNL     1       0.614  -6.113   4.096  0.00  0.00    +0.045 C 
ATOM      2  C   UNL     1       0.543  -4.833   3.304  0.00  0.00    -0.029 A 
ATOM      3  C   UNL     1      -0.023  -4.834   2.046  0.00  0.00    +0.005 A 
ATOM      4  C   UNL     1      -0.092  -3.665   1.311  0.00  0.00    +0.001 A 
ATOM      5  C   UNL     1       0.411  -2.488   1.839  0.00  0.00    +0.004 A 
ATOM      6  C   UNL     1       0.976  -2.483   3.095  0.00  0.00    -0.027 A 
ATOM      7  C   UNL     1       1.051  -3.655   3.843  0.00  0.00    +0.039 A 
ATOM      8  N   UNL     1       1.662  -3.402   5.074  0.00  0.00    -0.286 N 
ATOM      9  C   UNL     1       2.013  -2.109   5.211  0.00  0.00    +0.211 C 
ATOM     10  O   UNL     1       2.558  -1.605   6.170  0.00  0.00    -0.277 OA
ATOM     11  C   UNL     1       1.597  -1.412   3.945  0.00  0.00    +0.050 C 
ATOM     12  C   UNL     1       0.606  -0.276   4.229  0.00  0.00    +0.088 C 
ATOM     13  C   UNL     1       1.477   1.011   4.235  0.00  0.00    +0.073 C 
ATOM     14  C   UNL     1       2.918   0.534   3.958  0.00  0.00    -0.057 C 
ATOM     15  C   UNL     1       0.967   1.782   3.039  0.00  0.00    +0.224 C 
ATOM     16  O   UNL     1       1.386   2.857   2.668  0.00  0.00    -0.275 OA
ATOM     17  N   UNL     1      -0.020   1.094   2.454  0.00  0.00    -0.241 N 
ATOM     18  C   UNL     1      -0.311  -0.071   3.044  0.00  0.00    +0.225 C 
ATOM     19  O   UNL     1      -1.173  -0.843   2.683  0.00  0.00    -0.275 OA
ATOM     20  H   UNL     1       1.816  -4.080   5.750  0.00  0.00    +0.155 HD
ATOM     21  N   UNL     1       2.730  -0.772   3.296  0.00  0.00    +0.394 N 
ATOM     22  H   UNL     1       2.536  -0.637   2.296  0.00  0.00    -0.083 HD
ATOM     23  H   UNL     1       3.573  -1.349   3.405  0.00  0.00    -0.083 HD
ENDROOT
BRANCH  14  24
ATOM     24  C   UNL     1       3.651   1.542   3.070  0.00  0.00    -0.004 C 
BRANCH  24  25
ATOM     25  C   UNL     1       5.111   1.114   2.911  0.00  0.00    +0.123 C 
BRANCH  25  26
ATOM     26  C   UNL     1       5.833   2.107   2.037  0.00  0.00    +0.356 C 
ATOM     27  O   UNL     1       5.240   3.059   1.587  0.00  0.00    -0.246 OA
ATOM     28  O   UNL     1       7.134   1.934   1.758  0.00  0.00    -0.246 OA
ENDBRANCH  25  26
ENDBRANCH  24  25
ENDBRANCH  14  24
BRANCH  17  29
ATOM     29  C   UNL     1      -0.729   1.579   1.267  0.00  0.00    +0.121 C 
BRANCH  29  30
ATOM     30  C   UNL     1      -0.013   1.086   0.008  0.00  0.00    +0.054 C 
BRANCH  30  31
ATOM     31  C   UNL     1      -0.742   1.585  -1.213  0.00  0.00    -0.046 A 
ATOM     32  C   UNL     1      -1.750   0.825  -1.775  0.00  0.00    +0.004 A 
ATOM     33  C   UNL     1      -2.422   1.285  -2.892  0.00  0.00    +0.000 A 
ATOM     34  C   UNL     1      -2.078   2.501  -3.453  0.00  0.00    +0.000 A 
ATOM     35  C   UNL     1      -1.066   3.259  -2.894  0.00  0.00    +0.000 A 
ATOM     36  C   UNL     1      -0.398   2.801  -1.774  0.00  0.00    +0.004 A 
ENDBRANCH  30  31
ENDBRANCH  29  30
ENDBRANCH  17  29
TORSDOF 6
