REMARK  Name = ZINC39933494
REMARK  8 active torsions:
REMARK  status: ('A' for Active; 'I' for Inactive)
REMARK    1  A    between atoms: C_1  and  C_2
REMARK    2  A    between atoms: C_2  and  C_3
REMARK    3  A    between atoms: C_3  and  C_30
REMARK    4  A    between atoms: N_6  and  N_10
REMARK    5  A    between atoms: C_11  and  C_13
REMARK    6  A    between atoms: C_13  and  S_14
REMARK    7  A    between atoms: S_14  and  C_15
REMARK    8  A    between atoms: C_19  and  C_21
REMARK                            x       y       z     vdW  Elec       q    Type
REMARK                         _______ _______ _______ _____ _____    ______ ____
ROOT
ATOM      1  S   UNL     1      -5.563  -5.990  -1.865  0.00  0.00    -0.087 S 
ENDROOT
BRANCH   1   2
ATOM      2  C   UNL     1      -5.701  -7.669  -2.538  0.00  0.00    +0.339 C 
ATOM      3  N   UNL     1      -4.756  -8.573  -1.862  0.00  0.00    -0.219 N 
ATOM      4  N   UNL     1      -3.898  -9.041  -2.869  0.00  0.00    -0.145 NA
ATOM      5  C   UNL     1      -4.232  -8.522  -4.021  0.00  0.00    +0.238 C 
ATOM      6  O   UNL     1      -5.301  -7.691  -3.916  0.00  0.00    -0.443 OA
ATOM      7  H   UNL     1      -4.731  -8.798  -0.919  0.00  0.00    +0.173 HD
BRANCH   5   8
ATOM      8  C   UNL     1      -3.566  -8.793  -5.224  0.00  0.00    +0.043 C 
ATOM      9  C   UNL     1      -2.471  -9.637  -5.411  0.00  0.00    +0.008 A 
ATOM     10  C   UNL     1      -1.723 -10.439  -4.523  0.00  0.00    +0.010 A 
ATOM     11  C   UNL     1      -0.683 -11.175  -4.993  0.00  0.00    +0.001 A 
ATOM     12  C   UNL     1      -0.329 -11.162  -6.344  0.00  0.00    +0.002 A 
ATOM     13  C   UNL     1      -1.004 -10.415  -7.253  0.00  0.00    +0.026 A 
ATOM     14  C   UNL     1      -2.102  -9.619  -6.836  0.00  0.00    +0.043 A 
ATOM     15  N   UNL     1      -2.906  -8.820  -7.510  0.00  0.00    -0.380 N 
ATOM     16  C   UNL     1      -3.889  -8.236  -6.593  0.00  0.00    +0.154 C 
ATOM     17  H   UNL     1      -2.856  -8.649  -8.464  0.00  0.00    +0.160 HD
ENDBRANCH   5   8
ENDBRANCH   1   2
BRANCH   1  18
ATOM     18  C   UNL     1      -3.826  -5.546  -2.147  0.00  0.00    +0.171 C 
BRANCH  18  20
ATOM     19  N   UNL     1      -2.344  -3.611  -1.728  0.00  0.00    -0.223 N 
ATOM     20  C   UNL     1      -3.573  -4.155  -1.626  0.00  0.00    +0.240 C 
ATOM     21  O   UNL     1      -4.475  -3.525  -1.116  0.00  0.00    -0.273 OA
ATOM     22  H   UNL     1      -1.623  -4.115  -2.136  0.00  0.00    +0.174 HD
BRANCH  19  26
ATOM     23  C   UNL     1      -1.433  -0.534   0.013  0.00  0.00    +0.111 C 
ATOM     24  C   UNL     1      -1.445  -2.045  -0.103  0.00  0.00    +0.263 C 
ATOM     25  O   UNL     1      -0.960  -2.843   0.670  0.00  0.00    -0.271 OA
ATOM     26  N   UNL     1      -2.108  -2.317  -1.245  0.00  0.00    -0.137 N 
ATOM     27  C   UNL     1      -2.513  -1.200  -1.859  0.00  0.00    +0.326 C 
ATOM     28  O   UNL     1      -3.131  -1.190  -2.906  0.00  0.00    -0.251 OA
ATOM     29  N   UNL     1      -2.159  -0.088  -1.189  0.00  0.00    -0.284 N 
ATOM     30  C   UNL     1      -2.162  -0.082   1.280  0.00  0.00    +0.041 C 
ATOM     31  H   UNL     1      -2.346   0.828  -1.447  0.00  0.00    +0.151 HD
BRANCH  23  33
ATOM     32  C   UNL     1      -0.019   1.526   0.010  0.00  0.00    +0.006 C 
ATOM     33  C   UNL     1       0.002  -0.004   0.002  0.00  0.00    +0.032 C 
ENDBRANCH  23  33
ENDBRANCH  19  26
ENDBRANCH  18  20
ENDBRANCH   1  18
TORSDOF 6
