REMARK  Name = ZINC24870480
REMARK  7 active torsions:
REMARK  status: ('A' for Active; 'I' for Inactive)
REMARK    1  A    between atoms: C_1  and  N_2
REMARK    2  A    between atoms: C_6  and  S_7
REMARK    3  A    between atoms: S_7  and  C_8
REMARK    4  A    between atoms: C_8  and  C_9
REMARK    5  A    between atoms: C_12  and  C_15
REMARK    6  A    between atoms: N_17  and  N_18
REMARK    7  A    between atoms: C_19  and  C_21
REMARK                            x       y       z     vdW  Elec       q    Type
REMARK                         _______ _______ _______ _____ _____    ______ ____
ROOT
ATOM      1  C   UNL     1       0.101  -0.859   9.344  0.00  0.00    +0.260 C 
ATOM      2  O   UNL     1       1.157  -0.728   9.931  0.00  0.00    -0.269 OA
ATOM      3  N   UNL     1      -1.062  -0.757  10.018  0.00  0.00    -0.230 N 
ATOM      4  H   UNL     1      -1.905  -0.861   9.550  0.00  0.00    +0.173 HD
ENDROOT
BRANCH   1   8
ATOM      5  C   UNL     1       0.073  -1.639   5.169  0.00  0.00    -0.037 A 
ATOM      6  C   UNL     1       1.277  -1.491   5.834  0.00  0.00    +0.005 A 
ATOM      7  C   UNL     1       1.293  -1.237   7.189  0.00  0.00    +0.013 A 
ATOM      8  C   UNL     1       0.091  -1.130   7.891  0.00  0.00    +0.038 A 
ATOM      9  C   UNL     1      -1.120  -1.282   7.214  0.00  0.00    +0.013 A 
ATOM     10  C   UNL     1      -1.122  -1.529   5.857  0.00  0.00    +0.005 A 
BRANCH   5  11
ATOM     11  C   UNL     1       0.063  -1.917   3.688  0.00  0.00    +0.112 C 
BRANCH  11  12
ATOM     12  S   UNL     1       0.033  -0.347   2.779  0.00  0.00    -0.081 S 
BRANCH  12  18
ATOM     13  C   UNL     1      -0.018   1.461   0.010  0.00  0.00    +0.152 C 
ATOM     14  N   UNL     1       0.002  -0.004   0.002  0.00  0.00    -0.312 N 
ATOM     15  C   UNL     1       0.009  -0.824  -1.093  0.00  0.00    +0.225 A 
ATOM     16  N   UNL     1       0.028  -2.052  -0.657  0.00  0.00    -0.137 NA
ATOM     17  N   UNL     1       0.034  -2.064   0.628  0.00  0.00    -0.123 NA
ATOM     18  C   UNL     1       0.024  -0.834   1.086  0.00  0.00    +0.191 A 
ENDBRANCH  12  18
ENDBRANCH  11  12
ENDBRANCH   5  11
ENDBRANCH   1   8
BRANCH   3  19
ATOM     19  N   UNL     1      -1.052  -0.500  11.396  0.00  0.00    -0.230 N 
ATOM     20  C   UNL     1      -2.215  -0.397  12.070  0.00  0.00    +0.261 C 
ATOM     21  O   UNL     1      -3.272  -0.528  11.482  0.00  0.00    -0.269 OA
ATOM     22  H   UNL     1      -0.209  -0.395  11.864  0.00  0.00    +0.173 HD
BRANCH  20  23
ATOM     23  C   UNL     1      -2.205  -0.128  13.513  0.00  0.00    +0.053 A 
ATOM     24  C   UNL     1      -1.037   0.027  14.189  0.00  0.00    +0.059 A 
ATOM     25  S   UNL     1      -1.477   0.313  15.781  0.00  0.00    -0.096 S 
ATOM     26  C   UNL     1      -3.241   0.242  15.636  0.00  0.00    +0.020 A 
ATOM     27  C   UNL     1      -3.455  -0.012  14.268  0.00  0.00    +0.001 A 
ATOM     28  C   UNL     1      -4.789  -0.121  13.832  0.00  0.00    +0.010 A 
ATOM     29  C   UNL     1      -5.824   0.024  14.722  0.00  0.00    +0.001 A 
ATOM     30  C   UNL     1      -5.588   0.279  16.065  0.00  0.00    +0.001 A 
ATOM     31  C   UNL     1      -4.288   0.380  16.523  0.00  0.00    +0.015 A 
ENDBRANCH  20  23
ENDBRANCH   3  19
TORSDOF 6
