REMARK  Name = ZINC59040155
REMARK  5 active torsions:
REMARK  status: ('A' for Active; 'I' for Inactive)
REMARK    1  A    between atoms: C_6  and  N_7
REMARK    2  A    between atoms: C_8  and  C_10
REMARK    3  A    between atoms: C_10  and  S_11
REMARK    4  A    between atoms: S_11  and  C_12
REMARK    5  A    between atoms: N_17  and  N_18
REMARK                            x       y       z     vdW  Elec       q    Type
REMARK                         _______ _______ _______ _____ _____    ______ ____
ROOT
ATOM      1  C   UNL     1      -3.720  -5.345  -0.461  0.00  0.00    +0.211 A 
ATOM      2  N   UNL     1      -3.958  -6.657  -0.570  0.00  0.00    -0.186 NA
ATOM      3  C   UNL     1      -5.257  -6.869  -0.617  0.00  0.00    +0.232 A 
ATOM      4  N   UNL     1      -5.877  -5.673  -0.538  0.00  0.00    -0.245 N 
ATOM      5  N   UNL     1      -4.865  -4.705  -0.433  0.00  0.00    -0.144 NA
ATOM      6  N   UNL     1      -5.876  -8.100  -0.729  0.00  0.00    -0.205 N 
ATOM      7  H   UNL     1      -6.844  -8.156  -0.757  0.00  0.00    +0.177 HD
ATOM      8  H   UNL     1      -6.834  -5.513  -0.548  0.00  0.00    +0.192 HD
ENDROOT
BRANCH   6   9
ATOM      9  N   UNL     1      -5.105  -9.268  -0.803  0.00  0.00    -0.189 NA
ATOM     10  C   UNL     1      -5.672 -10.397  -1.008  0.00  0.00    +0.037 C 
ATOM     11  C   UNL     1      -7.179 -10.507  -1.078  0.00  0.00    +0.052 C 
ATOM     12  C   UNL     1      -7.555 -11.252  -2.363  0.00  0.00    +0.006 C 
ATOM     13  C   UNL     1      -6.822 -12.594  -2.405  0.00  0.00    +0.001 C 
ATOM     14  C   UNL     1      -5.312 -12.359  -2.468  0.00  0.00    +0.006 C 
ATOM     15  C   UNL     1      -4.852 -11.655  -1.192  0.00  0.00    +0.052 C 
ENDBRANCH   6   9
BRANCH   1  16
ATOM     16  S   UNL     1      -2.127  -4.598  -0.364  0.00  0.00    -0.075 S 
BRANCH  16  17
ATOM     17  C   UNL     1      -2.482  -2.825  -0.225  0.00  0.00    +0.173 C 
BRANCH  17  19
ATOM     18  N   UNL     1      -1.204  -0.717  -0.021  0.00  0.00    -0.285 N 
ATOM     19  C   UNL     1      -1.187  -2.060  -0.133  0.00  0.00    +0.227 C 
ATOM     20  O   UNL     1      -0.129  -2.652  -0.159  0.00  0.00    -0.275 OA
ATOM     21  H   UNL     1      -2.048  -0.249   0.074  0.00  0.00    +0.155 HD
BRANCH  18  27
ATOM     22  C   UNL     1       1.062  -0.446  -0.813  0.00  0.00    +0.024 A 
ATOM     23  C   UNL     1       2.245   0.267  -0.833  0.00  0.00    +0.016 A 
ATOM     24  C   UNL     1       2.369   1.426  -0.089  0.00  0.00    +0.013 A 
ATOM     25  C   UNL     1       1.309   1.875   0.678  0.00  0.00    +0.016 A 
ATOM     26  C   UNL     1       0.123   1.167   0.703  0.00  0.00    +0.024 A 
ATOM     27  C   UNL     1      -0.004   0.003  -0.044  0.00  0.00    +0.033 A 
ATOM     28  I   UNL     1       4.166   2.503  -0.122  0.00  0.00    -0.044 I 
ENDBRANCH  18  27
ENDBRANCH  17  19
ENDBRANCH  16  17
ENDBRANCH   1  16
TORSDOF 5
