REMARK  Name = ZINC05612694
REMARK  8 active torsions:
REMARK  status: ('A' for Active; 'I' for Inactive)
REMARK    1  A    between atoms: C_1  and  C_2
REMARK    2  A    between atoms: C_2  and  N_3
REMARK    3  A    between atoms: N_3  and  N_4
REMARK    4  A    between atoms: C_5  and  C_7
REMARK    5  A    between atoms: C_12  and  O_13
REMARK    6  A    between atoms: C_14  and  C_15
REMARK    7  A    between atoms: N_17  and  C_18
REMARK    8  A    between atoms: C_20  and  N_25
REMARK                            x       y       z     vdW  Elec       q    Type
REMARK                         _______ _______ _______ _____ _____    ______ ____
ROOT
ATOM      1  C   UNL     1       4.869   5.230   0.275  0.00  0.00    +0.062 C 
ATOM      2  C   UNL     1       3.710   6.192   0.314  0.00  0.00    +0.024 C 
ATOM      3  C   UNL     1       2.297   5.675   0.225  0.00  0.00    +0.087 C 
ENDROOT
BRANCH   3   4
ATOM      4  C   UNL     1       2.320   4.173   0.104  0.00  0.00    +0.243 C 
ATOM      5  O   UNL     1       3.378   3.581   0.091  0.00  0.00    -0.270 OA
ATOM      6  N   UNL     1       1.163   3.487   0.009  0.00  0.00    -0.281 N 
ATOM      7  H   UNL     1       0.207   4.027  -0.053  0.00  0.00    +0.155 HD
BRANCH   6   8
ATOM      8  C   UNL     1       1.179   2.087  -0.009  0.00  0.00    +0.054 A 
ATOM      9  C   UNL     1       2.222   1.411  -0.627  0.00  0.00    +0.057 A 
ATOM     10  C   UNL     1       2.235   0.030  -0.644  0.00  0.00    +0.128 A 
ATOM     11  C   UNL     1       1.210  -0.680  -0.046  0.00  0.00    +0.034 A 
ATOM     12  C   UNL     1       0.169  -0.011   0.570  0.00  0.00    +0.024 A 
ATOM     13  C   UNL     1       0.150   1.371   0.591  0.00  0.00    +0.062 A 
ATOM     14 CL   UNL     1      -1.161   2.212   1.358  0.00  0.00    -0.082 Cl
BRANCH  10  15
ATOM     15  N   UNL     1       3.347  -0.691  -1.303  0.00  0.00    +0.056 N 
ATOM     16  O   UNL     1       3.359  -1.909  -1.319  0.00  0.00    -0.126 OA
ATOM     17  O   UNL     1       4.250  -0.066  -1.830  0.00  0.00    -0.126 OA
ENDBRANCH  10  15
ENDBRANCH   6   8
ENDBRANCH   3   4
BRANCH   2  18
ATOM     18  N   UNL     1       3.925   7.450   0.423  0.00  0.00    -0.268 N 
ATOM     19  H   UNL     1       3.079   8.152   0.452  0.00  0.00    +0.170 HD
BRANCH  18  20
ATOM     20  N   UNL     1       5.238   7.931   0.507  0.00  0.00    -0.233 N 
ATOM     21  C   UNL     1       5.464   9.255   0.622  0.00  0.00    +0.264 C 
ATOM     22  O   UNL     1       4.529  10.031   0.654  0.00  0.00    -0.269 OA
ATOM     23  H   UNL     1       6.084   7.229   0.478  0.00  0.00    +0.173 HD
BRANCH  21  24
ATOM     24  C   UNL     1       6.847   9.762   0.709  0.00  0.00    +0.079 A 
ATOM     25  C   UNL     1       7.924   8.873   0.679  0.00  0.00    +0.017 A 
ATOM     26  C   UNL     1       9.213   9.353   0.755  0.00  0.00    +0.001 A 
ATOM     27  C   UNL     1       9.447  10.714   0.873  0.00  0.00    +0.004 A 
ATOM     28  C   UNL     1       8.391  11.603   0.910  0.00  0.00    +0.046 A 
ATOM     29  C   UNL     1       7.087  11.137   0.829  0.00  0.00    +0.129 A 
BRANCH  29  30
ATOM     30  O   UNL     1       6.048  12.009   0.866  0.00  0.00    -0.506 OA
ATOM     31  H   UNL     1       6.240  13.089   0.960  0.00  0.00    +0.292 HD
ENDBRANCH  29  30
ENDBRANCH  21  24
ENDBRANCH  18  20
ENDBRANCH   2  18
TORSDOF 7
