REMARK  Name = ZINC14383311
REMARK  7 active torsions:
REMARK  status: ('A' for Active; 'I' for Inactive)
REMARK    1  A    between atoms: C_4  and  C_7
REMARK    2  A    between atoms: C_7  and  N_8
REMARK    3  A    between atoms: C_9  and  N_36
REMARK    4  A    between atoms: C_10  and  N_17
REMARK    5  A    between atoms: N_17  and  C_18
REMARK    6  A    between atoms: C_18  and  C_19
REMARK    7  A    between atoms: C_25  and  C_27
REMARK                            x       y       z     vdW  Elec       q    Type
REMARK                         _______ _______ _______ _____ _____    ______ ____
ROOT
ATOM      1  N   UNL     1       2.256   3.936  -0.902  0.00  0.00    -0.276 N 
ATOM      2  C   UNL     1       3.167   3.597   0.071  0.00  0.00    +0.128 A 
ATOM      3  C   UNL     1       2.936   3.985   1.375  0.00  0.00    +0.140 A 
ATOM      4  C   UNL     1       1.766   4.709   1.671  0.00  0.00    +0.277 A 
ATOM      5  O   UNL     1       1.535   5.061   2.816  0.00  0.00    -0.266 OA
ATOM      6  N   UNL     1       0.903   5.011   0.681  0.00  0.00    -0.273 N 
ATOM      7  H   UNL     1       0.071   5.526   0.891  0.00  0.00    +0.173 HD
ATOM      8  C   UNL     1       1.147   4.629  -0.585  0.00  0.00    +0.331 A 
ATOM      9  O   UNL     1       0.351   4.916  -1.458  0.00  0.00    -0.246 OA
ENDROOT
BRANCH   3  10
ATOM     10  N   UNL     1       3.854   3.657   2.394  0.00  0.00    -0.256 N 
ATOM     11  C   UNL     1       3.434   2.996   3.491  0.00  0.00    +0.253 C 
ATOM     12  O   UNL     1       4.217   2.749   4.389  0.00  0.00    -0.270 OA
BRANCH  11  13
ATOM     13  C   UNL     1       2.025   2.572   3.604  0.00  0.00    +0.058 A 
ATOM     14  C   UNL     1       1.276   2.315   2.453  0.00  0.00    +0.055 A 
ATOM     15  C   UNL     1      -0.040   1.914   2.564  0.00  0.00    +0.159 A 
ATOM     16  C   UNL     1      -0.622   1.776   3.818  0.00  0.00    +0.160 A 
ATOM     17  C   UNL     1       0.114   2.035   4.962  0.00  0.00    +0.062 A 
ATOM     18  C   UNL     1       1.433   2.432   4.862  0.00  0.00    +0.056 A 
ATOM     19 CL   UNL     1       2.354   2.756   6.297  0.00  0.00    -0.083 Cl
ATOM     20  F   UNL     1      -1.912   1.388   3.921  0.00  0.00    -0.202 F 
ATOM     21  F   UNL     1      -0.764   1.660   1.452  0.00  0.00    -0.202 F 
ENDBRANCH  11  13
BRANCH  10  22
ATOM     22  C   UNL     1       5.263   4.034   2.260  0.00  0.00    +0.149 C 
BRANCH  22  23
ATOM     23  C   UNL     1       5.504   5.339   2.974  0.00  0.00    -0.030 A 
ATOM     24  C   UNL     1       5.254   6.536   2.328  0.00  0.00    +0.005 A 
ATOM     25  C   UNL     1       5.470   7.733   2.985  0.00  0.00    +0.000 A 
ATOM     26  C   UNL     1       5.946   7.734   4.283  0.00  0.00    +0.000 A 
ATOM     27  C   UNL     1       6.201   6.537   4.926  0.00  0.00    +0.000 A 
ATOM     28  C   UNL     1       5.980   5.340   4.271  0.00  0.00    +0.005 A 
ENDBRANCH  22  23
ENDBRANCH  10  22
ENDBRANCH   3  10
BRANCH   2  29
ATOM     29  N   UNL     1       4.297   2.884  -0.253  0.00  0.00    -0.343 N 
ATOM     30  H   UNL     1       4.508   2.707  -1.183  0.00  0.00    +0.144 HD
ATOM     31  H   UNL     1       4.882   2.558   0.448  0.00  0.00    +0.144 HD
ENDBRANCH   2  29
BRANCH   1  32
ATOM     32  C   UNL     1       2.490   3.535  -2.291  0.00  0.00    +0.163 C 
BRANCH  32  36
ATOM     33  C   UNL     1       4.686   6.595  -4.306  0.00  0.00    +0.000 A 
ATOM     34  C   UNL     1       5.358   5.577  -3.656  0.00  0.00    +0.000 A 
ATOM     35  C   UNL     1       4.647   4.587  -3.003  0.00  0.00    +0.005 A 
ATOM     36  C   UNL     1       3.265   4.614  -3.002  0.00  0.00    -0.028 A 
ATOM     37  C   UNL     1       2.593   5.630  -3.657  0.00  0.00    +0.005 A 
ATOM     38  C   UNL     1       3.304   6.623  -4.305  0.00  0.00    +0.000 A 
ENDBRANCH  32  36
ENDBRANCH   1  32
TORSDOF 7
