REMARK  Name = ZINC23943793
REMARK  10 active torsions:
REMARK  status: ('A' for Active; 'I' for Inactive)
REMARK    1  A    between atoms: C_1  and  C_2
REMARK    2  A    between atoms: C_11  and  N_32
REMARK    3  A    between atoms: C_13  and  S_15
REMARK    4  A    between atoms: S_15  and  C_16
REMARK    5  A    between atoms: C_16  and  C_17
REMARK    6  A    between atoms: N_19  and  C_20
REMARK    7  A    between atoms: C_20  and  C_22
REMARK    8  A    between atoms: C_20  and  C_29
REMARK    9  A    between atoms: C_22  and  C_23
REMARK   10  A    between atoms: C_29  and  C_31
REMARK                            x       y       z     vdW  Elec       q    Type
REMARK                         _______ _______ _______ _____ _____    ______ ____
ROOT
ATOM      1  C   UNL     1     -11.896  -3.757   2.268  0.00  0.00    +0.008 C 
ATOM      2  C   UNL     1     -10.553  -3.049   2.080  0.00  0.00    -0.009 C 
ATOM      3  C   UNL     1      -9.754  -3.748   0.976  0.00  0.00    +0.008 C 
ATOM      4  C   UNL     1      -8.324  -3.207   0.949  0.00  0.00    +0.037 C 
ATOM      5  C   UNL     1      -8.374  -1.684   0.862  0.00  0.00    -0.025 A 
ATOM      6  C   UNL     1      -9.495  -1.012   1.191  0.00  0.00    -0.004 A 
ATOM      7  S   UNL     1      -9.100   0.698   0.941  0.00  0.00    -0.073 S 
ATOM      8  C   UNL     1      -7.423   0.507   0.394  0.00  0.00    +0.115 A 
ATOM      9  C   UNL     1      -7.226  -0.888   0.424  0.00  0.00    +0.051 A 
ATOM     10  C   UNL     1      -5.936  -1.334   0.023  0.00  0.00    +0.129 A 
ATOM     11  N   UNL     1      -5.030  -0.444  -0.346  0.00  0.00    -0.207 NA
ATOM     12  C   UNL     1      -5.281   0.860  -0.345  0.00  0.00    +0.191 A 
ATOM     13  N   UNL     1      -6.466   1.333   0.018  0.00  0.00    -0.214 NA
ATOM     14  C   UNL     1     -10.794  -1.590   1.665  0.00  0.00    +0.046 C 
ENDROOT
BRANCH  10  15
ATOM     15  N   UNL     1      -5.634  -2.684   0.015  0.00  0.00    -0.343 N 
ATOM     16  H   UNL     1      -4.634  -3.022  -0.296  0.00  0.00    +0.144 HD
ATOM     17  H   UNL     1      -6.393  -3.419   0.318  0.00  0.00    +0.144 HD
ENDBRANCH  10  15
BRANCH  12  18
ATOM     18  S   UNL     1      -4.018   1.983  -0.844  0.00  0.00    -0.077 S 
BRANCH  18  19
ATOM     19  C   UNL     1      -2.685   0.815  -1.210  0.00  0.00    +0.173 C 
BRANCH  19  20
ATOM     20  C   UNL     1      -1.465   1.573  -1.669  0.00  0.00    +0.224 C 
ATOM     21  O   UNL     1      -1.495   2.783  -1.741  0.00  0.00    -0.275 OA
ATOM     22  N   UNL     1      -0.342   0.905  -1.998  0.00  0.00    -0.305 N 
ATOM     23  H   UNL     1      -0.314  -0.193  -1.928  0.00  0.00    +0.149 HD
BRANCH  22  24
ATOM     24  C   UNL     1       0.842   1.641  -2.450  0.00  0.00    +0.143 C 
BRANCH  24  25
ATOM     25  C   UNL     1       1.640   2.091  -1.254  0.00  0.00    +0.151 C 
ATOM     26  O   UNL     1       1.488   1.547  -0.187  0.00  0.00    -0.296 OA
ATOM     27  C   UNL     1       2.628   3.221  -1.390  0.00  0.00    +0.088 C 
ENDBRANCH  24  25
BRANCH  24  28
ATOM     28  C   UNL     1       1.705   0.730  -3.326  0.00  0.00    +0.065 C 
BRANCH  28  29
ATOM     29  C   UNL     1       0.950   0.379  -4.582  0.00  0.00    -0.045 A 
ATOM     30  C   UNL     1       0.147  -0.746  -4.615  0.00  0.00    +0.004 A 
ATOM     31  C   UNL     1      -0.549  -1.066  -5.765  0.00  0.00    +0.000 A 
ATOM     32  C   UNL     1      -0.434  -0.266  -6.887  0.00  0.00    +0.000 A 
ATOM     33  C   UNL     1       0.372   0.856  -6.856  0.00  0.00    +0.000 A 
ATOM     34  C   UNL     1       1.064   1.179  -5.704  0.00  0.00    +0.004 A 
ENDBRANCH  28  29
ENDBRANCH  24  28
ENDBRANCH  22  24
ENDBRANCH  19  20
ENDBRANCH  18  19
ENDBRANCH  12  18
TORSDOF 8
