REMARK  Name = ZINC15728372
REMARK  3 active torsions:
REMARK  status: ('A' for Active; 'I' for Inactive)
REMARK    1  A    between atoms: C_1  and  C_2
REMARK    2  A    between atoms: N_8  and  S_9
REMARK    3  A    between atoms: S_9  and  C_12
REMARK                            x       y       z     vdW  Elec       q    Type
REMARK                         _______ _______ _______ _____ _____    ______ ____
ROOT
ATOM      1  C   UNL     1      -1.509  -3.937  -2.059  0.00  0.00    +0.109 A 
ATOM      2  C   UNL     1      -1.261  -3.960  -3.424  0.00  0.00    +0.031 A 
ATOM      3  C   UNL     1      -0.638  -2.898  -4.043  0.00  0.00    +0.028 A 
ATOM      4  C   UNL     1      -0.251  -1.792  -3.293  0.00  0.00    +0.047 A 
ATOM      5  C   UNL     1      -0.503  -1.774  -1.909  0.00  0.00    +0.005 A 
ATOM      6  C   UNL     1      -1.139  -2.861  -1.304  0.00  0.00    +0.039 A 
ATOM      7  C   UNL     1       0.018  -0.498  -1.421  0.00  0.00    -0.019 A 
ATOM      8  C   UNL     1       0.524   0.158  -2.480  0.00  0.00    +0.020 A 
ATOM      9  N   UNL     1       0.375  -0.607  -3.607  0.00  0.00    -0.358 N 
ATOM     10  H   UNL     1       0.668  -0.351  -4.495  0.00  0.00    +0.166 HD
ATOM     11  C   UNL     1       1.152   1.531  -2.429  0.00  0.00    +0.053 C 
ATOM     12  C   UNL     1       2.141   1.600  -1.264  0.00  0.00    +0.006 C 
ATOM     13  C   UNL     1       1.415   2.052  -0.000  0.00  0.00    +0.001 C 
ATOM     14  C   UNL     1      -0.019   1.526   0.010  0.00  0.00    +0.005 C 
ATOM     15  C   UNL     1       0.002  -0.004   0.002  0.00  0.00    +0.037 C 
ENDROOT
BRANCH   1  16
ATOM     16  S   UNL     1      -2.309  -5.308  -1.293  0.00  0.00    +0.073 S 
ATOM     17  O   UNL     1      -2.070  -6.434  -2.126  0.00  0.00    -0.150 OA
ATOM     18  O   UNL     1      -1.937  -5.281   0.078  0.00  0.00    -0.150 OA
BRANCH  16  26
ATOM     19  C   UNL     1      -6.502  -4.795  -6.343  0.00  0.00    +0.045 C 
ATOM     20  C   UNL     1      -5.848  -4.848  -4.986  0.00  0.00    -0.032 A 
ATOM     21  C   UNL     1      -6.602  -4.657  -3.836  0.00  0.00    +0.008 A 
ATOM     22  C   UNL     1      -5.963  -4.713  -2.610  0.00  0.00    +0.045 A 
ATOM     23  C   UNL     1      -4.594  -4.958  -2.572  0.00  0.00    +0.138 A 
ATOM     24  N   UNL     1      -3.908  -5.130  -3.692  0.00  0.00    -0.239 NA
ATOM     25  C   UNL     1      -4.493  -5.087  -4.874  0.00  0.00    +0.116 A 
ATOM     26  N   UNL     1      -3.939  -5.017  -1.347  0.00  0.00    -0.199 N 
ATOM     27  H   UNL     1      -4.436  -4.887  -0.525  0.00  0.00    +0.175 HD
ENDBRANCH  16  26
ENDBRANCH   1  16
TORSDOF 2
