REMARK  Name = ZINC39360839
REMARK  10 active torsions:
REMARK  status: ('A' for Active; 'I' for Inactive)
REMARK    1  A    between atoms: C_1  and  C_2
REMARK    2  A    between atoms: C_2  and  O_3
REMARK    3  A    between atoms: O_3  and  C_4
REMARK    4  A    between atoms: C_4  and  C_6
REMARK    5  A    between atoms: C_7  and  C_36
REMARK    6  A    between atoms: C_11  and  S_25
REMARK    7  A    between atoms: C_17  and  C_19
REMARK    8  A    between atoms: S_25  and  C_26
REMARK    9  A    between atoms: C_26  and  C_27
REMARK   10  A    between atoms: C_30  and  N_33
REMARK                            x       y       z     vdW  Elec       q    Type
REMARK                         _______ _______ _______ _____ _____    ______ ____
ROOT
ATOM      1  C   UNL     1      -2.797  -2.407   0.100  0.00  0.00    +0.062 C 
ATOM      2  C   UNL     1      -2.920  -3.727  -0.087  0.00  0.00    +0.017 C 
ATOM      3  N   UNL     1      -4.149  -4.335  -0.194  0.00  0.00    -0.305 N 
ATOM      4  C   UNL     1      -5.255  -3.573   0.083  0.00  0.00    +0.115 C 
ATOM      5  N   UNL     1      -6.276  -4.071   0.710  0.00  0.00    -0.213 NA
ATOM      6  C   UNL     1      -7.349  -3.333   1.026  0.00  0.00    +0.182 C 
ATOM      7  N   UNL     1      -7.423  -2.043   0.730  0.00  0.00    -0.154 NA
ATOM      8  C   UNL     1      -6.455  -1.415   0.081  0.00  0.00    +0.250 C 
ATOM      9  O   UNL     1      -6.570  -0.227  -0.152  0.00  0.00    -0.273 OA
ATOM     10  C   UNL     1      -5.220  -2.134  -0.376  0.00  0.00    +0.152 C 
ATOM     11  C   UNL     1      -3.974  -1.481   0.239  0.00  0.00    +0.077 C 
ATOM     12  C   UNL     1      -1.675  -4.571  -0.184  0.00  0.00    +0.061 C 
ATOM     13  H   UNL     1      -4.231  -5.265  -0.455  0.00  0.00    +0.153 HD
ENDROOT
BRANCH  11  14
ATOM     14  C   UNL     1      -3.683  -0.189  -0.479  0.00  0.00    -0.036 A 
ATOM     15  C   UNL     1      -3.424  -0.176  -1.841  0.00  0.00    +0.024 A 
ATOM     16  C   UNL     1      -3.161   1.029  -2.466  0.00  0.00    +0.111 A 
ATOM     17  N   UNL     1      -3.155   2.156  -1.781  0.00  0.00    -0.263 NA
ATOM     18  C   UNL     1      -3.397   2.182  -0.485  0.00  0.00    +0.111 A 
ATOM     19  C   UNL     1      -3.674   1.017   0.206  0.00  0.00    +0.024 A 
ENDBRANCH  11  14
BRANCH   1  20
ATOM     20  C   UNL     1      -1.496  -1.856   0.176  0.00  0.00    +0.337 C 
ATOM     21  O   UNL     1      -1.003  -1.606   1.260  0.00  0.00    -0.245 OA
BRANCH  20  22
ATOM     22  O   UNL     1      -0.801  -1.608  -0.954  0.00  0.00    -0.462 OA
BRANCH  22  24
ATOM     23  C   UNL     1       1.134  -0.842  -2.183  0.00  0.00    +0.048 C 
ATOM     24  C   UNL     1       0.507  -1.052  -0.803  0.00  0.00    +0.229 C 
ENDBRANCH  22  24
ENDBRANCH  20  22
ENDBRANCH   1  20
BRANCH   6  25
ATOM     25  S   UNL     1      -8.699  -4.099   1.860  0.00  0.00    -0.084 S 
BRANCH  25  26
ATOM     26  C   UNL     1      -9.898  -2.755   2.080  0.00  0.00    +0.112 C 
BRANCH  26  27
ATOM     27  C   UNL     1     -11.118  -3.282   2.791  0.00  0.00    -0.037 A 
ATOM     28  C   UNL     1     -12.172  -3.799   2.062  0.00  0.00    +0.007 A 
ATOM     29  C   UNL     1     -13.291  -4.283   2.714  0.00  0.00    +0.033 A 
ATOM     30  C   UNL     1     -13.356  -4.248   4.094  0.00  0.00    +0.126 A 
ATOM     31  C   UNL     1     -12.301  -3.732   4.823  0.00  0.00    +0.033 A 
ATOM     32  C   UNL     1     -11.180  -3.252   4.171  0.00  0.00    +0.007 A 
BRANCH  30  33
ATOM     33  N   UNL     1     -14.555  -4.765   4.792  0.00  0.00    +0.056 N 
ATOM     34  O   UNL     1     -15.477  -5.217   4.155  0.00  0.00    -0.126 OA
ATOM     35  O   UNL     1     -14.611  -4.735   6.000  0.00  0.00    -0.126 OA
ENDBRANCH  30  33
ENDBRANCH  26  27
ENDBRANCH  25  26
ENDBRANCH   6  25
TORSDOF 8
