REMARK  Name = ZINC03376044
REMARK  13 active torsions:
REMARK  status: ('A' for Active; 'I' for Inactive)
REMARK    1  A    between atoms: C_1  and  C_2
REMARK    2  A    between atoms: C_4  and  C_30
REMARK    3  A    between atoms: C_5  and  C_9
REMARK    4  A    between atoms: C_7  and  C_8
REMARK    5  A    between atoms: C_9  and  C_11
REMARK    6  A    between atoms: C_11  and  S_12
REMARK    7  A    between atoms: S_12  and  C_13
REMARK    8  A    between atoms: C_16  and  C_25
REMARK    9  A    between atoms: N_17  and  C_18
REMARK   10  A    between atoms: C_25  and  C_27
REMARK   11  A    between atoms: C_25  and  N_57
REMARK   12  A    between atoms: C_28  and  N_57
REMARK   13  A    between atoms: C_29  and  N_57
REMARK                            x       y       z     vdW  Elec       q    Type
REMARK                         _______ _______ _______ _____ _____    ______ ____
ROOT
ATOM      1  C   UNL     1      -4.117   7.563   0.522  0.00  0.00    +0.196 A 
ATOM      2  N   UNL     1      -2.972   8.198   0.605  0.00  0.00    -0.122 NA
ATOM      3  N   UNL     1      -3.179   9.460   0.740  0.00  0.00    -0.135 NA
ATOM      4  C   UNL     1      -4.459   9.705   0.750  0.00  0.00    +0.125 A 
ATOM      5  N   UNL     1      -5.105   8.506   0.607  0.00  0.00    -0.275 N 
ENDROOT
BRANCH   5   6
ATOM      6  C   UNL     1      -6.490   8.289   0.559  0.00  0.00    +0.050 A 
ATOM      7  C   UNL     1      -7.238   8.802  -0.492  0.00  0.00    +0.028 A 
ATOM      8  C   UNL     1      -8.601   8.583  -0.539  0.00  0.00    +0.022 A 
ATOM      9  C   UNL     1      -9.223   7.862   0.466  0.00  0.00    +0.041 A 
ATOM     10  C   UNL     1      -8.479   7.354   1.517  0.00  0.00    +0.022 A 
ATOM     11  C   UNL     1      -7.115   7.566   1.566  0.00  0.00    +0.028 A 
ATOM     12 CL   UNL     1     -10.937   7.594   0.407  0.00  0.00    -0.084 Cl
ENDBRANCH   5   6
BRANCH   4  13
ATOM     13  C   UNL     1      -5.108  11.058   0.889  0.00  0.00    -0.003 C 
ATOM     14  C   UNL     1      -5.009  11.525   2.343  0.00  0.00    -0.005 C 
BRANCH  13  17
ATOM     15  C   UNL     1      -4.416  11.558  -1.377  0.00  0.00    -0.096 C 
ATOM     16  C   UNL     1      -5.030  13.355   0.127  0.00  0.00    -0.096 C 
ATOM     17  N   UNL     1      -4.395  12.023   0.026  0.00  0.00    +0.382 N 
ATOM     18  H   UNL     1      -3.420  12.094   0.340  0.00  0.00    -0.082 HD
ENDBRANCH  13  17
ENDBRANCH   4  13
BRANCH   1  19
ATOM     19  S   UNL     1      -4.340   5.826   0.329  0.00  0.00    -0.078 S 
BRANCH  19  20
ATOM     20  C   UNL     1      -2.612   5.289   0.292  0.00  0.00    +0.157 C 
BRANCH  20  21
ATOM     21  C   UNL     1      -2.555   3.792   0.129  0.00  0.00    +0.174 C 
ATOM     22  O   UNL     1      -3.581   3.151   0.046  0.00  0.00    -0.291 OA
BRANCH  21  27
ATOM     23  C   UNL     1       2.530   1.119  -0.099  0.00  0.00    +0.044 C 
ATOM     24  C   UNL     1       1.197   1.820  -0.039  0.00  0.00    -0.047 A 
ATOM     25  C   UNL     1       0.033   1.104  -0.258  0.00  0.00    +0.007 A 
ATOM     26  C   UNL     1      -1.190   1.739  -0.210  0.00  0.00    -0.040 A 
ATOM     27  C   UNL     1      -1.253   3.108   0.071  0.00  0.00    +0.021 A 
ATOM     28  C   UNL     1      -0.072   3.824   0.291  0.00  0.00    +0.015 A 
ATOM     29  C   UNL     1       1.144   3.175   0.234  0.00  0.00    -0.047 A 
ATOM     30  C   UNL     1       2.417   3.945   0.471  0.00  0.00    +0.044 C 
ATOM     31  C   UNL     1      -2.456   0.959  -0.454  0.00  0.00    +0.044 C 
ENDBRANCH  21  27
ENDBRANCH  20  21
ENDBRANCH  19  20
ENDBRANCH   1  19
TORSDOF 7
