REMARK  Name = ZINC49572172
REMARK  4 active torsions:
REMARK  status: ('A' for Active; 'I' for Inactive)
REMARK    1  A    between atoms: C_3  and  N_11
REMARK    2  A    between atoms: C_4  and  C_8
REMARK    3  A    between atoms: C_6  and  N_7
REMARK    4  A    between atoms: N_11  and  C_12
REMARK                            x       y       z     vdW  Elec       q    Type
REMARK                         _______ _______ _______ _____ _____    ______ ____
ROOT
ATOM      1  C   UNL     1       0.027   1.431  -0.213  0.00  0.00    +0.024 A 
ATOM      2  C   UNL     1       1.235   2.093  -0.150  0.00  0.00    +0.025 A 
ATOM      3  C   UNL     1       2.410   1.383   0.059  0.00  0.00    +0.042 A 
ATOM      4  C   UNL     1       2.365  -0.013   0.205  0.00  0.00    +0.086 A 
ATOM      5  C   UNL     1       1.134  -0.676   0.139  0.00  0.00    +0.039 A 
ATOM      6  C   UNL     1      -0.026   0.048  -0.069  0.00  0.00    +0.025 A 
ENDROOT
BRANCH   6   7
ATOM      7  N   UNL     1      -1.258  -0.614  -0.135  0.00  0.00    -0.358 N 
ATOM      8  H   UNL     1      -2.073  -0.109  -0.281  0.00  0.00    +0.142 HD
ATOM      9  H   UNL     1      -1.297  -1.578  -0.035  0.00  0.00    +0.142 HD
ENDBRANCH   6   7
BRANCH   4  10
ATOM     10  C   UNL     1       3.604  -0.774   0.426  0.00  0.00    +0.388 C 
ATOM     11  O   UNL     1       3.864  -1.738  -0.282  0.00  0.00    -0.241 OA
ATOM     12  O   UNL     1       4.374  -0.445   1.318  0.00  0.00    -0.241 OA
ENDBRANCH   4  10
BRANCH   3  13
ATOM     13  N   UNL     1       3.627   2.052   0.122  0.00  0.00    -0.342 N 
ATOM     14  H   UNL     1       4.455   1.549   0.183  0.00  0.00    +0.146 HD
BRANCH  13  15
ATOM     15  C   UNL     1       3.661   3.516   0.096  0.00  0.00    +0.055 C 
ATOM     16  C   UNL     1       3.721   4.032  -1.365  0.00  0.00    +0.002 C 
ATOM     17  C   UNL     1       5.090   4.755  -1.477  0.00  0.00    -0.077 C 
ATOM     18  N   UNL     1       5.897   4.125  -0.421  0.00  0.00    +0.383 N 
ATOM     19  C   UNL     1       4.955   4.035   0.731  0.00  0.00    -0.048 C 
ATOM     20  C   UNL     1       5.567   3.094   1.758  0.00  0.00    -0.014 C 
ATOM     21  C   UNL     1       6.869   3.742   2.258  0.00  0.00    -0.003 C 
ATOM     22  C   UNL     1       7.795   4.060   1.085  0.00  0.00    -0.019 C 
ATOM     23  C   UNL     1       7.061   4.888   0.011  0.00  0.00    -0.078 C 
ATOM     24  H   UNL     1       6.181   3.202  -0.711  0.00  0.00    -0.081 HD
ENDBRANCH  13  15
ENDBRANCH   3  13
TORSDOF 4
