REMARK  Name = ZINC49948679
REMARK  5 active torsions:
REMARK  status: ('A' for Active; 'I' for Inactive)
REMARK    1  A    between atoms: C_1  and  O_2
REMARK    2  A    between atoms: O_2  and  C_3
REMARK    3  A    between atoms: C_8  and  N_10
REMARK    4  A    between atoms: N_10  and  C_11
REMARK    5  A    between atoms: C_11  and  C_12
REMARK                            x       y       z     vdW  Elec       q    Type
REMARK                         _______ _______ _______ _____ _____    ______ ____
ROOT
ATOM      1  C   UNL     1       0.149  -3.503   1.929  0.00  0.00    -0.046 C 
ENDROOT
BRANCH   1   2
ATOM      2  C   UNL     1       1.556  -3.790   2.389  0.00  0.00    -0.060 A 
ATOM      3  C   UNL     1       2.405  -4.533   1.590  0.00  0.00    +0.051 A 
ATOM      4  C   UNL     1       3.699  -4.799   2.010  0.00  0.00    +0.163 A 
ATOM      5  C   UNL     1       4.142  -4.314   3.235  0.00  0.00    +0.176 A 
ATOM      6  C   UNL     1       3.284  -3.570   4.033  0.00  0.00    +0.063 A 
ATOM      7  C   UNL     1       1.996  -3.305   3.606  0.00  0.00    +0.021 A 
ATOM      8 BR   UNL     1       3.880  -2.912   5.703  0.00  0.00    -0.046 Br
ATOM      9  O   UNL     1       5.411  -4.557   3.663  0.00  0.00    -0.484 OA
ATOM     10  C   UNL     1       6.119  -5.616   3.010  0.00  0.00    +0.270 C 
ATOM     11  C   UNL     1       5.924  -5.463   1.496  0.00  0.00    +0.270 C 
ATOM     12  O   UNL     1       4.522  -5.536   1.214  0.00  0.00    -0.485 OA
ENDBRANCH   1   2
BRANCH   1  13
ATOM     13  N   UNL     1       0.132  -2.252   1.159  0.00  0.00    +0.385 N 
ATOM     14  H   UNL     1       0.736  -2.342   0.357  0.00  0.00    -0.085 HD
ATOM     15  H   UNL     1       0.457  -1.495   1.741  0.00  0.00    -0.085 HD
BRANCH  13  20
ATOM     16  C   UNL     1      -1.295  -0.603   0.011  0.00  0.00    +0.104 C 
ATOM     17  C   UNL     1      -1.767  -0.865  -1.434  0.00  0.00    +0.030 C 
ATOM     18  C   UNL     1      -2.527  -2.212  -1.348  0.00  0.00    +0.001 C 
ATOM     19  C   UNL     1      -1.677  -3.019  -0.335  0.00  0.00    -0.013 C 
ATOM     20  C   UNL     1      -1.239  -1.972   0.711  0.00  0.00    -0.042 C 
BRANCH  16  22
ATOM     21  C   UNL     1      -0.017   1.425   0.010  0.00  0.00    +0.194 C 
ATOM     22  O   UNL     1       0.002  -0.004   0.002  0.00  0.00    -0.381 OA
ENDBRANCH  16  22
ENDBRANCH  13  20
ENDBRANCH   1  13
TORSDOF 4
