REMARK  Name = ZINC16024763
REMARK  8 active torsions:
REMARK  status: ('A' for Active; 'I' for Inactive)
REMARK    1  A    between atoms: C_1  and  O_2
REMARK    2  A    between atoms: O_2  and  C_3
REMARK    3  A    between atoms: C_3  and  C_4
REMARK    4  A    between atoms: C_4  and  C_5
REMARK    5  A    between atoms: C_5  and  N_6
REMARK    6  A    between atoms: C_11  and  C_29
REMARK    7  A    between atoms: C_29  and  C_30
REMARK    8  A    between atoms: C_33  and  O_36
REMARK                            x       y       z     vdW  Elec       q    Type
REMARK                         _______ _______ _______ _____ _____    ______ ____
ROOT
ATOM      1  N   UNL     1       1.272  -4.165  -2.169  0.00  0.00    -0.241 N 
ATOM      2  C   UNL     1       2.231  -4.876  -1.565  0.00  0.00    +0.227 C 
ATOM      3  O   UNL     1       3.219  -4.413  -1.038  0.00  0.00    -0.275 OA
ATOM      4  C   UNL     1       1.888  -6.346  -1.640  0.00  0.00    +0.107 C 
ATOM      5  C   UNL     1       2.905  -7.060  -2.555  0.00  0.00    +0.072 C 
ATOM      6  N   UNL     1       2.354  -6.911  -3.928  0.00  0.00    -0.295 NA
ATOM      7  C   UNL     1       0.899  -7.072  -3.752  0.00  0.00    +0.136 C 
ATOM      8  C   UNL     1       0.544  -6.362  -2.421  0.00  0.00    +0.122 C 
ATOM      9  C   UNL     1       0.274  -4.897  -2.676  0.00  0.00    +0.228 C 
ATOM     10  O   UNL     1      -0.696  -4.454  -3.254  0.00  0.00    -0.275 OA
ATOM     11  C   UNL     1       0.504  -8.521  -3.719  0.00  0.00    +0.006 A 
ATOM     12  C   UNL     1       0.851  -9.579  -2.909  0.00  0.00    +0.046 A 
ATOM     13  C   UNL     1       0.305 -10.833  -3.134  0.00  0.00    +0.124 A 
ATOM     14  C   UNL     1      -0.589 -11.017  -4.176  0.00  0.00    +0.040 A 
ATOM     15  C   UNL     1      -0.938  -9.958  -4.988  0.00  0.00    +0.026 A 
ATOM     16  C   UNL     1      -0.394  -8.695  -4.768  0.00  0.00    +0.039 A 
ATOM     17  N   UNL     1      -0.588  -7.487  -5.443  0.00  0.00    -0.283 N 
ATOM     18  C   UNL     1       0.137  -6.485  -4.908  0.00  0.00    +0.243 C 
ATOM     19  O   UNL     1       0.168  -5.333  -5.286  0.00  0.00    -0.273 OA
ATOM     20  F   UNL     1       0.644 -11.873  -2.341  0.00  0.00    -0.205 F 
ATOM     21  H   UNL     1       2.574  -6.003  -4.310  0.00  0.00    +0.124 HD
ATOM     22  H   UNL     1      -1.175  -7.382  -6.208  0.00  0.00    +0.155 HD
ENDROOT
BRANCH   1  23
ATOM     23  C   UNL     1       1.309  -2.703  -2.261  0.00  0.00    +0.118 C 
BRANCH  23  24
ATOM     24  C   UNL     1       0.613  -2.097  -1.041  0.00  0.00    +0.047 C 
BRANCH  24  25
ATOM     25  C   UNL     1       0.652  -0.570  -1.138  0.00  0.00    +0.161 C 
BRANCH  25  27
ATOM     26  C   UNL     1      -0.017   1.425   0.010  0.00  0.00    +0.193 C 
ATOM     27  O   UNL     1       0.002  -0.004   0.002  0.00  0.00    -0.383 OA
ENDBRANCH  25  27
ENDBRANCH  24  25
ENDBRANCH  23  24
ENDBRANCH   1  23
BRANCH   5  28
ATOM     28  C   UNL     1       4.276  -6.388  -2.454  0.00  0.00    +0.054 C 
BRANCH  28  29
ATOM     29  C   UNL     1       5.281  -7.173  -3.258  0.00  0.00    -0.046 A 
ATOM     30  C   UNL     1       5.990  -8.200  -2.663  0.00  0.00    +0.007 A 
ATOM     31  C   UNL     1       6.912  -8.920  -3.397  0.00  0.00    +0.045 A 
ATOM     32  C   UNL     1       7.125  -8.613  -4.733  0.00  0.00    +0.117 A 
ATOM     33  C   UNL     1       6.412  -7.583  -5.328  0.00  0.00    +0.045 A 
ATOM     34  C   UNL     1       5.487  -6.869  -4.591  0.00  0.00    +0.007 A 
BRANCH  32  35
ATOM     35  O   UNL     1       8.032  -9.320  -5.458  0.00  0.00    -0.507 OA
ATOM     36  H   UNL     1       7.663 -10.097  -5.900  0.00  0.00    +0.292 HD
ENDBRANCH  32  35
ENDBRANCH  28  29
ENDBRANCH   5  28
TORSDOF 7
