REMARK  Name = ZINC35374595
REMARK  8 active torsions:
REMARK  status: ('A' for Active; 'I' for Inactive)
REMARK    1  A    between atoms: C_1  and  C_2
REMARK    2  A    between atoms: C_2  and  C_3
REMARK    3  A    between atoms: C_3  and  C_5
REMARK    4  A    between atoms: C_3  and  C_6
REMARK    5  A    between atoms: C_6  and  N_7
REMARK    6  A    between atoms: C_8  and  C_10
REMARK    7  A    between atoms: C_21  and  C_23
REMARK    8  A    between atoms: C_26  and  N_30
REMARK                            x       y       z     vdW  Elec       q    Type
REMARK                         _______ _______ _______ _____ _____    ______ ____
ROOT
ATOM      1  C   UNL     1       1.066  -4.460  -3.659  0.00  0.00    +0.028 C 
ATOM      2  C   UNL     1       2.502  -3.869  -3.537  0.00  0.00    +0.061 C 
ATOM      3  S   UNL     1       3.335  -4.910  -4.820  0.00  0.00    -0.174 S 
ATOM      4  C   UNL     1       2.285  -6.405  -4.617  0.00  0.00    -0.016 C 
ATOM      5  N   UNL     1       1.117  -5.910  -3.873  0.00  0.00    +0.397 N 
ATOM      6  C   UNL     1       1.883  -6.936  -5.986  0.00  0.00    +0.017 C 
ATOM      7  C   UNL     1       0.993  -8.172  -5.813  0.00  0.00    +0.107 C 
ATOM      8  N   UNL     1       1.686  -9.136  -4.948  0.00  0.00    -0.298 N 
ATOM      9  C   UNL     1       2.158  -8.692  -3.628  0.00  0.00    +0.107 C 
ATOM     10  C   UNL     1       3.042  -7.453  -3.813  0.00  0.00    +0.017 C 
ATOM     11  C   UNL     1       1.887 -10.404  -5.357  0.00  0.00    +0.248 C 
ATOM     12  O   UNL     1       1.427 -10.781  -6.417  0.00  0.00    -0.270 OA
ATOM     13  H   UNL     1       1.101  -6.363  -2.972  0.00  0.00    -0.083 HD
ATOM     14  H   UNL     1       0.286  -6.183  -4.376  0.00  0.00    -0.083 HD
ENDROOT
BRANCH  11  15
ATOM     15  C   UNL     1       2.666 -11.337  -4.516  0.00  0.00    +0.055 A 
ATOM     16  C   UNL     1       2.300 -11.556  -3.187  0.00  0.00    +0.017 A 
ATOM     17  C   UNL     1       3.031 -12.428  -2.408  0.00  0.00    +0.033 A 
ATOM     18  C   UNL     1       4.127 -13.086  -2.941  0.00  0.00    +0.128 A 
ATOM     19  C   UNL     1       4.497 -12.873  -4.256  0.00  0.00    +0.053 A 
ATOM     20  C   UNL     1       3.769 -12.007  -5.050  0.00  0.00    +0.055 A 
ATOM     21 CL   UNL     1       4.231 -11.747  -6.703  0.00  0.00    -0.083 Cl
BRANCH  18  22
ATOM     22  N   UNL     1       4.906 -14.020  -2.098  0.00  0.00    +0.056 N 
ATOM     23  O   UNL     1       4.586 -14.207  -0.947  0.00  0.00    -0.126 OA
ATOM     24  O   UNL     1       5.864 -14.595  -2.560  0.00  0.00    -0.126 OA
ENDBRANCH  18  22
ENDBRANCH  11  15
BRANCH   1  26
ATOM     25  N   UNL     1       0.101  -2.899  -2.000  0.00  0.00    -0.316 N 
ATOM     26  C   UNL     1       0.303  -4.173  -2.391  0.00  0.00    +0.200 C 
ATOM     27  O   UNL     1      -0.131  -5.088  -1.724  0.00  0.00    -0.278 OA
ATOM     28  H   UNL     1       0.448  -2.167  -2.534  0.00  0.00    +0.149 HD
BRANCH  25  29
ATOM     29  C   UNL     1      -0.641  -2.620  -0.768  0.00  0.00    +0.107 C 
BRANCH  29  30
ATOM     30  C   UNL     1      -0.726  -1.107  -0.555  0.00  0.00    +0.003 C 
ATOM     31  C   UNL     1       0.677  -0.545  -0.319  0.00  0.00    +0.009 C 
BRANCH  30  33
ATOM     32  C   UNL     1      -1.792   0.701   0.800  0.00  0.00    +0.004 C 
ATOM     33  C   UNL     1      -1.605  -0.811   0.661  0.00  0.00    +0.001 C 
ENDBRANCH  30  33
ENDBRANCH  29  30
ENDBRANCH  25  29
ENDBRANCH   1  26
TORSDOF 6
