REMARK  Name = ZINC14129465
REMARK  5 active torsions:
REMARK  status: ('A' for Active; 'I' for Inactive)
REMARK    1  A    between atoms: C_1  and  C_2
REMARK    2  A    between atoms: C_5  and  C_8
REMARK    3  A    between atoms: N_13  and  C_15
REMARK    4  A    between atoms: C_15  and  N_16
REMARK    5  A    between atoms: C_26  and  C_29
REMARK                            x       y       z     vdW  Elec       q    Type
REMARK                         _______ _______ _______ _____ _____    ______ ____
ROOT
ATOM      1  N   UNL     1       0.029  -4.720  -1.076  0.00  0.00    +0.394 N 
ATOM      2  C   UNL     1       1.454  -5.089  -1.238  0.00  0.00    -0.075 C 
ATOM      3  C   UNL     1       2.406  -3.994  -0.732  0.00  0.00    +0.000 C 
ATOM      4  C   UNL     1       1.939  -2.614  -1.119  0.00  0.00    +0.104 C 
ATOM      5  N   UNL     1       1.111  -2.073  -0.020  0.00  0.00    -0.317 N 
ATOM      6  C   UNL     1      -0.206  -2.548  -0.010  0.00  0.00    +0.088 C 
ATOM      7  C   UNL     1      -0.269  -4.077   0.184  0.00  0.00    -0.057 C 
ATOM      8  C   UNL     1       1.139  -0.683  -0.013  0.00  0.00    +0.121 A 
ATOM      9  C   UNL     1       2.361  -0.018  -0.020  0.00  0.00    +0.044 A 
ATOM     10  C   UNL     1       2.373   1.365  -0.013  0.00  0.00    +0.017 A 
ATOM     11  C   UNL     1       1.159   2.039   0.002  0.00  0.00    +0.073 A 
ATOM     12  C   UNL     1      -0.016   1.315   0.009  0.00  0.00    +0.125 A 
ATOM     13  N   UNL     1       0.002  -0.004   0.002  0.00  0.00    -0.240 NA
ATOM     14  H   UNL     1      -0.190  -3.955  -1.835  0.00  0.00    -0.079 HD
ENDROOT
BRANCH  11  15
ATOM     15  C   UNL     1       1.125   3.546   0.010  0.00  0.00    +0.419 C 
ATOM     16  F   UNL     1      -0.204   3.982   0.025  0.00  0.00    -0.166 F 
ATOM     17  F   UNL     1       1.785   4.021   1.149  0.00  0.00    -0.166 F 
ATOM     18  F   UNL     1       1.763   4.033  -1.135  0.00  0.00    -0.166 F 
ENDBRANCH  11  15
BRANCH   1  19
ATOM     19  C   UNL     1      -0.844  -5.881  -1.294  0.00  0.00    +0.072 C 
BRANCH  19  25
ATOM     20  C   UNL     1       0.373  -8.653   0.664  0.00  0.00    +0.160 A 
ATOM     21  N   UNL     1      -0.566  -8.111   1.519  0.00  0.00    -0.317 N 
ATOM     22  H   UNL     1      -0.740  -8.567   2.505  0.00  0.00    +0.169 HD
ATOM     23  C   UNL     1      -1.120  -7.041   0.915  0.00  0.00    +0.174 A 
ATOM     24  S   UNL     1      -2.337  -6.029   1.569  0.00  0.00    -0.012 S 
ATOM     25  N   UNL     1      -0.543  -6.912  -0.297  0.00  0.00    -0.257 N 
ATOM     26  N   UNL     1       0.392  -7.947  -0.432  0.00  0.00    -0.153 NA
BRANCH  20  31
ATOM     27  C   UNL     1       3.633 -13.272   1.742  0.00  0.00    +0.044 C 
ATOM     28  C   UNL     1       2.780 -12.063   1.460  0.00  0.00    -0.050 A 
ATOM     29  C   UNL     1       2.905 -11.398   0.253  0.00  0.00    +0.004 A 
ATOM     30  C   UNL     1       2.126 -10.290  -0.011  0.00  0.00    +0.012 A 
ATOM     31  C   UNL     1       1.211  -9.841   0.941  0.00  0.00    +0.019 A 
ATOM     32  C   UNL     1       1.094 -10.512   2.158  0.00  0.00    +0.012 A 
ATOM     33  C   UNL     1       1.874 -11.622   2.408  0.00  0.00    +0.004 A 
ENDBRANCH  20  31
ENDBRANCH  19  25
ENDBRANCH   1  19
TORSDOF 4
