REMARK  Name = ZINC06813458
REMARK  10 active torsions:
REMARK  status: ('A' for Active; 'I' for Inactive)
REMARK    1  A    between atoms: C_1  and  C_2
REMARK    2  A    between atoms: C_9  and  C_32
REMARK    3  A    between atoms: C_10  and  C_11
REMARK    4  A    between atoms: C_11  and  C_12
REMARK    5  A    between atoms: C_13  and  C_25
REMARK    6  A    between atoms: N_15  and  C_20
REMARK    7  A    between atoms: C_20  and  C_21
REMARK    8  A    between atoms: C_21  and  N_22
REMARK    9  A    between atoms: N_22  and  C_23
REMARK   10  A    between atoms: N_22  and  C_24
REMARK                            x       y       z     vdW  Elec       q    Type
REMARK                         _______ _______ _______ _____ _____    ______ ____
ROOT
ATOM      1  C   UNL     1      -0.142  -3.491   4.237  0.00  0.00    +0.078 C 
ATOM      2  C   UNL     1      -0.112  -2.263   5.117  0.00  0.00    +0.145 C 
ATOM      3  N   UNL     1      -0.234  -2.748   6.497  0.00  0.00    -0.285 N 
ATOM      4  C   UNL     1      -0.325  -4.090   6.456  0.00  0.00    +0.288 C 
ATOM      5  O   UNL     1      -0.438  -4.811   7.428  0.00  0.00    -0.266 OA
ATOM      6  C   UNL     1      -0.274  -4.557   5.058  0.00  0.00    +0.249 C 
ATOM      7  O   UNL     1      -0.345  -5.849   4.659  0.00  0.00    -0.282 OA
ENDROOT
BRANCH   2   8
ATOM      8  C   UNL     1      -1.269  -1.357   4.782  0.00  0.00    -0.022 A 
ATOM      9  C   UNL     1      -2.564  -1.767   5.036  0.00  0.00    +0.006 A 
ATOM     10  C   UNL     1      -3.625  -0.935   4.729  0.00  0.00    +0.000 A 
ATOM     11  C   UNL     1      -3.390   0.306   4.169  0.00  0.00    +0.000 A 
ATOM     12  C   UNL     1      -2.095   0.717   3.915  0.00  0.00    +0.000 A 
ATOM     13  C   UNL     1      -1.034  -0.113   4.226  0.00  0.00    +0.006 A 
ENDBRANCH   2   8
BRANCH   1  14
ATOM     14  C   UNL     1      -0.052  -3.520   2.771  0.00  0.00    +0.213 C 
ATOM     15  O   UNL     1      -1.066  -3.466   2.097  0.00  0.00    -0.285 OA
BRANCH  14  25
ATOM     16  C   UNL     1       4.857  -3.870  -0.858  0.00  0.00    +0.047 C 
ATOM     17  C   UNL     1       3.366  -3.765  -0.668  0.00  0.00    -0.008 A 
ATOM     18  C   UNL     1       2.536  -3.707  -1.749  0.00  0.00    +0.008 A 
ATOM     19  C   UNL     1       1.152  -3.609  -1.555  0.00  0.00    +0.018 A 
ATOM     20  C   UNL     1       0.643  -3.572  -0.302  0.00  0.00    +0.093 A 
ATOM     21  N   UNL     1       1.463  -3.629   0.781  0.00  0.00    -0.296 N 
ATOM     22  C   UNL     1       2.817  -3.731   0.625  0.00  0.00    +0.141 A 
ATOM     23  N   UNL     1       3.382  -3.776   1.832  0.00  0.00    -0.232 NA
ATOM     24  C   UNL     1       2.450  -3.714   2.767  0.00  0.00    +0.068 A 
ATOM     25  C   UNL     1       1.214  -3.611   2.141  0.00  0.00    +0.116 A 
ATOM     26  C   UNL     1       2.688  -3.737   4.255  0.00  0.00    +0.068 C 
ENDBRANCH  14  25
ENDBRANCH   1  14
BRANCH   3  27
ATOM     27  C   UNL     1      -0.252  -1.919   7.704  0.00  0.00    +0.090 C 
BRANCH  27  28
ATOM     28  C   UNL     1      -1.695  -1.529   8.034  0.00  0.00    -0.060 C 
BRANCH  28  29
ATOM     29  N   UNL     1      -1.713  -0.697   9.244  0.00  0.00    +0.377 N 
ATOM     30  C   UNL     1      -1.019   0.570   8.978  0.00  0.00    -0.097 C 
ATOM     31  C   UNL     1      -3.104  -0.422   9.629  0.00  0.00    -0.097 C 
ATOM     32  H   UNL     1      -1.247  -1.185   9.995  0.00  0.00    -0.083 HD
ENDBRANCH  28  29
ENDBRANCH  27  28
ENDBRANCH   3  27
TORSDOF 6
