REMARK  Name = ZINC35664977
REMARK  11 active torsions:
REMARK  status: ('A' for Active; 'I' for Inactive)
REMARK    1  A    between atoms: C_1  and  C_2
REMARK    2  A    between atoms: C_2  and  C_3
REMARK    3  A    between atoms: C_3  and  C_5
REMARK    4  A    between atoms: C_3  and  N_6
REMARK    5  A    between atoms: C_9  and  C_25
REMARK    6  A    between atoms: N_20  and  C_21
REMARK    7  A    between atoms: C_21  and  C_22
REMARK    8  A    between atoms: C_21  and  C_23
REMARK    9  A    between atoms: C_21  and  C_24
REMARK   10  A    between atoms: C_25  and  C_26
REMARK   11  A    between atoms: C_25  and  C_27
REMARK                            x       y       z     vdW  Elec       q    Type
REMARK                         _______ _______ _______ _____ _____    ______ ____
ROOT
ATOM      1  N   UNL     1      -0.030  -0.087  -2.509  0.00  0.00    -0.311 N 
ATOM      2  C   UNL     1      -1.337  -0.320  -2.747  0.00  0.00    +0.201 C 
ATOM      3  O   UNL     1      -2.100  -0.903  -2.005  0.00  0.00    -0.277 OA
ATOM      4  C   UNL     1      -1.693   0.269  -4.095  0.00  0.00    +0.022 C 
ATOM      5  N   UNL     1      -0.583   1.202  -4.404  0.00  0.00    +0.401 N 
ATOM      6  C   UNL     1       0.550   0.644  -3.639  0.00  0.00    +0.006 C 
ATOM      7  C   UNL     1       1.350  -0.305  -4.529  0.00  0.00    +0.025 C 
ATOM      8  C   UNL     1       2.502  -0.910  -3.720  0.00  0.00    +0.109 C 
ATOM      9  N   UNL     1       3.287   0.181  -3.127  0.00  0.00    -0.286 N 
ATOM     10  C   UNL     1       2.594   1.190  -2.314  0.00  0.00    +0.109 C 
ATOM     11  C   UNL     1       1.441   1.777  -3.134  0.00  0.00    +0.025 C 
ATOM     12  C   UNL     1       4.618   0.256  -3.325  0.00  0.00    +0.303 C 
ATOM     13  O   UNL     1       5.271   1.107  -2.753  0.00  0.00    -0.253 OA
ATOM     14  N   UNL     1       5.225  -0.614  -4.158  0.00  0.00    -0.294 N 
ATOM     15  H   UNL     1      -0.383   1.202  -5.393  0.00  0.00    -0.082 HD
ATOM     16  H   UNL     1       4.718  -1.338  -4.557  0.00  0.00    +0.151 HD
ATOM     17  H   UNL     1      -0.801   2.134  -4.083  0.00  0.00    -0.082 HD
ENDROOT
BRANCH  14  18
ATOM     18  C   UNL     1       6.651  -0.465  -4.459  0.00  0.00    +0.028 C 
ATOM     19  C   UNL     1       7.460  -0.567  -3.165  0.00  0.00    +0.031 C 
ATOM     20  C   UNL     1       7.087  -1.572  -5.421  0.00  0.00    +0.031 C 
ATOM     21  C   UNL     1       6.895   0.899  -5.107  0.00  0.00    +0.031 C 
ENDBRANCH  14  18
BRANCH   4  22
ATOM     22  C   UNL     1      -3.021   1.024  -4.013  0.00  0.00    -0.023 C 
ATOM     23  C   UNL     1      -4.136   0.055  -3.617  0.00  0.00    +0.006 C 
ATOM     24  C   UNL     1      -2.912   2.133  -2.964  0.00  0.00    +0.006 C 
ENDBRANCH   4  22
BRANCH   1  25
ATOM     25  C   UNL     1       0.697  -0.496  -1.304  0.00  0.00    +0.071 C 
ATOM     26  C   UNL     1       0.360  -1.952  -0.976  0.00  0.00    +0.028 C 
BRANCH  25  28
ATOM     27  C   UNL     1       0.735   1.836  -0.408  0.00  0.00    +0.005 C 
ATOM     28  C   UNL     1       0.287   0.399  -0.133  0.00  0.00    +0.019 C 
ENDBRANCH  25  28
ENDBRANCH   1  25
TORSDOF 4
