REMARK  Name = ZINC34748092
REMARK  4 active torsions:
REMARK  status: ('A' for Active; 'I' for Inactive)
REMARK    1  A    between atoms: C_7  and  C_9
REMARK    2  A    between atoms: C_9  and  N_10
REMARK    3  A    between atoms: N_28  and  C_29
REMARK    4  A    between atoms: C_29  and  C_30
REMARK                            x       y       z     vdW  Elec       q    Type
REMARK                         _______ _______ _______ _____ _____    ______ ____
ROOT
ATOM      1  N   UNL     1       4.437  -2.581   1.786  0.00  0.00    +0.387 N 
ATOM      2  C   UNL     1       5.122  -2.177   3.020  0.00  0.00    -0.059 C 
ATOM      3  C   UNL     1       6.524  -2.796   3.051  0.00  0.00    +0.089 C 
ATOM      4  N   UNL     1       6.395  -4.251   2.876  0.00  0.00    -0.304 N 
ATOM      5  C   UNL     1       5.584  -4.745   1.752  0.00  0.00    +0.089 C 
ATOM      6  C   UNL     1       4.227  -4.034   1.783  0.00  0.00    -0.059 C 
ATOM      7  C   UNL     1       7.013  -5.123   3.737  0.00  0.00    +0.202 A 
ATOM      8  N   UNL     1       6.380  -5.524   4.820  0.00  0.00    -0.208 NA
ATOM      9  C   UNL     1       6.956  -6.368   5.670  0.00  0.00    +0.117 A 
ATOM     10  C   UNL     1       8.249  -6.868   5.462  0.00  0.00    +0.076 A 
ATOM     11  C   UNL     1       8.757  -7.794   6.488  0.00  0.00    -0.023 A 
ATOM     12  C   UNL     1       7.938  -8.070   7.515  0.00  0.00    -0.004 A 
ATOM     13  S   UNL     1       6.463  -7.130   7.193  0.00  0.00    -0.073 S 
ATOM     14  C   UNL     1       8.558  -9.029   8.495  0.00  0.00    +0.043 C 
ATOM     15  C   UNL     1       9.736  -9.664   7.723  0.00  0.00    +0.010 C 
ATOM     16  C   UNL     1      10.063  -8.566   6.693  0.00  0.00    +0.037 C 
ATOM     17  C   UNL     1       8.914  -6.417   4.278  0.00  0.00    +0.264 A 
ATOM     18  O   UNL     1      10.041  -6.800   4.016  0.00  0.00    -0.267 OA
ATOM     19  N   UNL     1       8.272  -5.565   3.456  0.00  0.00    -0.271 N 
ATOM     20  H   UNL     1       5.002  -2.322   0.991  0.00  0.00    -0.081 HD
ENDROOT
BRANCH   1  21
ATOM     21  C   UNL     1       3.138  -1.900   1.704  0.00  0.00    +0.019 C 
BRANCH  21  28
ATOM     22  C   UNL     1       0.268   1.943   0.250  0.00  0.00    +0.003 C 
ATOM     23  C   UNL     1       1.733   2.372   0.146  0.00  0.00    +0.019 C 
ATOM     24  C   UNL     1       2.497   1.869   1.375  0.00  0.00    +0.107 C 
ATOM     25  N   UNL     1       2.300   0.418   1.493  0.00  0.00    -0.303 N 
ATOM     26  C   UNL     1       0.929  -0.110   1.510  0.00  0.00    +0.107 C 
ATOM     27  C   UNL     1       0.182   0.415   0.280  0.00  0.00    +0.019 C 
ATOM     28  C   UNL     1       3.357  -0.414   1.583  0.00  0.00    +0.199 C 
ATOM     29  O   UNL     1       4.484   0.034   1.567  0.00  0.00    -0.278 OA
ENDBRANCH  21  28
ENDBRANCH   1  21
BRANCH  19  30
ATOM     30  C   UNL     1       8.942  -5.100   2.239  0.00  0.00    +0.224 C 
BRANCH  30  31
ATOM     31  C   UNL     1       9.787  -3.894   2.559  0.00  0.00    +0.236 C 
ATOM     32  O   UNL     1       9.827  -3.466   3.693  0.00  0.00    -0.274 OA
ATOM     33  N   UNL     1      10.500  -3.292   1.586  0.00  0.00    -0.297 N 
ATOM     34  C   UNL     1      10.893  -3.240   0.176  0.00  0.00    +0.127 C 
ATOM     35  C   UNL     1      11.422  -2.225   1.191  0.00  0.00    +0.127 C 
ENDBRANCH  30  31
ENDBRANCH  19  30
TORSDOF 4
