REMARK  Name = ZINC13499508
REMARK  18 active torsions:
REMARK  status: ('A' for Active; 'I' for Inactive)
REMARK    1  A    between atoms: C_1  and  C_2
REMARK    2  A    between atoms: C_2  and  C_3
REMARK    3  A    between atoms: C_3  and  C_4
REMARK    4  A    between atoms: C_4  and  C_6
REMARK    5  A    between atoms: C_4  and  N_71
REMARK    6  A    between atoms: N_10  and  C_11
REMARK    7  A    between atoms: C_11  and  C_12
REMARK    8  A    between atoms: C_11  and  C_13
REMARK    9  A    between atoms: C_11  and  C_14
REMARK   10  A    between atoms: C_14  and  C_15
REMARK   11  A    between atoms: C_16  and  C_17
REMARK   12  A    between atoms: C_16  and  N_71
REMARK   13  A    between atoms: C_17  and  C_18
REMARK   14  A    between atoms: C_18  and  O_19
REMARK   15  A    between atoms: C_20  and  C_21
REMARK   16  A    between atoms: C_20  and  N_71
REMARK   17  A    between atoms: C_25  and  C_34
REMARK   18  A    between atoms: C_26  and  C_33
REMARK                            x       y       z     vdW  Elec       q    Type
REMARK                         _______ _______ _______ _____ _____    ______ ____
ROOT
ATOM      1  N   UNL     1       4.299  -0.008  -1.015  0.00  0.00    +0.389 N 
ATOM      2  H   UNL     1       4.340  -0.917  -0.540  0.00  0.00    -0.080 HD
ENDROOT
BRANCH   1   3
ATOM      3  C   UNL     1       2.891   0.438  -1.079  0.00  0.00    +0.003 C 
BRANCH   3   4
ATOM      4  C   UNL     1       2.015  -0.767  -1.306  0.00  0.00    +0.139 A 
ATOM      5  N   UNL     1       2.253  -1.766  -2.120  0.00  0.00    -0.115 NA
ATOM      6  N   UNL     1       1.269  -2.592  -2.035  0.00  0.00    -0.023 NA
ATOM      7  N   UNL     1       0.411  -2.150  -1.183  0.00  0.00    -0.043 NA
ATOM      8  N   UNL     1       0.837  -1.028  -0.709  0.00  0.00    -0.225 N 
BRANCH   8   9
ATOM      9  C   UNL     1       0.162  -0.192   0.287  0.00  0.00    +0.061 C 
ATOM     10  C   UNL     1       0.009   1.229  -0.259  0.00  0.00    +0.036 C 
ATOM     11  C   UNL     1       0.993  -0.157   1.572  0.00  0.00    +0.036 C 
BRANCH   9  12
ATOM     12  C   UNL     1      -1.220  -0.774   0.589  0.00  0.00    +0.026 C 
ATOM     13  C   UNL     1      -1.925   0.100   1.630  0.00  0.00    +0.006 C 
ENDBRANCH   9  12
ENDBRANCH   8   9
ENDBRANCH   3   4
BRANCH   3  14
ATOM     14  C   UNL     1       2.697   1.433  -2.224  0.00  0.00    -0.008 C 
BRANCH  14  16
ATOM     15  C   UNL     1       3.218   3.743  -3.021  0.00  0.00    +0.004 C 
ATOM     16  C   UNL     1       3.526   2.691  -1.954  0.00  0.00    -0.005 C 
ENDBRANCH  14  16
ENDBRANCH   3  14
ENDBRANCH   1   3
BRANCH   1  17
ATOM     17  C   UNL     1       4.844  -0.155  -2.381  0.00  0.00    -0.075 C 
BRANCH  17  18
ATOM     18  C   UNL     1       6.140  -0.965  -2.309  0.00  0.00    +0.009 C 
BRANCH  18  19
ATOM     19  C   UNL     1       6.771  -1.044  -3.700  0.00  0.00    +0.154 C 
BRANCH  19  20
ATOM     20  O   UNL     1       7.982  -1.800  -3.632  0.00  0.00    -0.395 OA
ATOM     21  H   UNL     1       8.437  -1.892  -4.481  0.00  0.00    +0.209 HD
ENDBRANCH  19  20
ENDBRANCH  18  19
ENDBRANCH  17  18
ENDBRANCH   1  17
BRANCH   1  22
ATOM     22  C   UNL     1       5.105   0.969  -0.253  0.00  0.00    -0.037 C 
BRANCH  22  23
ATOM     23  C   UNL     1       4.900   0.719   1.219  0.00  0.00    +0.001 A 
ATOM     24  C   UNL     1       5.748  -0.100   1.889  0.00  0.00    +0.017 A 
ATOM     25  C   UNL     1       5.521  -0.322   3.318  0.00  0.00    -0.001 A 
ATOM     26  C   UNL     1       6.362  -1.155   4.063  0.00  0.00    +0.013 A 
ATOM     27  C   UNL     1       6.124  -1.343   5.395  0.00  0.00    -0.047 A 
ATOM     28  C   UNL     1       5.054  -0.713   6.017  0.00  0.00    -0.046 A 
ATOM     29  C   UNL     1       4.212   0.113   5.303  0.00  0.00    +0.030 A 
ATOM     30  C   UNL     1       4.435   0.318   3.945  0.00  0.00    +0.049 A 
ATOM     31  N   UNL     1       3.610   1.139   3.207  0.00  0.00    -0.322 N 
ATOM     32  H   UNL     1       2.862   1.580   3.640  0.00  0.00    +0.169 HD
ATOM     33  C   UNL     1       3.829   1.342   1.896  0.00  0.00    +0.251 A 
ATOM     34  O   UNL     1       3.082   2.078   1.275  0.00  0.00    -0.268 OA
ATOM     35  C   UNL     1       4.810  -0.934   7.487  0.00  0.00    +0.044 C 
ATOM     36  C   UNL     1       7.030  -2.240   6.197  0.00  0.00    +0.044 C 
ENDBRANCH  22  23
ENDBRANCH   1  22
TORSDOF 12
