REMARK  Name = ZINC39461298
REMARK  12 active torsions:
REMARK  status: ('A' for Active; 'I' for Inactive)
REMARK    1  A    between atoms: C_1  and  C_2
REMARK    2  A    between atoms: C_2  and  C_4
REMARK    3  A    between atoms: C_2  and  N_16
REMARK    4  A    between atoms: C_7  and  C_10
REMARK    5  A    between atoms: N_16  and  C_17
REMARK    6  A    between atoms: N_16  and  C_18
REMARK    7  A    between atoms: C_18  and  C_19
REMARK    8  A    between atoms: C_26  and  C_36
REMARK    9  A    between atoms: C_28  and  N_30
REMARK   10  A    between atoms: C_31  and  C_33
REMARK   11  A    between atoms: C_36  and  O_38
REMARK   12  A    between atoms: O_38  and  C_39
REMARK                            x       y       z     vdW  Elec       q    Type
REMARK                         _______ _______ _______ _____ _____    ______ ____
ROOT
ATOM      1  C   UNL     1       1.724  -2.788  -2.413  0.00  0.00    +0.026 A 
ATOM      2  C   UNL     1       2.961  -3.075  -1.870  0.00  0.00    +0.022 A 
ATOM      3  C   UNL     1       4.050  -3.269  -2.700  0.00  0.00    +0.010 A 
ATOM      4  C   UNL     1       3.886  -3.168  -4.084  0.00  0.00    +0.006 A 
ATOM      5  C   UNL     1       2.605  -2.861  -4.542  0.00  0.00    +0.103 A 
ATOM      6  N   UNL     1       1.584  -2.697  -3.723  0.00  0.00    -0.247 NA
ATOM      7  S   UNL     1       2.719  -2.751  -6.315  0.00  0.00    -0.089 S 
ATOM      8  C   UNL     1       4.551  -2.703  -6.477  0.00  0.00    +0.186 C 
ATOM      9  C   UNL     1       4.945  -3.367  -5.138  0.00  0.00    +0.130 C 
ENDROOT
BRANCH   9  10
ATOM     10  N   UNL     1       5.140  -4.803  -5.355  0.00  0.00    -0.307 N 
ATOM     11  C   UNL     1       6.042  -5.480  -4.617  0.00  0.00    +0.217 C 
ATOM     12  O   UNL     1       6.692  -4.900  -3.773  0.00  0.00    -0.275 OA
ATOM     13  H   UNL     1       4.620  -5.266  -6.030  0.00  0.00    +0.149 HD
BRANCH  11  14
ATOM     14  C   UNL     1       6.242  -6.957  -4.840  0.00  0.00    +0.075 C 
ATOM     15  C   UNL     1       5.789  -7.907  -3.731  0.00  0.00    +0.013 C 
ATOM     16  C   UNL     1       7.281  -7.668  -3.970  0.00  0.00    +0.013 C 
ENDBRANCH  11  14
ENDBRANCH   9  10
BRANCH   8  17
ATOM     17  C   UNL     1       5.020  -3.519  -7.654  0.00  0.00    +0.322 C 
ATOM     18  O   UNL     1       6.085  -3.276  -8.172  0.00  0.00    -0.250 OA
BRANCH  17  19
ATOM     19  O   UNL     1       4.255  -4.515  -8.128  0.00  0.00    -0.467 OA
ATOM     20  C   UNL     1       4.761  -5.247  -9.246  0.00  0.00    +0.280 C 
ENDBRANCH  17  19
ENDBRANCH   8  17
BRANCH   1  21
ATOM     21  C   UNL     1       0.533  -2.586  -1.511  0.00  0.00    -0.022 C 
BRANCH  21  22
ATOM     22  N   UNL     1       0.354  -1.151  -1.251  0.00  0.00    +0.385 N 
ATOM     23  C   UNL     1      -0.016  -0.470  -2.498  0.00  0.00    -0.095 C 
ATOM     24  H   UNL     1       1.217  -0.764  -0.898  0.00  0.00    -0.081 HD
BRANCH  22  26
ATOM     25  C   UNL     1      -2.043  -1.437  -0.839  0.00  0.00    -0.011 C 
ATOM     26  C   UNL     1      -0.710  -0.964  -0.256  0.00  0.00    -0.041 C 
BRANCH  26  27
ATOM     27  C   UNL     1      -0.810   0.519   0.110  0.00  0.00    +0.139 C 
ATOM     28  C   UNL     1      -1.706   0.713   1.320  0.00  0.00    +0.030 C 
ATOM     29  C   UNL     1      -0.890   1.260   2.241  0.00  0.00    +0.091 C 
ATOM     30  N   UNL     1       0.362   1.412   1.735  0.00  0.00    -0.154 NA
ATOM     31  N   UNL     1       0.492   1.031   0.566  0.00  0.00    -0.181 NA
BRANCH  29  32
ATOM     32  C   UNL     1      -1.300   1.643   3.615  0.00  0.00    +0.002 A 
ATOM     33  C   UNL     1      -2.613   1.438   4.036  0.00  0.00    +0.010 A 
ATOM     34  C   UNL     1      -2.989   1.796   5.314  0.00  0.00    +0.001 A 
ATOM     35  C   UNL     1      -2.065   2.356   6.178  0.00  0.00    +0.000 A 
ATOM     36  C   UNL     1      -0.761   2.562   5.766  0.00  0.00    +0.001 A 
ATOM     37  C   UNL     1      -0.373   2.203   4.491  0.00  0.00    +0.010 A 
ENDBRANCH  29  32
ENDBRANCH  26  27
ENDBRANCH  22  26
ENDBRANCH  21  22
ENDBRANCH   1  21
TORSDOF 9
