REMARK  Name = ZINC39720026
REMARK  9 active torsions:
REMARK  status: ('A' for Active; 'I' for Inactive)
REMARK    1  A    between atoms: C_1  and  O_2
REMARK    2  A    between atoms: O_2  and  C_3
REMARK    3  A    between atoms: C_6  and  C_11
REMARK    4  A    between atoms: C_7  and  O_9
REMARK    5  A    between atoms: O_9  and  C_10
REMARK    6  A    between atoms: C_13  and  C_17
REMARK    7  A    between atoms: N_18  and  N_19
REMARK    8  A    between atoms: C_20  and  C_22
REMARK    9  A    between atoms: C_27  and  O_28
REMARK                            x       y       z     vdW  Elec       q    Type
REMARK                         _______ _______ _______ _____ _____    ______ ____
ROOT
ATOM      1  C   UNL     1      -4.989  -2.621   0.037  0.00  0.00    +0.165 C 
ATOM      2  C   UNL     1      -5.391  -3.034  -1.369  0.00  0.00    +0.020 C 
ATOM      3  C   UNL     1      -6.544  -2.344  -1.586  0.00  0.00    +0.139 C 
ATOM      4  N   UNL     1      -6.854  -1.604  -0.517  0.00  0.00    -0.185 NA
ATOM      5  N   UNL     1      -6.062  -1.690   0.429  0.00  0.00    -0.297 N 
ATOM      6  H   UNL     1      -6.132  -1.227   1.278  0.00  0.00    +0.183 HD
ENDROOT
BRANCH   1  10
ATOM      7  C   UNL     1      -1.200  -0.637   0.010  0.00  0.00    +0.124 A 
ATOM      8  C   UNL     1      -2.375   0.102   0.019  0.00  0.00    +0.046 A 
ATOM      9  C   UNL     1      -3.597  -0.541   0.028  0.00  0.00    +0.013 A 
ATOM     10  C   UNL     1      -3.654  -1.922   0.027  0.00  0.00    +0.023 A 
ATOM     11  C   UNL     1      -2.483  -2.666   0.018  0.00  0.00    +0.129 A 
ATOM     12  C   UNL     1      -1.255  -2.022   0.003  0.00  0.00    +0.091 A 
BRANCH   7  14
ATOM     13  C   UNL     1      -0.017   1.425   0.010  0.00  0.00    +0.277 C 
ATOM     14  O   UNL     1       0.002  -0.004   0.002  0.00  0.00    -0.495 OA
ENDBRANCH   7  14
BRANCH  11  15
ATOM     15  O   UNL     1      -2.539  -4.024   0.017  0.00  0.00    -0.495 OA
ATOM     16  C   UNL     1      -1.294  -4.725   0.007  0.00  0.00    +0.277 C 
ENDBRANCH  11  15
ENDBRANCH   1  10
BRANCH   2  17
ATOM     17  C   UNL     1      -4.725  -3.923  -2.244  0.00  0.00    +0.138 C 
ATOM     18  N   UNL     1      -5.217  -4.164  -3.427  0.00  0.00    -0.188 NA
BRANCH  18  19
ATOM     19  N   UNL     1      -4.558  -5.045  -4.294  0.00  0.00    -0.203 N 
ATOM     20  C   UNL     1      -5.066  -5.294  -5.517  0.00  0.00    +0.267 C 
ATOM     21  O   UNL     1      -6.098  -4.754  -5.868  0.00  0.00    -0.268 OA
ATOM     22  H   UNL     1      -3.735  -5.475  -4.014  0.00  0.00    +0.178 HD
BRANCH  20  23
ATOM     23  C   UNL     1      -4.372  -6.221  -6.430  0.00  0.00    +0.081 A 
ATOM     24  C   UNL     1      -3.189  -6.848  -6.028  0.00  0.00    +0.032 A 
ATOM     25  C   UNL     1      -2.546  -7.714  -6.886  0.00  0.00    +0.019 A 
ATOM     26  C   UNL     1      -3.066  -7.966  -8.146  0.00  0.00    +0.019 A 
ATOM     27  C   UNL     1      -4.234  -7.353  -8.555  0.00  0.00    +0.047 A 
ATOM     28  C   UNL     1      -4.898  -6.483  -7.702  0.00  0.00    +0.129 A 
ATOM     29 BR   UNL     1      -0.945  -8.561  -6.342  0.00  0.00    -0.050 Br
BRANCH  28  30
ATOM     30  O   UNL     1      -6.048  -5.885  -8.101  0.00  0.00    -0.506 OA
ATOM     31  H   UNL     1      -5.917  -5.037  -8.547  0.00  0.00    +0.292 HD
ENDBRANCH  28  30
ENDBRANCH  20  23
ENDBRANCH  18  19
ENDBRANCH   2  17
TORSDOF 7
