REMARK  Name = ZINC59794664
REMARK  10 active torsions:
REMARK  status: ('A' for Active; 'I' for Inactive)
REMARK    1  A    between atoms: C_1  and  C_2
REMARK    2  A    between atoms: C_2  and  C_3
REMARK    3  A    between atoms: C_2  and  C_4
REMARK    4  A    between atoms: C_2  and  C_5
REMARK    5  A    between atoms: N_7  and  N_8
REMARK    6  A    between atoms: C_9  and  C_11
REMARK    7  A    between atoms: C_11  and  S_12
REMARK    8  A    between atoms: S_12  and  C_13
REMARK    9  A    between atoms: C_16  and  C_24
REMARK   10  A    between atoms: N_17  and  C_18
REMARK                            x       y       z     vdW  Elec       q    Type
REMARK                         _______ _______ _______ _____ _____    ______ ____
ROOT
ATOM      1  C   UNL     1       3.218  -6.293  -5.575  0.00  0.00    +0.197 A 
ATOM      2  N   UNL     1       3.709  -5.443  -6.449  0.00  0.00    -0.122 NA
ATOM      3  N   UNL     1       4.262  -6.078  -7.420  0.00  0.00    -0.128 NA
ATOM      4  C   UNL     1       4.159  -7.372  -7.227  0.00  0.00    +0.169 A 
ATOM      5  N   UNL     1       3.491  -7.551  -6.036  0.00  0.00    -0.270 N 
ENDROOT
BRANCH   4   6
ATOM      6  C   UNL     1       4.669  -8.437  -8.117  0.00  0.00    +0.021 A 
ATOM      7  C   UNL     1       4.223  -9.751  -7.966  0.00  0.00    +0.012 A 
ATOM      8  C   UNL     1       4.702 -10.740  -8.800  0.00  0.00    +0.002 A 
ATOM      9  C   UNL     1       5.622 -10.432  -9.786  0.00  0.00    +0.020 A 
ATOM     10  C   UNL     1       6.069  -9.131  -9.942  0.00  0.00    +0.042 A 
ATOM     11  C   UNL     1       5.594  -8.131  -9.117  0.00  0.00    +0.031 A 
ATOM     12 CL   UNL     1       7.225  -8.755 -11.182  0.00  0.00    -0.084 Cl
ENDBRANCH   4   6
BRANCH   5  13
ATOM     13  C   UNL     1       3.158  -8.768  -5.425  0.00  0.00    +0.051 A 
ATOM     14  C   UNL     1       4.160  -9.612  -4.963  0.00  0.00    +0.026 A 
ATOM     15  C   UNL     1       3.829 -10.810  -4.362  0.00  0.00    +0.002 A 
ATOM     16  C   UNL     1       2.502 -11.171  -4.220  0.00  0.00    +0.000 A 
ATOM     17  C   UNL     1       1.502 -10.333  -4.679  0.00  0.00    +0.002 A 
ATOM     18  C   UNL     1       1.827  -9.130  -5.276  0.00  0.00    +0.026 A 
ENDBRANCH   5  13
BRANCH   1  19
ATOM     19  S   UNL     1       2.371  -5.886  -4.084  0.00  0.00    -0.076 S 
BRANCH  19  20
ATOM     20  C   UNL     1       2.347  -4.072  -4.074  0.00  0.00    +0.174 C 
BRANCH  20  22
ATOM     21  N   UNL     1       1.502  -2.264  -2.612  0.00  0.00    -0.234 N 
ATOM     22  C   UNL     1       1.641  -3.586  -2.834  0.00  0.00    +0.239 C 
ATOM     23  O   UNL     1       1.199  -4.385  -2.036  0.00  0.00    -0.273 OA
ATOM     24  H   UNL     1       1.856  -1.625  -3.251  0.00  0.00    +0.173 HD
BRANCH  21  27
ATOM     25  C   UNL     1       0.707  -0.490  -1.238  0.00  0.00    +0.234 C 
ATOM     26  O   UNL     1       1.150   0.308  -2.036  0.00  0.00    -0.274 OA
ATOM     27  N   UNL     1       0.847  -1.812  -1.460  0.00  0.00    -0.234 N 
ATOM     28  H   UNL     1       0.493  -2.451  -0.821  0.00  0.00    +0.173 HD
BRANCH  25  30
ATOM     29  C   UNL     1      -0.019   1.526   0.010  0.00  0.00    +0.020 C 
ATOM     30  C   UNL     1       0.002  -0.004   0.002  0.00  0.00    +0.040 C 
ATOM     31  C   UNL     1       0.742  -0.511   1.242  0.00  0.00    +0.020 C 
ATOM     32  C   UNL     1      -1.433  -0.534   0.013  0.00  0.00    +0.020 C 
ENDBRANCH  25  30
ENDBRANCH  21  27
ENDBRANCH  20  22
ENDBRANCH  19  20
ENDBRANCH   1  19
TORSDOF 7
