REMARK  Name = ZINC39666196
REMARK  11 active torsions:
REMARK  status: ('A' for Active; 'I' for Inactive)
REMARK    1  A    between atoms: C_1  and  C_2
REMARK    2  A    between atoms: C_5  and  O_8
REMARK    3  A    between atoms: O_8  and  C_9
REMARK    4  A    between atoms: C_9  and  C_11
REMARK    5  A    between atoms: C_9  and  C_12
REMARK    6  A    between atoms: C_12  and  N_13
REMARK    7  A    between atoms: C_14  and  C_16
REMARK    8  A    between atoms: C_27  and  C_29
REMARK    9  A    between atoms: C_30  and  C_40
REMARK   10  A    between atoms: C_33  and  C_34
REMARK   11  A    between atoms: C_36  and  C_39
REMARK                            x       y       z     vdW  Elec       q    Type
REMARK                         _______ _______ _______ _____ _____    ______ ____
ROOT
ATOM      1  C   UNL     1       4.838  -6.439   0.555  0.00  0.00    +0.100 C 
ATOM      2  C   UNL     1       5.018  -5.600  -0.730  0.00  0.00    +0.121 C 
ATOM      3  N   UNL     1       6.280  -6.096  -1.328  0.00  0.00    -0.296 N 
ATOM      4  C   UNL     1       6.240  -7.561  -1.109  0.00  0.00    +0.115 C 
ATOM      5  C   UNL     1       5.641  -7.726   0.302  0.00  0.00    -0.004 C 
ATOM      6  C   UNL     1       6.755  -7.865   1.335  0.00  0.00    -0.010 C 
ATOM      7  C   UNL     1       7.504  -9.180   1.097  0.00  0.00    -0.082 C 
ATOM      8  N   UNL     1       6.566 -10.304   1.204  0.00  0.00    +0.379 N 
ATOM      9  C   UNL     1       5.551 -10.212   0.147  0.00  0.00    -0.082 C 
ATOM     10  C   UNL     1       4.720  -8.941   0.345  0.00  0.00    -0.010 C 
ATOM     11  C   UNL     1       7.245  -5.376  -1.933  0.00  0.00    +0.252 C 
ATOM     12  O   UNL     1       8.231  -5.934  -2.377  0.00  0.00    -0.270 OA
ATOM     13  H   UNL     1       7.072 -11.172   1.107  0.00  0.00    -0.086 HD
ATOM     14  H   UNL     1       6.115 -10.280   2.106  0.00  0.00    -0.086 HD
ENDROOT
BRANCH  11  15
ATOM     15  C   UNL     1       7.108  -3.915  -2.057  0.00  0.00    +0.108 A 
ATOM     16  C   UNL     1       7.562  -2.947  -1.128  0.00  0.00    +0.093 A 
ATOM     17  N   UNL     1       7.257  -1.770  -1.587  0.00  0.00    -0.082 NA
ATOM     18  O   UNL     1       6.594  -1.920  -2.827  0.00  0.00    -0.352 OA
ATOM     19  C   UNL     1       6.513  -3.231  -3.107  0.00  0.00    +0.201 A 
ATOM     20  C   UNL     1       8.277  -3.232   0.168  0.00  0.00    +0.070 C 
BRANCH  19  21
ATOM     21  C   UNL     1       5.902  -3.833  -4.311  0.00  0.00    +0.152 A 
ATOM     22  C   UNL     1       5.301  -3.130  -5.385  0.00  0.00    +0.079 A 
ATOM     23  C   UNL     1       4.866  -4.032  -6.282  0.00  0.00    +0.135 A 
ATOM     24  O   UNL     1       5.163  -5.258  -5.825  0.00  0.00    -0.359 OA
ATOM     25  N   UNL     1       5.823  -5.116  -4.580  0.00  0.00    -0.075 NA
ATOM     26  C   UNL     1       4.164  -3.719  -7.578  0.00  0.00    +0.089 C 
ENDBRANCH  19  21
ENDBRANCH  11  15
BRANCH   1  28
ATOM     27  N   UNL     1       2.912  -6.953   2.019  0.00  0.00    -0.312 N 
ATOM     28  C   UNL     1       3.382  -6.763   0.771  0.00  0.00    +0.218 C 
ATOM     29  O   UNL     1       2.634  -6.853  -0.179  0.00  0.00    -0.275 OA
ATOM     30  H   UNL     1       3.511  -6.881   2.779  0.00  0.00    +0.149 HD
BRANCH  27  31
ATOM     31  C   UNL     1       1.497  -7.268   2.229  0.00  0.00    +0.148 C 
BRANCH  31  32
ATOM     32  C   UNL     1       1.227  -7.434   3.726  0.00  0.00    +0.187 C 
ATOM     33  C   UNL     1      -0.219  -7.884   3.937  0.00  0.00    +0.053 C 
BRANCH  32  34
ATOM     34  O   UNL     1       1.439  -6.186   4.389  0.00  0.00    -0.488 OA
BRANCH  34  39
ATOM     35  C   UNL     1       2.771  -6.388   9.858  0.00  0.00    +0.044 C 
ATOM     36  C   UNL     1       2.414  -6.334   8.395  0.00  0.00    -0.050 A 
ATOM     37  C   UNL     1       2.090  -7.497   7.720  0.00  0.00    +0.007 A 
ATOM     38  C   UNL     1       1.763  -7.449   6.378  0.00  0.00    +0.046 A 
ATOM     39  C   UNL     1       1.760  -6.234   5.709  0.00  0.00    +0.121 A 
ATOM     40  C   UNL     1       2.085  -5.069   6.388  0.00  0.00    +0.046 A 
ATOM     41  C   UNL     1       2.406  -5.121   7.731  0.00  0.00    +0.007 A 
ENDBRANCH  34  39
ENDBRANCH  32  34
ENDBRANCH  31  32
ENDBRANCH  27  31
ENDBRANCH   1  28
TORSDOF 7
