REMARK  Name = ZINC41586612
REMARK  11 active torsions:
REMARK  status: ('A' for Active; 'I' for Inactive)
REMARK    1  A    between atoms: C_1  and  C_2
REMARK    2  A    between atoms: C_2  and  O_3
REMARK    3  A    between atoms: O_3  and  C_4
REMARK    4  A    between atoms: C_4  and  C_6
REMARK    5  A    between atoms: N_11  and  C_13
REMARK    6  A    between atoms: C_13  and  C_14
REMARK    7  A    between atoms: C_15  and  O_37
REMARK    8  A    between atoms: C_21  and  C_33
REMARK    9  A    between atoms: C_22  and  C_25
REMARK   10  A    between atoms: C_30  and  O_31
REMARK   11  A    between atoms: O_31  and  C_32
REMARK                            x       y       z     vdW  Elec       q    Type
REMARK                         _______ _______ _______ _____ _____    ______ ____
ROOT
ATOM      1  C   UNL     1      -5.406  -6.592   0.218  0.00  0.00    +0.020 A 
ATOM      2  C   UNL     1      -5.948  -6.799   1.476  0.00  0.00    +0.122 A 
ATOM      3  C   UNL     1      -7.221  -7.347   1.620  0.00  0.00    +0.046 A 
ATOM      4  C   UNL     1      -7.955  -7.684   0.517  0.00  0.00    +0.019 A 
ATOM      5  C   UNL     1      -7.423  -7.478  -0.755  0.00  0.00    +0.065 A 
ATOM      6  C   UNL     1      -6.138  -6.927  -0.913  0.00  0.00    +0.144 A 
ATOM      7  O   UNL     1      -5.625  -6.740  -2.144  0.00  0.00    -0.450 OA
ATOM      8  C   UNL     1      -6.390  -6.769  -3.237  0.00  0.00    +0.220 A 
ATOM      9  C   UNL     1      -7.649  -7.281  -3.239  0.00  0.00    +0.080 A 
ATOM     10  C   UNL     1      -8.184  -7.819  -1.972  0.00  0.00    +0.201 A 
ATOM     11  O   UNL     1      -9.199  -8.493  -1.932  0.00  0.00    -0.286 OA
ENDROOT
BRANCH   9  12
ATOM     12  C   UNL     1      -8.458  -7.307  -4.482  0.00  0.00    +0.031 A 
ATOM     13  C   UNL     1      -8.181  -8.241  -5.478  0.00  0.00    +0.012 A 
ATOM     14  C   UNL     1      -8.937  -8.261  -6.632  0.00  0.00    +0.001 A 
ATOM     15  C   UNL     1      -9.970  -7.357  -6.805  0.00  0.00    +0.004 A 
ATOM     16  C   UNL     1     -10.253  -6.426  -5.823  0.00  0.00    +0.046 A 
ATOM     17  C   UNL     1      -9.507  -6.399  -4.657  0.00  0.00    +0.128 A 
BRANCH  17  18
ATOM     18  O   UNL     1      -9.788  -5.488  -3.688  0.00  0.00    -0.494 OA
ATOM     19  C   UNL     1     -10.873  -4.592  -3.936  0.00  0.00    +0.277 C 
ENDBRANCH  17  18
ENDBRANCH   9  12
BRANCH   8  20
ATOM     20  C   UNL     1      -5.835  -6.210  -4.522  0.00  0.00    +0.451 C 
ATOM     21  F   UNL     1      -6.790  -6.336  -5.536  0.00  0.00    -0.163 F 
ATOM     22  F   UNL     1      -5.520  -4.858  -4.345  0.00  0.00    -0.163 F 
ATOM     23  F   UNL     1      -4.681  -6.916  -4.877  0.00  0.00    -0.163 F 
ENDBRANCH   8  20
BRANCH   2  24
ATOM     24  O   UNL     1      -5.231  -6.466   2.579  0.00  0.00    -0.506 OA
ATOM     25  H   UNL     1      -5.374  -5.558   2.882  0.00  0.00    +0.292 HD
ENDBRANCH   2  24
BRANCH   1  26
ATOM     26  C   UNL     1      -4.028  -6.000   0.078  0.00  0.00    -0.036 C 
BRANCH  26  31
ATOM     27  C   UNL     1      -2.881  -2.427   0.017  0.00  0.00    +0.081 C 
ATOM     28  C   UNL     1      -3.647  -1.960  -1.225  0.00  0.00    +0.011 C 
ATOM     29  C   UNL     1      -5.023  -2.632  -1.246  0.00  0.00    -0.018 C 
ATOM     30  C   UNL     1      -4.844  -4.151  -1.211  0.00  0.00    -0.078 C 
ATOM     31  N   UNL     1      -4.129  -4.535   0.011  0.00  0.00    +0.383 N 
ATOM     32  C   UNL     1      -2.781  -3.954   0.005  0.00  0.00    -0.064 C 
ATOM     33  H   UNL     1      -4.635  -4.198   0.816  0.00  0.00    -0.081 HD
BRANCH  27  34
ATOM     34  C   UNL     1      -1.496  -1.832   0.006  0.00  0.00    +0.308 C 
ATOM     35  O   UNL     1      -0.528  -2.555  -0.007  0.00  0.00    -0.251 OA
BRANCH  34  36
ATOM     36  O   UNL     1      -1.339  -0.499   0.012  0.00  0.00    -0.465 OA
BRANCH  36  38
ATOM     37  C   UNL     1      -0.019   1.526   0.010  0.00  0.00    +0.048 C 
ATOM     38  C   UNL     1       0.002  -0.004   0.002  0.00  0.00    +0.229 C 
ENDBRANCH  36  38
ENDBRANCH  34  36
ENDBRANCH  27  34
ENDBRANCH  26  31
ENDBRANCH   1  26
TORSDOF 9
