REMARK  Name = ZINC39631904
REMARK  16 active torsions:
REMARK  status: ('A' for Active; 'I' for Inactive)
REMARK    1  A    between atoms: C_1  and  C_2
REMARK    2  A    between atoms: C_2  and  C_3
REMARK    3  A    between atoms: C_3  and  C_4
REMARK    4  A    between atoms: C_4  and  C_5
REMARK    5  A    between atoms: C_5  and  C_7
REMARK    6  A    between atoms: C_5  and  C_8
REMARK    7  A    between atoms: C_12  and  C_21
REMARK    8  A    between atoms: N_23  and  C_24
REMARK    9  A    between atoms: C_24  and  C_26
REMARK   10  A    between atoms: C_24  and  C_27
REMARK   11  A    between atoms: C_27  and  C_28
REMARK   12  A    between atoms: C_28  and  C_29
REMARK   13  A    between atoms: C_29  and  C_30
REMARK   14  A    between atoms: C_30  and  C_31
REMARK   15  A    between atoms: C_30  and  C_32
REMARK   16  A    between atoms: C_30  and  O_33
REMARK                            x       y       z     vdW  Elec       q    Type
REMARK                         _______ _______ _______ _____ _____    ______ ____
ROOT
ATOM      1  C   UNL     1       0.413  -3.790   2.741  0.00  0.00    +0.218 C 
ATOM      2  O   UNL     1       0.067  -2.638   2.892  0.00  0.00    -0.275 OA
ATOM      3  N   UNL     1       1.237  -4.369   3.637  0.00  0.00    -0.300 N 
ATOM      4  C   UNL     1       1.753  -3.793   4.901  0.00  0.00    +0.121 C 
ATOM      5  C   UNL     1       1.722  -4.967   5.906  0.00  0.00    +0.100 C 
ATOM      6  C   UNL     1       1.775  -6.232   5.034  0.00  0.00    -0.004 C 
ATOM      7  C   UNL     1       1.826  -5.729   3.584  0.00  0.00    +0.115 C 
ATOM      8  C   UNL     1       3.026  -7.044   5.356  0.00  0.00    -0.010 C 
ATOM      9  C   UNL     1       3.027  -8.325   4.518  0.00  0.00    -0.082 C 
ATOM     10  N   UNL     1       1.822  -9.108   4.815  0.00  0.00    +0.379 N 
ATOM     11  C   UNL     1       0.626  -8.357   4.416  0.00  0.00    -0.082 C 
ATOM     12  C   UNL     1       0.523  -7.076   5.250  0.00  0.00    -0.010 C 
ATOM     13  H   UNL     1       1.855  -9.980   4.308  0.00  0.00    -0.086 HD
ATOM     14  H   UNL     1       1.782  -9.299   5.805  0.00  0.00    -0.086 HD
ENDROOT
BRANCH   5  15
ATOM     15  C   UNL     1       0.448  -4.935   6.711  0.00  0.00    +0.218 C 
ATOM     16  O   UNL     1      -0.555  -4.442   6.239  0.00  0.00    -0.275 OA
ATOM     17  N   UNL     1       0.423  -5.454   7.954  0.00  0.00    -0.312 N 
ATOM     18  H   UNL     1       1.241  -5.784   8.358  0.00  0.00    +0.149 HD
BRANCH  17  19
ATOM     19  C   UNL     1      -0.839  -5.520   8.695  0.00  0.00    +0.070 C 
ATOM     20  C   UNL     1      -1.582  -6.805   8.324  0.00  0.00    +0.028 C 
BRANCH  19  21
ATOM     21  C   UNL     1      -0.549  -5.515  10.198  0.00  0.00    +0.022 C 
BRANCH  21  22
ATOM     22  C   UNL     1       0.074  -4.175  10.593  0.00  0.00    +0.005 C 
BRANCH  22  23
ATOM     23  C   UNL     1       0.468  -4.211  12.071  0.00  0.00    +0.034 C 
BRANCH  23  24
ATOM     24  C   UNL     1       0.972  -2.831  12.498  0.00  0.00    +0.061 C 
ATOM     25  C   UNL     1       1.399  -2.876  13.966  0.00  0.00    +0.041 C 
ATOM     26  C   UNL     1       2.169  -2.435  11.631  0.00  0.00    +0.041 C 
BRANCH  24  27
ATOM     27  O   UNL     1      -0.073  -1.870  12.335  0.00  0.00    -0.389 OA
ATOM     28  H   UNL     1      -0.865  -2.058  12.856  0.00  0.00    +0.210 HD
ENDBRANCH  24  27
ENDBRANCH  23  24
ENDBRANCH  22  23
ENDBRANCH  21  22
ENDBRANCH  19  21
ENDBRANCH  17  19
ENDBRANCH   5  15
BRANCH   1  29
ATOM     29  C   UNL     1      -0.079  -4.575   1.552  0.00  0.00    +0.072 C 
ATOM     30  C   UNL     1       0.968  -4.521   0.437  0.00  0.00    +0.017 C 
BRANCH  29  31
ATOM     31  C   UNL     1      -1.391  -3.971   1.050  0.00  0.00    +0.012 C 
BRANCH  31  32
ATOM     32  C   UNL     1      -1.955  -4.840  -0.076  0.00  0.00    +0.000 C 
BRANCH  32  34
ATOM     33  C   UNL     1      -3.831  -5.105  -1.705  0.00  0.00    +0.004 C 
ATOM     34  C   UNL     1      -3.268  -4.236  -0.579  0.00  0.00    -0.003 C 
ENDBRANCH  32  34
ENDBRANCH  31  32
ENDBRANCH  29  31
ENDBRANCH   1  29
TORSDOF 11
