REMARK  Name = ZINC09915668
REMARK  13 active torsions:
REMARK  status: ('A' for Active; 'I' for Inactive)
REMARK    1  A    between atoms: C_1  and  C_2
REMARK    2  A    between atoms: C_11  and  O_13
REMARK    3  A    between atoms: O_13  and  C_14
REMARK    4  A    between atoms: C_14  and  C_29
REMARK    5  A    between atoms: C_15  and  C_27
REMARK    6  A    between atoms: C_15  and  O_28
REMARK    7  A    between atoms: C_16  and  C_25
REMARK    8  A    between atoms: C_16  and  O_26
REMARK    9  A    between atoms: C_17  and  C_23
REMARK   10  A    between atoms: C_17  and  O_24
REMARK   11  A    between atoms: C_18  and  C_20
REMARK   12  A    between atoms: C_18  and  C_21
REMARK   13  A    between atoms: C_21  and  O_22
REMARK                            x       y       z     vdW  Elec       q    Type
REMARK                         _______ _______ _______ _____ _____    ______ ____
ROOT
ATOM      1  C   UNL     1      -3.344  -0.653   1.796  0.00  0.00    +0.242 C 
ATOM      2  C   UNL     1      -3.018  -2.134   1.672  0.00  0.00    +0.159 C 
ATOM      3  C   UNL     1      -2.561  -2.551   0.283  0.00  0.00    +0.129 C 
ATOM      4  C   UNL     1      -1.550  -1.591  -0.323  0.00  0.00    +0.125 C 
ATOM      5  C   UNL     1      -1.909  -0.122  -0.151  0.00  0.00    +0.125 C 
ATOM      6  O   UNL     1      -2.452   0.184   1.108  0.00  0.00    -0.326 OA
ATOM      7  C   UNL     1      -2.840   0.336  -1.281  0.00  0.00    +0.047 C 
ATOM      8  C   UNL     1      -1.418  -1.893  -1.826  0.00  0.00    +0.047 C 
ATOM      9  C   UNL     1      -3.753  -2.764  -0.651  0.00  0.00    +0.047 C 
ATOM     10  C   UNL     1      -4.269  -2.948   2.048  0.00  0.00    +0.051 C 
ATOM     11  C   UNL     1      -4.795  -0.385   1.381  0.00  0.00    +0.092 C 
ENDROOT
BRANCH   4  12
ATOM     12  O   UNL     1      -0.266  -1.824   0.283  0.00  0.00    -0.383 OA
ATOM     13  H   UNL     1       0.451  -1.300  -0.101  0.00  0.00    +0.210 HD
ENDBRANCH   4  12
BRANCH   3  14
ATOM     14  O   UNL     1      -1.904  -3.836   0.417  0.00  0.00    -0.383 OA
ATOM     15  H   UNL     1      -2.465  -4.527   0.796  0.00  0.00    +0.210 HD
ENDBRANCH   3  14
BRANCH   2  16
ATOM     16  O   UNL     1      -1.985  -2.460   2.619  0.00  0.00    -0.379 OA
ATOM     17  H   UNL     1      -2.200  -2.224   3.532  0.00  0.00    +0.211 HD
ENDBRANCH   2  16
BRANCH   1  18
ATOM     18  O   UNL     1      -3.253  -0.318   3.205  0.00  0.00    -0.458 OA
BRANCH  18  29
ATOM     19  C   UNL     1      -4.022   6.132   3.511  0.00  0.00    +0.045 C 
ATOM     20  C   UNL     1      -3.826   5.072   4.564  0.00  0.00    -0.033 A 
ATOM     21  C   UNL     1      -3.782   5.397   5.882  0.00  0.00    +0.096 A 
ATOM     22  C   UNL     1      -3.598   4.386   6.848  0.00  0.00    +0.337 A 
ATOM     23  O   UNL     1      -3.560   4.691   8.027  0.00  0.00    -0.245 OA
ATOM     24  O   UNL     1      -3.462   3.096   6.502  0.00  0.00    -0.422 OA
ATOM     25  C   UNL     1      -3.496   2.706   5.210  0.00  0.00    +0.143 A 
ATOM     26  C   UNL     1      -3.677   3.663   4.194  0.00  0.00    +0.021 A 
ATOM     27  C   UNL     1      -3.714   3.262   2.853  0.00  0.00    +0.015 A 
ATOM     28  C   UNL     1      -3.567   1.943   2.535  0.00  0.00    +0.046 A 
ATOM     29  C   UNL     1      -3.393   0.991   3.537  0.00  0.00    +0.128 A 
ATOM     30  C   UNL     1      -3.354   1.369   4.869  0.00  0.00    +0.092 A 
ENDBRANCH  18  29
ENDBRANCH   1  18
BRANCH   5  31
ATOM     31  C   UNL     1      -0.598   0.689  -0.304  0.00  0.00    +0.193 C 
BRANCH  31  32
ATOM     32  O   UNL     1      -0.885   2.085  -0.195  0.00  0.00    -0.392 OA
ATOM     33  H   UNL     1      -0.108   2.654  -0.281  0.00  0.00    +0.210 HD
ENDBRANCH  31  32
ENDBRANCH   5  31
TORSDOF 7
