REMARK  Name = ZINC39667110
REMARK  10 active torsions:
REMARK  status: ('A' for Active; 'I' for Inactive)
REMARK    1  A    between atoms: C_1  and  C_2
REMARK    2  A    between atoms: C_5  and  C_9
REMARK    3  A    between atoms: C_6  and  C_8
REMARK    4  A    between atoms: C_9  and  C_10
REMARK    5  A    between atoms: C_10  and  N_11
REMARK    6  A    between atoms: C_12  and  C_14
REMARK    7  A    between atoms: C_25  and  C_27
REMARK    8  A    between atoms: C_30  and  O_37
REMARK    9  A    between atoms: C_31  and  C_33
REMARK   10  A    between atoms: O_37  and  C_38
REMARK                            x       y       z     vdW  Elec       q    Type
REMARK                         _______ _______ _______ _____ _____    ______ ____
ROOT
ATOM      1  C   UNL     1      -2.681  -8.121  -0.371  0.00  0.00    +0.100 C 
ATOM      2  C   UNL     1      -2.083  -8.895  -1.567  0.00  0.00    +0.121 C 
ATOM      3  N   UNL     1      -2.923 -10.110  -1.683  0.00  0.00    -0.296 N 
ATOM      4  C   UNL     1      -4.300  -9.634  -1.411  0.00  0.00    +0.115 C 
ATOM      5  C   UNL     1      -4.136  -8.608  -0.272  0.00  0.00    -0.004 C 
ATOM      6  C   UNL     1      -5.099  -7.441  -0.471  0.00  0.00    -0.010 C 
ATOM      7  C   UNL     1      -6.538  -7.939  -0.311  0.00  0.00    -0.082 C 
ATOM      8  N   UNL     1      -6.710  -8.519   1.027  0.00  0.00    +0.379 N 
ATOM      9  C   UNL     1      -5.848  -9.698   1.176  0.00  0.00    -0.082 C 
ATOM     10  C   UNL     1      -4.380  -9.274   1.079  0.00  0.00    -0.010 C 
ATOM     11  C   UNL     1      -2.525 -11.365  -1.972  0.00  0.00    +0.247 C 
ATOM     12  O   UNL     1      -1.339 -11.625  -2.044  0.00  0.00    -0.270 OA
ATOM     13  H   UNL     1      -6.464  -7.833   1.724  0.00  0.00    -0.086 HD
ATOM     14  H   UNL     1      -7.674  -8.791   1.152  0.00  0.00    -0.086 HD
ENDROOT
BRANCH  11  15
ATOM     15  C   UNL     1      -3.528 -12.424  -2.199  0.00  0.00    +0.038 A 
ATOM     16  C   UNL     1      -4.838 -12.085  -2.548  0.00  0.00    +0.016 A 
ATOM     17  C   UNL     1      -5.770 -13.076  -2.760  0.00  0.00    +0.047 A 
ATOM     18  C   UNL     1      -5.410 -14.412  -2.626  0.00  0.00    +0.132 A 
ATOM     19  C   UNL     1      -4.109 -14.753  -2.278  0.00  0.00    +0.097 A 
ATOM     20  C   UNL     1      -3.169 -13.768  -2.070  0.00  0.00    +0.029 A 
BRANCH  19  21
ATOM     21  C   UNL     1      -3.724 -16.203  -2.134  0.00  0.00    +0.421 C 
ATOM     22  F   UNL     1      -2.373 -16.294  -1.781  0.00  0.00    -0.166 F 
ATOM     23  F   UNL     1      -4.507 -16.796  -1.138  0.00  0.00    -0.166 F 
ATOM     24  F   UNL     1      -3.935 -16.864  -3.349  0.00  0.00    -0.166 F 
ENDBRANCH  19  21
BRANCH  18  25
ATOM     25  O   UNL     1      -6.332 -15.385  -2.834  0.00  0.00    -0.495 OA
ATOM     26  C   UNL     1      -7.651 -14.964  -3.188  0.00  0.00    +0.277 C 
ENDBRANCH  18  25
ENDBRANCH  11  15
BRANCH   1  28
ATOM     27  N   UNL     1      -2.521  -5.774   0.394  0.00  0.00    -0.315 N 
ATOM     28  C   UNL     1      -2.641  -6.637  -0.634  0.00  0.00    +0.218 C 
ATOM     29  O   UNL     1      -2.716  -6.220  -1.770  0.00  0.00    -0.275 OA
ATOM     30  H   UNL     1      -2.461  -6.107   1.303  0.00  0.00    +0.149 HD
BRANCH  27  31
ATOM     31  C   UNL     1      -2.482  -4.332   0.139  0.00  0.00    +0.109 C 
BRANCH  31  32
ATOM     32  C   UNL     1      -2.343  -3.583   1.466  0.00  0.00    +0.054 C 
BRANCH  32  37
ATOM     33  C   UNL     1      -2.189   2.105   0.455  0.00  0.00    +0.044 C 
ATOM     34  C   UNL     1      -2.229   0.622   0.719  0.00  0.00    -0.050 A 
ATOM     35  C   UNL     1      -1.051  -0.090   0.846  0.00  0.00    +0.003 A 
ATOM     36  C   UNL     1      -1.088  -1.450   1.088  0.00  0.00    +0.004 A 
ATOM     37  C   UNL     1      -2.303  -2.099   1.203  0.00  0.00    -0.043 A 
ATOM     38  C   UNL     1      -3.481  -1.388   1.077  0.00  0.00    -0.047 A 
ATOM     39  C   UNL     1      -3.444  -0.026   0.839  0.00  0.00    +0.007 A 
ATOM     40  C   UNL     1      -4.806  -2.095   1.201  0.00  0.00    +0.044 C 
ENDBRANCH  32  37
ENDBRANCH  31  32
ENDBRANCH  27  31
ENDBRANCH   1  28
TORSDOF 7
