REMARK  Name = ZINC39670776
REMARK  8 active torsions:
REMARK  status: ('A' for Active; 'I' for Inactive)
REMARK    1  A    between atoms: C_1  and  C_2
REMARK    2  A    between atoms: C_9  and  C_11
REMARK    3  A    between atoms: C_11  and  N_12
REMARK    4  A    between atoms: C_13  and  C_15
REMARK    5  A    between atoms: C_26  and  C_28
REMARK    6  A    between atoms: C_28  and  C_29
REMARK    7  A    between atoms: C_29  and  C_30
REMARK    8  A    between atoms: C_30  and  C_31
REMARK                            x       y       z     vdW  Elec       q    Type
REMARK                         _______ _______ _______ _____ _____    ______ ____
ROOT
ATOM      1  C   UNL     1      -2.943  -1.768   7.103  0.00  0.00    +0.100 C 
ATOM      2  C   UNL     1      -3.767  -0.495   6.801  0.00  0.00    +0.121 C 
ATOM      3  N   UNL     1      -4.634  -0.321   7.990  0.00  0.00    -0.300 N 
ATOM      4  C   UNL     1      -3.766  -0.680   9.136  0.00  0.00    +0.115 C 
ATOM      5  C   UNL     1      -2.944  -1.885   8.636  0.00  0.00    -0.004 C 
ATOM      6  C   UNL     1      -1.518  -1.810   9.173  0.00  0.00    -0.010 C 
ATOM      7  C   UNL     1      -1.540  -1.988  10.694  0.00  0.00    -0.082 C 
ATOM      8  N   UNL     1      -2.143  -3.284  11.028  0.00  0.00    +0.379 N 
ATOM      9  C   UNL     1      -3.544  -3.312  10.591  0.00  0.00    -0.082 C 
ATOM     10  C   UNL     1      -3.607  -3.191   9.065  0.00  0.00    -0.010 C 
ATOM     11  C   UNL     1      -5.922   0.075   8.021  0.00  0.00    +0.216 C 
ATOM     12  O   UNL     1      -6.501   0.171   9.083  0.00  0.00    -0.276 OA
ATOM     13  H   UNL     1      -1.632  -4.021  10.565  0.00  0.00    -0.086 HD
ATOM     14  H   UNL     1      -2.101  -3.425  12.026  0.00  0.00    -0.086 HD
ENDROOT
BRANCH   1  16
ATOM     15  N   UNL     1      -0.833  -2.702   6.213  0.00  0.00    -0.309 N 
ATOM     16  C   UNL     1      -1.535  -1.615   6.589  0.00  0.00    +0.219 C 
ATOM     17  O   UNL     1      -1.032  -0.513   6.514  0.00  0.00    -0.275 OA
ATOM     18  H   UNL     1      -1.234  -3.583   6.273  0.00  0.00    +0.149 HD
BRANCH  15  19
ATOM     19  C   UNL     1       0.536  -2.554   5.714  0.00  0.00    +0.159 C 
BRANCH  19  28
ATOM     20  C   UNL     1       1.539  -6.503   1.903  0.00  0.00    +0.064 C 
ATOM     21  C   UNL     1       1.944  -6.685   3.343  0.00  0.00    +0.022 A 
ATOM     22  C   UNL     1       2.567  -7.820   3.724  0.00  0.00    +0.021 A 
ATOM     23  C   UNL     1       2.950  -8.004   5.063  0.00  0.00    +0.005 A 
ATOM     24  C   UNL     1       2.691  -7.030   5.977  0.00  0.00    +0.045 A 
ATOM     25  C   UNL     1       2.041  -5.850   5.564  0.00  0.00    +0.116 A 
ATOM     26  N   UNL     1       1.683  -5.698   4.249  0.00  0.00    -0.305 N 
ATOM     27  C   UNL     1       1.084  -4.473   4.136  0.00  0.00    +0.115 A 
ATOM     28  C   UNL     1       1.093  -3.910   5.364  0.00  0.00    +0.051 A 
ATOM     29  N   UNL     1       1.669  -4.760   6.219  0.00  0.00    -0.342 N 
ATOM     30  H   UNL     1       1.802  -4.600   7.166  0.00  0.00    +0.167 HD
ENDBRANCH  19  28
ENDBRANCH  15  19
ENDBRANCH   1  16
BRANCH  11  31
ATOM     31  C   UNL     1      -6.643   0.398   6.738  0.00  0.00    +0.096 C 
BRANCH  31  32
ATOM     32  C   UNL     1      -8.080   0.818   7.052  0.00  0.00    +0.014 C 
BRANCH  32  33
ATOM     33  C   UNL     1      -8.812   1.147   5.749  0.00  0.00    +0.035 C 
BRANCH  33  34
ATOM     34  C   UNL     1     -10.227   1.560   6.058  0.00  0.00    -0.047 A 
ATOM     35  C   UNL     1     -11.228   0.608   6.116  0.00  0.00    +0.003 A 
ATOM     36  C   UNL     1     -12.527   0.988   6.400  0.00  0.00    +0.000 A 
ATOM     37  C   UNL     1     -12.825   2.318   6.626  0.00  0.00    +0.000 A 
ATOM     38  C   UNL     1     -11.824   3.270   6.569  0.00  0.00    +0.000 A 
ATOM     39  C   UNL     1     -10.524   2.890   6.290  0.00  0.00    +0.003 A 
ENDBRANCH  33  34
ENDBRANCH  32  33
ENDBRANCH  31  32
ENDBRANCH  11  31
TORSDOF 7
