REMARK  Name = ZINC62526999
REMARK  9 active torsions:
REMARK  status: ('A' for Active; 'I' for Inactive)
REMARK    1  A    between atoms: C_1  and  C_2
REMARK    2  A    between atoms: C_2  and  C_3
REMARK    3  A    between atoms: C_3  and  C_4
REMARK    4  A    between atoms: C_3  and  N_5
REMARK    5  A    between atoms: C_6  and  C_8
REMARK    6  A    between atoms: C_8  and  C_9
REMARK    7  A    between atoms: C_8  and  N_10
REMARK    8  A    between atoms: N_13  and  N_14
REMARK    9  A    between atoms: C_15  and  C_17
REMARK                            x       y       z     vdW  Elec       q    Type
REMARK                         _______ _______ _______ _____ _____    ______ ____
ROOT
ATOM      1  N   UNL     1       0.772   0.445   6.003  0.00  0.00    -0.287 N 
ATOM      2  C   UNL     1       0.466   1.221   7.061  0.00  0.00    +0.317 C 
ATOM      3  O   UNL     1      -0.568   1.859   7.068  0.00  0.00    -0.251 OA
ATOM      4  N   UNL     1       1.307   1.289   8.113  0.00  0.00    -0.218 N 
ATOM      5  H   UNL     1       1.598  -0.065   5.998  0.00  0.00    +0.151 HD
ATOM      6  H   UNL     1       1.087   1.848   8.874  0.00  0.00    +0.174 HD
ENDROOT
BRANCH   4   7
ATOM      7  N   UNL     1       2.499   0.554   8.105  0.00  0.00    -0.229 N 
ATOM      8  C   UNL     1       3.340   0.622   9.156  0.00  0.00    +0.267 C 
ATOM      9  O   UNL     1       3.064   1.323  10.112  0.00  0.00    -0.268 OA
ATOM     10  H   UNL     1       2.720  -0.005   7.343  0.00  0.00    +0.173 HD
BRANCH   8  11
ATOM     11  C   UNL     1       4.588  -0.147   9.148  0.00  0.00    +0.076 A 
ATOM     12  C   UNL     1       5.572  -0.222  10.113  0.00  0.00    +0.024 A 
ATOM     13  C   UNL     1       6.665  -1.040   9.841  0.00  0.00    -0.036 A 
ATOM     14  C   UNL     1       6.654  -1.686   8.645  0.00  0.00    -0.006 A 
ATOM     15  S   UNL     1       5.228  -1.239   7.893  0.00  0.00    -0.088 S 
ATOM     16  C   UNL     1       7.695  -2.616   8.093  0.00  0.00    +0.043 C 
ATOM     17  C   UNL     1       8.419  -3.314   9.249  0.00  0.00    +0.005 C 
ATOM     18  C   UNL     1       9.612  -2.459   9.664  0.00  0.00    +0.001 C 
ATOM     19  C   UNL     1       9.148  -1.084  10.138  0.00  0.00    +0.005 C 
ATOM     20  C   UNL     1       7.801  -1.192  10.846  0.00  0.00    +0.036 C 
ENDBRANCH   8  11
ENDBRANCH   4   7
BRANCH   1  21
ATOM     21  C   UNL     1      -0.142   0.370   4.861  0.00  0.00    +0.157 C 
ATOM     22  C   UNL     1      -1.217  -0.683   5.136  0.00  0.00    +0.038 C 
BRANCH  21  24
ATOM     23  N   UNL     1      -0.008  -0.140   2.444  0.00  0.00    -0.311 N 
ATOM     24  C   UNL     1       0.630  -0.011   3.624  0.00  0.00    +0.233 C 
ATOM     25  O   UNL     1       1.826  -0.202   3.690  0.00  0.00    -0.274 OA
ATOM     26  H   UNL     1      -0.965   0.013   2.391  0.00  0.00    +0.149 HD
BRANCH  23  27
ATOM     27  C   UNL     1       0.742  -0.511   1.242  0.00  0.00    +0.070 C 
ATOM     28  C   UNL     1       0.872  -2.034   1.171  0.00  0.00    +0.028 C 
BRANCH  27  30
ATOM     29  C   UNL     1      -0.019   1.526   0.010  0.00  0.00    +0.005 C 
ATOM     30  C   UNL     1       0.002  -0.004   0.002  0.00  0.00    +0.018 C 
ENDBRANCH  27  30
ENDBRANCH  23  27
ENDBRANCH  21  24
ENDBRANCH   1  21
TORSDOF 6
