REMARK  Name = ZINC66784818
REMARK  6 active torsions:
REMARK  status: ('A' for Active; 'I' for Inactive)
REMARK    1  A    between atoms: C_4  and  C_7
REMARK    2  A    between atoms: C_7  and  C_8
REMARK    3  A    between atoms: C_7  and  C_14
REMARK    4  A    between atoms: N_16  and  N_17
REMARK    5  A    between atoms: C_18  and  C_20
REMARK    6  A    between atoms: C_20  and  C_21
REMARK                            x       y       z     vdW  Elec       q    Type
REMARK                         _______ _______ _______ _____ _____    ______ ____
ROOT
ATOM      1  C   UNL     1       3.652  -1.665  -1.200  0.00  0.00    +0.241 C 
ATOM      2  O   UNL     1       2.672  -1.691  -1.914  0.00  0.00    -0.273 OA
ATOM      3  N   UNL     1       4.687  -2.491  -1.446  0.00  0.00    -0.234 N 
ATOM      4  H   UNL     1       5.471  -2.470  -0.874  0.00  0.00    +0.173 HD
ENDROOT
BRANCH   3   5
ATOM      5  N   UNL     1       4.632  -3.381  -2.526  0.00  0.00    -0.234 N 
ATOM      6  C   UNL     1       5.668  -4.208  -2.772  0.00  0.00    +0.233 C 
ATOM      7  O   UNL     1       6.647  -4.182  -2.057  0.00  0.00    -0.274 OA
ATOM      8  H   UNL     1       3.848  -3.403  -3.097  0.00  0.00    +0.173 HD
BRANCH   6   9
ATOM      9  C   UNL     1       5.608  -5.166  -3.934  0.00  0.00    +0.135 C 
BRANCH   9  10
ATOM     10  C   UNL     1       6.881  -5.970  -3.988  0.00  0.00    -0.003 A 
ATOM     11  C   UNL     1       7.924  -5.561  -4.798  0.00  0.00    +0.007 A 
ATOM     12  C   UNL     1       9.092  -6.298  -4.847  0.00  0.00    +0.000 A 
ATOM     13  C   UNL     1       9.219  -7.446  -4.087  0.00  0.00    +0.003 A 
ATOM     14  C   UNL     1       8.178  -7.857  -3.276  0.00  0.00    +0.038 A 
ATOM     15  C   UNL     1       7.010  -7.116  -3.222  0.00  0.00    +0.127 A 
ATOM     16  F   UNL     1       5.993  -7.514  -2.426  0.00  0.00    -0.205 F 
ENDBRANCH   9  10
ENDBRANCH   6   9
ENDBRANCH   3   5
BRANCH   1  17
ATOM     17  C   UNL     1       3.711  -0.707  -0.038  0.00  0.00    +0.136 C 
BRANCH  17  21
ATOM     18  C   UNL     1       0.102   1.573   0.113  0.00  0.00    +0.000 A 
ATOM     19  C   UNL     1       1.325   2.216   0.082  0.00  0.00    +0.000 A 
ATOM     20  C   UNL     1       2.493   1.478   0.034  0.00  0.00    +0.005 A 
ATOM     21  C   UNL     1       2.438   0.097   0.016  0.00  0.00    -0.031 A 
ATOM     22  C   UNL     1       1.215  -0.546   0.048  0.00  0.00    +0.005 A 
ATOM     23  C   UNL     1       0.047   0.192   0.095  0.00  0.00    +0.000 A 
ENDBRANCH  17  21
BRANCH  17  24
ATOM     24  C   UNL     1       3.870  -1.483   1.245  0.00  0.00    -0.031 A 
ATOM     25  C   UNL     1       3.012  -2.528   1.531  0.00  0.00    +0.005 A 
ATOM     26  C   UNL     1       3.158  -3.240   2.707  0.00  0.00    +0.000 A 
ATOM     27  C   UNL     1       4.161  -2.906   3.597  0.00  0.00    +0.000 A 
ATOM     28  C   UNL     1       5.020  -1.861   3.310  0.00  0.00    +0.000 A 
ATOM     29  C   UNL     1       4.877  -1.153   2.132  0.00  0.00    +0.005 A 
ENDBRANCH  17  24
ENDBRANCH   1  17
TORSDOF 6
