REMARK  Name = ZINC20504739
REMARK  3 active torsions:
REMARK  status: ('A' for Active; 'I' for Inactive)
REMARK    1  A    between atoms: C_5  and  N_8
REMARK    2  A    between atoms: N_8  and  C_9
REMARK    3  A    between atoms: C_9  and  C_10
REMARK                            x       y       z     vdW  Elec       q    Type
REMARK                         _______ _______ _______ _____ _____    ______ ____
ROOT
ATOM      1  N   UNL     1       2.355   3.889   0.001  0.00  0.00    -0.334 N 
ATOM      2  H   UNL     1       3.208   3.792   0.690  0.00  0.00    +0.147 HD
ENDROOT
BRANCH   1   7
ATOM      3  C   UNL     1      -0.503   1.597  -0.308  0.00  0.00    +0.032 A 
ATOM      4  C   UNL     1      -1.489   2.319   0.341  0.00  0.00    +0.020 A 
ATOM      5  C   UNL     1      -1.199   3.558   0.885  0.00  0.00    +0.032 A 
ATOM      6  C   UNL     1       0.075   4.082   0.772  0.00  0.00    +0.041 A 
ATOM      7  C   UNL     1       1.066   3.362   0.117  0.00  0.00    +0.056 A 
ATOM      8  C   UNL     1       0.772   2.116  -0.424  0.00  0.00    +0.041 A 
ATOM      9 BR   UNL     1       2.117   1.131  -1.317  0.00  0.00    -0.048 Br
ATOM     10 BR   UNL     1       0.469   5.778   1.510  0.00  0.00    -0.048 Br
ATOM     11 BR   UNL     1      -3.235   1.609   0.491  0.00  0.00    -0.050 Br
ENDBRANCH   1   7
BRANCH   1  12
ATOM     12  C   UNL     1       2.498   4.664  -1.239  0.00  0.00    +0.198 C 
BRANCH  12  13
ATOM     13  C   UNL     1       3.853   5.324  -1.266  0.00  0.00    +0.237 C 
ATOM     14  O   UNL     1       4.622   5.166  -0.343  0.00  0.00    -0.274 OA
ATOM     15  N   UNL     1       4.208   6.091  -2.316  0.00  0.00    -0.239 N 
ATOM     16  C   UNL     1       5.419   6.682  -2.339  0.00  0.00    +0.303 C 
ATOM     17  O   UNL     1       6.191   6.523  -1.414  0.00  0.00    -0.253 OA
ATOM     18  N   UNL     1       5.774   7.449  -3.389  0.00  0.00    -0.313 N 
ATOM     19  H   UNL     1       3.509   6.235  -3.153  0.00  0.00    +0.159 HD
ATOM     20  H   UNL     1       6.763   7.931  -3.408  0.00  0.00    +0.146 HD
ATOM     21  H   UNL     1       5.075   7.593  -4.226  0.00  0.00    +0.146 HD
ENDBRANCH  12  13
ENDBRANCH   1  12
TORSDOF 3
