REMARK  Name = ZINC38999231
REMARK  12 active torsions:
REMARK  status: ('A' for Active; 'I' for Inactive)
REMARK    1  A    between atoms: C_1  and  C_2
REMARK    2  A    between atoms: C_2  and  N_3
REMARK    3  A    between atoms: N_3  and  C_4
REMARK    4  A    between atoms: N_3  and  C_6
REMARK    5  A    between atoms: C_4  and  C_5
REMARK    6  A    between atoms: C_9  and  C_12
REMARK    7  A    between atoms: N_13  and  N_14
REMARK    8  A    between atoms: C_15  and  C_21
REMARK    9  A    between atoms: C_25  and  O_27
REMARK   10  A    between atoms: O_27  and  C_28
REMARK   11  A    between atoms: C_28  and  C_29
REMARK   12  A    between atoms: C_28  and  C_30
REMARK                            x       y       z     vdW  Elec       q    Type
REMARK                         _______ _______ _______ _____ _____    ______ ____
ROOT
ATOM      1  N   UNL     1      -1.712  -1.968  -8.256  0.00  0.00    -0.172 N 
ATOM      2  C   UNL     1      -1.454  -2.661  -9.532  0.00  0.00    +0.264 C 
ATOM      3  N   UNL     1      -2.787  -2.782 -10.142  0.00  0.00    -0.189 NA
ATOM      4  N   UNL     1      -3.607  -2.271  -9.376  0.00  0.00    -0.219 N 
ATOM      5  C   UNL     1      -3.049  -1.773  -8.240  0.00  0.00    +0.174 C 
ATOM      6  S   UNL     1      -3.913  -1.010  -6.975  0.00  0.00    -0.015 S 
ATOM      7  H   UNL     1      -4.558  -2.230  -9.564  0.00  0.00    +0.176 HD
ENDROOT
BRANCH   2   8
ATOM      8  C   UNL     1      -0.856  -4.021  -9.284  0.00  0.00    +0.001 A 
ATOM      9  C   UNL     1      -0.077  -4.239  -8.163  0.00  0.00    +0.007 A 
ATOM     10  C   UNL     1       0.473  -5.487  -7.932  0.00  0.00    +0.004 A 
ATOM     11  C   UNL     1       0.245  -6.519  -8.822  0.00  0.00    +0.045 A 
ATOM     12  C   UNL     1      -0.536  -6.303  -9.947  0.00  0.00    +0.121 A 
ATOM     13  C   UNL     1      -1.092  -5.051 -10.173  0.00  0.00    +0.053 A 
BRANCH  12  14
ATOM     14  O   UNL     1      -0.762  -7.316 -10.824  0.00  0.00    -0.489 OA
BRANCH  14  15
ATOM     15  C   UNL     1      -0.257  -8.605 -10.470  0.00  0.00    +0.167 C 
ATOM     16  C   UNL     1      -1.074  -9.686 -11.181  0.00  0.00    +0.051 C 
ATOM     17  C   UNL     1       1.209  -8.713 -10.893  0.00  0.00    +0.051 C 
ENDBRANCH  14  15
ENDBRANCH  12  14
ENDBRANCH   2   8
BRANCH   1  19
ATOM     18  C   UNL     1      -1.186  -1.099  -6.149  0.00  0.00    +0.138 C 
ATOM     19  N   UNL     1      -0.780  -1.599  -7.277  0.00  0.00    -0.183 NA
BRANCH  18  23
ATOM     20  C   UNL     1       1.613  -0.246  -3.074  0.00  0.00    +0.030 A 
ATOM     21  C   UNL     1       0.261   0.011  -2.872  0.00  0.00    +0.024 A 
ATOM     22  C   UNL     1      -0.650  -0.264  -3.867  0.00  0.00    +0.011 A 
ATOM     23  C   UNL     1      -0.214  -0.802  -5.082  0.00  0.00    -0.005 A 
ATOM     24  C   UNL     1       1.145  -1.059  -5.281  0.00  0.00    +0.011 A 
ATOM     25  C   UNL     1       2.051  -0.776  -4.283  0.00  0.00    +0.024 A 
BRANCH  20  26
ATOM     26  N   UNL     1       2.533   0.034  -2.063  0.00  0.00    -0.330 N 
BRANCH  26  28
ATOM     27  C   UNL     1       2.083   2.120  -0.869  0.00  0.00    +0.024 C 
ATOM     28  C   UNL     1       2.074   0.592  -0.789  0.00  0.00    +0.102 C 
ENDBRANCH  26  28
BRANCH  26  29
ATOM     29  C   UNL     1       3.958  -0.231  -2.276  0.00  0.00    +0.102 C 
ATOM     30  C   UNL     1       4.285  -1.656  -1.827  0.00  0.00    +0.024 C 
ENDBRANCH  26  29
ENDBRANCH  20  26
ENDBRANCH  18  23
ENDBRANCH   1  19
TORSDOF 8
