REMARK  Name = ZINC63256632
REMARK  10 active torsions:
REMARK  status: ('A' for Active; 'I' for Inactive)
REMARK    1  A    between atoms: C_1  and  C_2
REMARK    2  A    between atoms: C_2  and  O_3
REMARK    3  A    between atoms: O_3  and  C_4
REMARK    4  A    between atoms: C_4  and  C_6
REMARK    5  A    between atoms: C_7  and  C_31
REMARK    6  A    between atoms: C_10  and  N_12
REMARK    7  A    between atoms: C_13  and  C_15
REMARK    8  A    between atoms: C_15  and  S_16
REMARK    9  A    between atoms: S_16  and  C_17
REMARK   10  A    between atoms: C_20  and  C_22
REMARK                            x       y       z     vdW  Elec       q    Type
REMARK                         _______ _______ _______ _____ _____    ______ ____
ROOT
ATOM      1  N   UNL     1       3.303  -0.846  -3.121  0.00  0.00    -0.299 N 
ATOM      2  C   UNL     1       4.361  -0.809  -3.955  0.00  0.00    +0.224 C 
ATOM      3  O   UNL     1       4.264  -1.255  -5.078  0.00  0.00    -0.275 OA
ATOM      4  H   UNL     1       3.381  -0.489  -2.222  0.00  0.00    +0.150 HD
ENDROOT
BRANCH   1   9
ATOM      5  C   UNL     1       1.448  -2.344  -2.515  0.00  0.00    +0.071 C 
ATOM      6  C   UNL     1       1.558  -3.655  -2.696  0.00  0.00    -0.018 C 
ATOM      7  C   UNL     1       2.268  -4.146  -3.944  0.00  0.00    +0.107 C 
ATOM      8  S   UNL     1       2.307  -2.607  -4.960  0.00  0.00    -0.129 S 
ATOM      9  C   UNL     1       2.035  -1.426  -3.572  0.00  0.00    +0.169 C 
BRANCH   6  10
ATOM     10  C   UNL     1       1.007  -4.604  -1.715  0.00  0.00    -0.021 A 
ATOM     11  C   UNL     1       1.529  -4.658  -0.419  0.00  0.00    +0.008 A 
ATOM     12  C   UNL     1       1.008  -5.549   0.494  0.00  0.00    +0.001 A 
ATOM     13  C   UNL     1      -0.030  -6.390   0.131  0.00  0.00    +0.000 A 
ATOM     14  C   UNL     1      -0.552  -6.343  -1.150  0.00  0.00    +0.001 A 
ATOM     15  C   UNL     1      -0.045  -5.453  -2.073  0.00  0.00    +0.008 A 
ENDBRANCH   6  10
BRANCH   5  16
ATOM     16  C   UNL     1       0.776  -1.800  -1.335  0.00  0.00    +0.338 C 
ATOM     17  O   UNL     1       0.312  -2.552  -0.499  0.00  0.00    -0.245 OA
BRANCH  16  18
ATOM     18  O   UNL     1       0.671  -0.465  -1.174  0.00  0.00    -0.462 OA
BRANCH  18  20
ATOM     19  C   UNL     1      -0.019   1.526   0.010  0.00  0.00    +0.048 C 
ATOM     20  C   UNL     1       0.002  -0.004   0.002  0.00  0.00    +0.229 C 
ENDBRANCH  18  20
ENDBRANCH  16  18
ENDBRANCH   5  16
ENDBRANCH   1   9
BRANCH   2  21
ATOM     21  C   UNL     1       5.665  -0.212  -3.491  0.00  0.00    +0.174 C 
BRANCH  21  22
ATOM     22  S   UNL     1       6.885  -0.309  -4.830  0.00  0.00    -0.056 S 
BRANCH  22  23
ATOM     23  C   UNL     1       8.334   0.418  -4.141  0.00  0.00    +0.278 A 
ATOM     24  N   UNL     1       8.458   0.904  -2.916  0.00  0.00    -0.101 NA
ATOM     25  N   UNL     1       9.652   1.355  -2.755  0.00  0.00    -0.107 NA
ATOM     26  C   UNL     1      10.341   1.176  -3.870  0.00  0.00    +0.248 A 
ATOM     27  O   UNL     1       9.516   0.574  -4.761  0.00  0.00    -0.411 OA
BRANCH  26  28
ATOM     28  C   UNL     1      11.678   1.536  -4.088  0.00  0.00    +0.044 C 
ATOM     29  C   UNL     1      12.546   2.145  -3.181  0.00  0.00    +0.008 A 
ATOM     30  C   UNL     1      12.385   2.570  -1.845  0.00  0.00    +0.010 A 
ATOM     31  C   UNL     1      13.426   3.144  -1.191  0.00  0.00    +0.001 A 
ATOM     32  C   UNL     1      14.665   3.330  -1.808  0.00  0.00    +0.002 A 
ATOM     33  C   UNL     1      14.892   2.946  -3.088  0.00  0.00    +0.026 A 
ATOM     34  C   UNL     1      13.851   2.337  -3.836  0.00  0.00    +0.043 A 
ATOM     35  N   UNL     1      13.817   1.884  -5.074  0.00  0.00    -0.380 N 
ATOM     36  C   UNL     1      12.484   1.341  -5.354  0.00  0.00    +0.154 C 
ATOM     37  H   UNL     1      14.558   1.903  -5.699  0.00  0.00    +0.160 HD
ENDBRANCH  26  28
ENDBRANCH  22  23
ENDBRANCH  21  22
ENDBRANCH   2  21
TORSDOF 9
