REMARK  Name = ZINC15787861
REMARK  10 active torsions:
REMARK  status: ('A' for Active; 'I' for Inactive)
REMARK    1  A    between atoms: C_1  and  N_52
REMARK    2  A    between atoms: C_2  and  N_52
REMARK    3  A    between atoms: C_3  and  C_5
REMARK    4  A    between atoms: C_3  and  C_24
REMARK    5  A    between atoms: C_3  and  N_52
REMARK    6  A    between atoms: C_5  and  N_6
REMARK    7  A    between atoms: C_7  and  C_9
REMARK    8  A    between atoms: C_12  and  N_15
REMARK    9  A    between atoms: N_15  and  S_16
REMARK   10  A    between atoms: S_16  and  C_19
REMARK                            x       y       z     vdW  Elec       q    Type
REMARK                         _______ _______ _______ _____ _____    ______ ____
ROOT
ATOM      1  N   UNL     1      -1.011  -1.864   1.605  0.00  0.00    -0.313 N 
ATOM      2  C   UNL     1      -1.581  -1.880   2.826  0.00  0.00    +0.244 C 
ATOM      3  O   UNL     1      -1.696  -0.847   3.458  0.00  0.00    -0.270 OA
ATOM      4  H   UNL     1      -0.920  -2.688   1.102  0.00  0.00    +0.149 HD
ENDROOT
BRANCH   2   5
ATOM      5  C   UNL     1      -2.066  -3.151   3.398  0.00  0.00    +0.037 A 
ATOM      6  C   UNL     1      -1.940  -4.338   2.671  0.00  0.00    +0.015 A 
ATOM      7  C   UNL     1      -2.388  -5.523   3.209  0.00  0.00    +0.025 A 
ATOM      8  C   UNL     1      -2.976  -5.538   4.471  0.00  0.00    +0.048 A 
ATOM      9  C   UNL     1      -3.108  -4.356   5.194  0.00  0.00    +0.025 A 
ATOM     10  C   UNL     1      -2.657  -3.169   4.664  0.00  0.00    +0.015 A 
BRANCH   8  11
ATOM     11  N   UNL     1      -3.432  -6.736   5.009  0.00  0.00    -0.216 N 
ATOM     12  H   UNL     1      -2.799  -7.390   5.343  0.00  0.00    +0.174 HD
BRANCH  11  13
ATOM     13  S   UNL     1      -5.058  -7.046   5.080  0.00  0.00    +0.079 S 
ATOM     14  O   UNL     1      -5.199  -8.346   5.636  0.00  0.00    -0.149 OA
ATOM     15  O   UNL     1      -5.665  -5.899   5.659  0.00  0.00    -0.149 OA
BRANCH  13  16
ATOM     16  C   UNL     1      -5.642  -7.142   3.421  0.00  0.00    +0.146 A 
ATOM     17  C   UNL     1      -5.809  -8.235   2.637  0.00  0.00    +0.036 A 
ATOM     18  C   UNL     1      -6.289  -8.070   1.351  0.00  0.00    +0.010 A 
ATOM     19  C   UNL     1      -6.577  -6.820   0.912  0.00  0.00    +0.047 A 
ATOM     20  S   UNL     1      -6.176  -5.826   2.339  0.00  0.00    -0.077 S 
ENDBRANCH  13  16
ENDBRANCH  11  13
ENDBRANCH   8  11
ENDBRANCH   2   5
BRANCH   1  21
ATOM     21  C   UNL     1      -0.530  -0.602   1.038  0.00  0.00    +0.094 C 
BRANCH  21  22
ATOM     22  C   UNL     1      -0.041  -0.839  -0.392  0.00  0.00    -0.020 C 
BRANCH  22  23
ATOM     23  C   UNL     1       1.177  -1.725  -0.366  0.00  0.00    -0.041 A 
ATOM     24  C   UNL     1       1.056  -3.075  -0.640  0.00  0.00    +0.003 A 
ATOM     25  C   UNL     1       2.174  -3.888  -0.616  0.00  0.00    +0.000 A 
ATOM     26  C   UNL     1       3.413  -3.352  -0.319  0.00  0.00    +0.001 A 
ATOM     27  C   UNL     1       3.535  -2.003  -0.045  0.00  0.00    +0.020 A 
ATOM     28  C   UNL     1       2.418  -1.187  -0.074  0.00  0.00    +0.043 A 
ATOM     29 CL   UNL     1       2.572   0.509   0.262  0.00  0.00    -0.083 Cl
ENDBRANCH  22  23
BRANCH  22  32
ATOM     30  C   UNL     1      -2.376  -0.770  -1.029  0.00  0.00    -0.096 C 
ATOM     31  C   UNL     1      -0.722  -1.609  -2.585  0.00  0.00    -0.096 C 
ATOM     32  N   UNL     1      -1.107  -1.516  -1.161  0.00  0.00    +0.382 N 
ATOM     33  H   UNL     1      -1.237  -2.463  -0.787  0.00  0.00    -0.082 HD
ENDBRANCH  22  32
ENDBRANCH  21  22
ENDBRANCH   1  21
TORSDOF 8
