REMARK  Name = ZINC02428580
REMARK  14 active torsions:
REMARK  status: ('A' for Active; 'I' for Inactive)
REMARK    1  A    between atoms: C_1  and  C_2
REMARK    2  A    between atoms: C_2  and  C_3
REMARK    3  A    between atoms: C_3  and  O_4
REMARK    4  A    between atoms: O_4  and  C_5
REMARK    5  A    between atoms: C_5  and  C_7
REMARK    6  A    between atoms: C_10  and  O_13
REMARK    7  A    between atoms: O_13  and  C_14
REMARK    8  A    between atoms: C_15  and  C_36
REMARK    9  A    between atoms: C_23  and  O_35
REMARK   10  A    between atoms: C_24  and  C_25
REMARK   11  A    between atoms: C_25  and  N_26
REMARK   12  A    between atoms: N_26  and  C_27
REMARK   13  A    between atoms: N_26  and  C_28
REMARK   14  A    between atoms: C_28  and  C_29
REMARK                            x       y       z     vdW  Elec       q    Type
REMARK                         _______ _______ _______ _____ _____    ______ ____
ROOT
ATOM      1  C   UNL     1       2.197  -8.759  -3.612  0.00  0.00    +0.213 A 
ATOM      2  C   UNL     1       2.831  -8.055  -4.571  0.00  0.00    +0.148 A 
ATOM      3  O   UNL     1       3.473  -8.637  -5.593  0.00  0.00    -0.456 OA
ATOM      4  C   UNL     1       3.534  -9.976  -5.739  0.00  0.00    +0.144 A 
ATOM      5  C   UNL     1       2.908 -10.811  -4.796  0.00  0.00    +0.068 A 
ATOM      6  C   UNL     1       2.203 -10.182  -3.666  0.00  0.00    +0.235 A 
ATOM      7  O   UNL     1       1.644 -10.853  -2.814  0.00  0.00    -0.283 OA
ATOM      8  C   UNL     1       2.965 -12.198  -4.937  0.00  0.00    +0.019 A 
ATOM      9  C   UNL     1       3.633 -12.745  -5.996  0.00  0.00    +0.046 A 
ATOM     10  C   UNL     1       4.256 -11.925  -6.935  0.00  0.00    +0.122 A 
ATOM     11  C   UNL     1       4.208 -10.547  -6.809  0.00  0.00    +0.020 A 
ATOM     12  C   UNL     1       2.817  -6.551  -4.491  0.00  0.00    +0.090 C 
ENDROOT
BRANCH  10  13
ATOM     13  O   UNL     1       4.916 -12.483  -7.981  0.00  0.00    -0.506 OA
ATOM     14  H   UNL     1       4.365 -12.627  -8.763  0.00  0.00    +0.292 HD
ENDBRANCH  10  13
BRANCH   1  15
ATOM     15  O   UNL     1       1.560  -8.115  -2.597  0.00  0.00    -0.449 OA
BRANCH  15  19
ATOM     16  C   UNL     1      -2.553  -8.392  -2.403  0.00  0.00    +0.059 A 
ATOM     17  C   UNL     1      -1.845  -7.751  -1.382  0.00  0.00    +0.018 A 
ATOM     18  C   UNL     1      -0.473  -7.661  -1.450  0.00  0.00    +0.047 A 
ATOM     19  C   UNL     1       0.208  -8.206  -2.533  0.00  0.00    +0.129 A 
ATOM     20  C   UNL     1      -0.492  -8.844  -3.551  0.00  0.00    +0.047 A 
ATOM     21  C   UNL     1      -1.864  -8.944  -3.487  0.00  0.00    +0.018 A 
BRANCH  16  22
ATOM     22  C   UNL     1      -4.023  -8.491  -2.333  0.00  0.00    +0.339 C 
ATOM     23  O   UNL     1      -4.636  -9.052  -3.219  0.00  0.00    -0.245 OA
BRANCH  22  24
ATOM     24  O   UNL     1      -4.685  -7.958  -1.288  0.00  0.00    -0.461 OA
BRANCH  24  25
ATOM     25  C   UNL     1      -6.108  -8.091  -1.285  0.00  0.00    +0.232 C 
BRANCH  25  27
ATOM     26  C   UNL     1      -8.203  -7.572  -0.027  0.00  0.00    +0.007 C 
ATOM     27  C   UNL     1      -6.680  -7.430  -0.029  0.00  0.00    +0.038 C 
ENDBRANCH  25  27
ENDBRANCH  24  25
ENDBRANCH  22  24
ENDBRANCH  16  22
ENDBRANCH  15  19
ENDBRANCH   1  15
BRANCH  11  28
ATOM     28  C   UNL     1       4.886  -9.671  -7.831  0.00  0.00    -0.035 C 
BRANCH  28  29
ATOM     29  N   UNL     1       6.271  -9.414  -7.414  0.00  0.00    +0.383 N 
ATOM     30  C   UNL     1       7.026 -10.674  -7.421  0.00  0.00    -0.095 C 
ATOM     31  H   UNL     1       6.275  -9.024  -6.483  0.00  0.00    -0.081 HD
BRANCH  29  32
ATOM     32  C   UNL     1       6.894  -8.464  -8.345  0.00  0.00    -0.043 C 
BRANCH  32  33
ATOM     33  C   UNL     1       8.272  -8.106  -7.851  0.00  0.00    -0.064 A 
ATOM     34  C   UNL     1       8.442  -7.032  -6.997  0.00  0.00    +0.002 A 
ATOM     35  C   UNL     1       9.706  -6.704  -6.543  0.00  0.00    +0.000 A 
ATOM     36  C   UNL     1      10.799  -7.449  -6.942  0.00  0.00    +0.000 A 
ATOM     37  C   UNL     1      10.629  -8.523  -7.795  0.00  0.00    +0.000 A 
ATOM     38  C   UNL     1       9.364  -8.854  -8.246  0.00  0.00    +0.002 A 
ENDBRANCH  32  33
ENDBRANCH  29  32
ENDBRANCH  28  29
ENDBRANCH  11  28
TORSDOF 11
