REMARK  Name = ZINC63855247
REMARK  10 active torsions:
REMARK  status: ('A' for Active; 'I' for Inactive)
REMARK    1  A    between atoms: C_1  and  C_2
REMARK    2  A    between atoms: C_2  and  C_3
REMARK    3  A    between atoms: C_3  and  N_4
REMARK    4  A    between atoms: N_4  and  C_5
REMARK    5  A    between atoms: C_5  and  C_6
REMARK    6  A    between atoms: C_10  and  C_12
REMARK    7  A    between atoms: C_17  and  C_19
REMARK    8  A    between atoms: C_19  and  N_20
REMARK    9  A    between atoms: C_23  and  C_28
REMARK   10  A    between atoms: C_28  and  C_29
REMARK                            x       y       z     vdW  Elec       q    Type
REMARK                         _______ _______ _______ _____ _____    ______ ____
ROOT
ATOM      1  C   UNL     1      -1.438  -1.906  -2.467  0.00  0.00    +0.213 C 
ENDROOT
BRANCH   1   2
ATOM      2  N   UNL     1      -1.436  -2.852  -3.586  0.00  0.00    -0.216 N 
ATOM      3  C   UNL     1      -0.320  -3.329  -4.171  0.00  0.00    +0.244 C 
ATOM      4  O   UNL     1       0.828  -3.067  -3.882  0.00  0.00    -0.273 OA
ATOM      5  C   UNL     1      -0.798  -4.263  -5.265  0.00  0.00    +0.165 C 
ATOM      6  N   UNL     1      -2.266  -4.197  -5.159  0.00  0.00    -0.287 N 
ATOM      7  C   UNL     1      -2.541  -3.352  -4.149  0.00  0.00    +0.310 C 
ATOM      8  O   UNL     1      -3.668  -3.073  -3.790  0.00  0.00    -0.252 OA
ATOM      9  H   UNL     1      -2.909  -4.672  -5.709  0.00  0.00    +0.151 HD
BRANCH   5  10
ATOM     10  C   UNL     1      -0.301  -5.688  -5.012  0.00  0.00    +0.065 C 
BRANCH  10  11
ATOM     11  C   UNL     1      -0.685  -6.567  -6.174  0.00  0.00    -0.039 C 
ATOM     12  C   UNL     1       0.080  -6.882  -7.244  0.00  0.00    -0.001 A 
ATOM     13  C   UNL     1       1.446  -6.512  -7.632  0.00  0.00    +0.010 A 
ATOM     14  C   UNL     1       1.952  -6.995  -8.790  0.00  0.00    +0.001 A 
ATOM     15  C   UNL     1       1.206  -7.836  -9.627  0.00  0.00    +0.002 A 
ATOM     16  C   UNL     1      -0.056  -8.219  -9.338  0.00  0.00    +0.026 A 
ATOM     17  C   UNL     1      -0.687  -7.772  -8.145  0.00  0.00    +0.043 A 
ATOM     18  N   UNL     1      -1.880  -7.999  -7.650  0.00  0.00    -0.380 N 
ATOM     19  C   UNL     1      -2.003  -7.282  -6.376  0.00  0.00    +0.144 C 
ATOM     20  H   UNL     1      -2.566  -8.552  -8.057  0.00  0.00    +0.160 HD
ENDBRANCH  10  11
ENDBRANCH   5  10
ENDBRANCH   1   2
BRANCH   1  22
ATOM     21  N   UNL     1      -1.413  -1.998   0.005  0.00  0.00    -0.295 N 
ATOM     22  C   UNL     1      -1.415  -2.666  -1.166  0.00  0.00    +0.234 C 
ATOM     23  O   UNL     1      -1.399  -3.879  -1.173  0.00  0.00    -0.274 OA
BRANCH  21  24
ATOM     24  C   UNL     1      -1.433  -0.534   0.013  0.00  0.00    +0.108 C 
BRANCH  24  26
ATOM     25  C   UNL     1      -0.019   1.526   0.010  0.00  0.00    +0.005 C 
ATOM     26  C   UNL     1       0.002  -0.004   0.002  0.00  0.00    +0.016 C 
ENDBRANCH  24  26
ENDBRANCH  21  24
BRANCH  21  27
ATOM     27  C   UNL     1      -1.391  -2.738   1.269  0.00  0.00    +0.174 C 
BRANCH  27  28
ATOM     28  C   UNL     1      -2.826  -3.015   1.723  0.00  0.00    +0.295 C 
ATOM     29  N   UNL     1      -3.570  -1.753   1.878  0.00  0.00    -0.226 N 
ATOM     30  N   UNL     1      -4.632  -1.831   0.965  0.00  0.00    -0.145 NA
ATOM     31  C   UNL     1      -4.589  -2.953   0.322  0.00  0.00    +0.246 C 
ATOM     32  O   UNL     1      -3.545  -3.729   0.708  0.00  0.00    -0.450 OA
ATOM     33  H   UNL     1      -3.369  -1.022   2.484  0.00  0.00    +0.172 HD
BRANCH  31  34
ATOM     34  C   UNL     1      -5.564  -3.345  -0.708  0.00  0.00    +0.075 A 
ATOM     35  C   UNL     1      -6.649  -2.650  -1.181  0.00  0.00    +0.021 A 
ATOM     36  C   UNL     1      -7.426  -3.225  -2.161  0.00  0.00    +0.008 A 
ATOM     37  C   UNL     1      -7.098  -4.458  -2.627  0.00  0.00    +0.046 A 
ATOM     38  S   UNL     1      -5.638  -4.844  -1.674  0.00  0.00    -0.092 S 
ENDBRANCH  31  34
ENDBRANCH  27  28
ENDBRANCH  21  27
ENDBRANCH   1  22
TORSDOF 9
