REMARK  Name = ZINC03376467
REMARK  10 active torsions:
REMARK  status: ('A' for Active; 'I' for Inactive)
REMARK    1  A    between atoms: C_1  and  C_2
REMARK    2  A    between atoms: C_2  and  C_4
REMARK    3  A    between atoms: C_2  and  N_52
REMARK    4  A    between atoms: C_7  and  S_16
REMARK    5  A    between atoms: N_8  and  C_9
REMARK    6  A    between atoms: S_16  and  C_17
REMARK    7  A    between atoms: C_17  and  C_19
REMARK    8  A    between atoms: C_17  and  C_20
REMARK    9  A    between atoms: C_30  and  N_52
REMARK   10  A    between atoms: C_31  and  N_52
REMARK                            x       y       z     vdW  Elec       q    Type
REMARK                         _______ _______ _______ _____ _____    ______ ____
ROOT
ATOM      1  C   UNL     1      -1.740   3.441   0.091  0.00  0.00    +0.125 A 
ATOM      2  N   UNL     1      -1.713   3.001  -1.135  0.00  0.00    -0.135 NA
ATOM      3  N   UNL     1      -2.631   3.573  -1.830  0.00  0.00    -0.122 NA
ATOM      4  C   UNL     1      -3.293   4.425  -1.081  0.00  0.00    +0.197 A 
ATOM      5  N   UNL     1      -2.745   4.367   0.171  0.00  0.00    -0.275 N 
ENDROOT
BRANCH   5   6
ATOM      6  C   UNL     1      -3.131   5.104   1.300  0.00  0.00    +0.050 A 
ATOM      7  C   UNL     1      -3.669   4.455   2.403  0.00  0.00    +0.028 A 
ATOM      8  C   UNL     1      -4.045   5.183   3.515  0.00  0.00    +0.022 A 
ATOM      9  C   UNL     1      -3.895   6.558   3.527  0.00  0.00    +0.041 A 
ATOM     10  C   UNL     1      -3.364   7.208   2.427  0.00  0.00    +0.022 A 
ATOM     11  C   UNL     1      -2.982   6.484   1.314  0.00  0.00    +0.028 A 
ATOM     12 CL   UNL     1      -4.373   7.471   4.924  0.00  0.00    -0.084 Cl
ENDBRANCH   5   6
BRANCH   1  14
ATOM     13  C   UNL     1       0.554   3.639   1.014  0.00  0.00    -0.005 C 
ATOM     14  C   UNL     1      -0.828   3.013   1.213  0.00  0.00    -0.003 C 
BRANCH  14  17
ATOM     15  C   UNL     1      -0.020   1.076   0.006  0.00  0.00    -0.096 C 
ATOM     16  C   UNL     1      -0.024   1.079   2.428  0.00  0.00    -0.096 C 
ATOM     17  N   UNL     1      -0.734   1.538   1.215  0.00  0.00    +0.382 N 
ATOM     18  H   UNL     1      -1.682   1.143   1.214  0.00  0.00    -0.082 HD
ENDBRANCH  14  17
ENDBRANCH   1  14
BRANCH   4  19
ATOM     19  S   UNL     1      -4.634   5.447  -1.593  0.00  0.00    -0.073 S 
BRANCH  19  20
ATOM     20  C   UNL     1      -4.758   4.957  -3.330  0.00  0.00    +0.137 C 
ATOM     21  C   UNL     1      -5.174   3.487  -3.417  0.00  0.00    +0.029 C 
BRANCH  20  22
ATOM     22  C   UNL     1      -5.789   5.812  -4.021  0.00  0.00    +0.231 C 
ATOM     23  O   UNL     1      -6.625   6.400  -3.369  0.00  0.00    -0.274 OA
ATOM     24  N   UNL     1      -5.781   5.924  -5.364  0.00  0.00    -0.269 N 
ATOM     25  C   UNL     1      -6.796   6.628  -6.011  0.00  0.00    +0.125 A 
ATOM     26  C   UNL     1      -6.841   6.651  -7.401  0.00  0.00    +0.045 A 
ATOM     27  C   UNL     1      -7.854   7.353  -8.030  0.00  0.00    +0.025 A 
ATOM     28  C   UNL     1      -8.791   8.012  -7.244  0.00  0.00    +0.059 A 
ATOM     29  C   UNL     1      -8.685   7.946  -5.868  0.00  0.00    +0.132 A 
ATOM     30  N   UNL     1      -7.711   7.264  -5.296  0.00  0.00    -0.239 NA
ATOM     31 CL   UNL     1     -10.081   8.907  -7.983  0.00  0.00    -0.082 Cl
ATOM     32  H   UNL     1      -5.069   5.515  -5.881  0.00  0.00    +0.156 HD
ENDBRANCH  20  22
ENDBRANCH  19  20
ENDBRANCH   4  19
TORSDOF 6
