REMARK  Name = ZINC12780979
REMARK  6 active torsions:
REMARK  status: ('A' for Active; 'I' for Inactive)
REMARK    1  A    between atoms: C_1  and  C_2
REMARK    2  A    between atoms: C_2  and  O_3
REMARK    3  A    between atoms: O_3  and  C_4
REMARK    4  A    between atoms: C_9  and  N_10
REMARK    5  A    between atoms: C_11  and  C_13
REMARK    6  A    between atoms: C_22  and  C_25
REMARK                            x       y       z     vdW  Elec       q    Type
REMARK                         _______ _______ _______ _____ _____    ______ ____
ROOT
ATOM      1  C   UNL     1      -1.214   1.757   0.005  0.00  0.00    +0.142 A 
ATOM      2  C   UNL     1      -0.001   1.086  -0.013  0.00  0.00    +0.055 A 
ATOM      3  C   UNL     1       1.180   1.796  -0.024  0.00  0.00    +0.001 A 
ATOM      4  C   UNL     1       1.179   3.185  -0.006  0.00  0.00    +0.126 A 
ATOM      5  C   UNL     1      -0.039   3.859   0.014  0.00  0.00    +0.073 A 
ATOM      6  C   UNL     1      -1.229   3.150   0.021  0.00  0.00    +0.079 A 
ATOM      7  O   UNL     1       2.448   3.679  -0.006  0.00  0.00    -0.488 OA
ATOM      8  C   UNL     1       3.352   2.662  -0.469  0.00  0.00    +0.175 C 
ATOM      9  C   UNL     1       2.630   1.354  -0.067  0.00  0.00    +0.083 C 
ATOM     10  C   UNL     1       4.704   2.775   0.239  0.00  0.00    +0.052 C 
ENDROOT
BRANCH   6  11
ATOM     11  N   UNL     1      -2.450   3.835   0.041  0.00  0.00    -0.278 N 
ATOM     12  C   UNL     1      -2.561   4.996   0.717  0.00  0.00    +0.250 C 
ATOM     13  O   UNL     1      -1.581   5.490   1.242  0.00  0.00    -0.270 OA
ATOM     14  H   UNL     1      -3.216   3.475  -0.432  0.00  0.00    +0.155 HD
BRANCH  12  15
ATOM     15  C   UNL     1      -3.873   5.667   0.822  0.00  0.00    +0.057 A 
ATOM     16  C   UNL     1      -5.000   5.103   0.221  0.00  0.00    +0.034 A 
ATOM     17  C   UNL     1      -6.222   5.736   0.323  0.00  0.00    +0.042 A 
ATOM     18  C   UNL     1      -6.332   6.928   1.020  0.00  0.00    +0.021 A 
ATOM     19  C   UNL     1      -5.221   7.492   1.617  0.00  0.00    +0.022 A 
ATOM     20  C   UNL     1      -3.992   6.867   1.527  0.00  0.00    +0.053 A 
ATOM     21 CL   UNL     1      -2.599   7.575   2.284  0.00  0.00    -0.083 Cl
ATOM     22 CL   UNL     1      -7.624   5.035  -0.423  0.00  0.00    -0.084 Cl
ENDBRANCH  12  15
ENDBRANCH   6  11
BRANCH   1  23
ATOM     23  O   UNL     1      -2.382   1.060   0.010  0.00  0.00    -0.490 OA
BRANCH  23  25
ATOM     24  C   UNL     1      -3.692  -0.971   0.005  0.00  0.00    +0.048 C 
ATOM     25  C   UNL     1      -2.287  -0.366  -0.003  0.00  0.00    +0.226 C 
ENDBRANCH  23  25
ENDBRANCH   1  23
TORSDOF 4
