REMARK  Name = ZINC14037513
REMARK  8 active torsions:
REMARK  status: ('A' for Active; 'I' for Inactive)
REMARK    1  A    between atoms: C_1  and  C_2
REMARK    2  A    between atoms: C_3  and  C_23
REMARK    3  A    between atoms: C_5  and  N_10
REMARK    4  A    between atoms: C_6  and  C_7
REMARK    5  A    between atoms: N_10  and  C_11
REMARK    6  A    between atoms: C_11  and  N_13
REMARK    7  A    between atoms: C_14  and  C_16
REMARK    8  A    between atoms: C_23  and  C_24
REMARK                            x       y       z     vdW  Elec       q    Type
REMARK                         _______ _______ _______ _____ _____    ______ ____
ROOT
ATOM      1  C   UNL     1      -0.013   1.086   0.008  0.00  0.00    +0.045 C 
ATOM      2  C   UNL     1      -0.718   1.572   1.248  0.00  0.00    -0.026 A 
ATOM      3  C   UNL     1      -2.045   1.792   1.259  0.00  0.00    -0.000 A 
ATOM      4  S   UNL     1      -2.356   2.338   2.925  0.00  0.00    -0.077 S 
ATOM      5  C   UNL     1      -0.745   2.272   3.557  0.00  0.00    +0.084 A 
ATOM      6  C   UNL     1       0.003   1.826   2.473  0.00  0.00    +0.068 A 
ENDROOT
BRANCH   6   7
ATOM      7  C   UNL     1       1.451   1.624   2.569  0.00  0.00    +0.244 C 
ATOM      8  O   UNL     1       2.212   2.538   2.308  0.00  0.00    -0.270 OA
ATOM      9  N   UNL     1       1.941   0.426   2.946  0.00  0.00    -0.325 N 
ATOM     10  H   UNL     1       1.335  -0.302   3.154  0.00  0.00    +0.145 HD
ATOM     11  H   UNL     1       2.900   0.293   3.010  0.00  0.00    +0.145 HD
ENDBRANCH   6   7
BRANCH   5  12
ATOM     12  N   UNL     1      -0.308   2.587   4.833  0.00  0.00    -0.291 N 
ATOM     13  H   UNL     1       0.632   2.504   5.058  0.00  0.00    +0.154 HD
BRANCH  12  14
ATOM     14  C   UNL     1      -1.188   3.007   5.763  0.00  0.00    +0.141 C 
ATOM     15  S   UNL     1      -2.847   3.152   5.367  0.00  0.00    -0.018 S 
BRANCH  14  16
ATOM     16  N   UNL     1      -0.763   3.313   7.005  0.00  0.00    -0.263 N 
ATOM     17  C   UNL     1      -1.643   3.733   7.934  0.00  0.00    +0.252 C 
ATOM     18  O   UNL     1      -2.821   3.837   7.653  0.00  0.00    -0.270 OA
ATOM     19  H   UNL     1       0.177   3.231   7.229  0.00  0.00    +0.157 HD
BRANCH  17  20
ATOM     20  C   UNL     1      -1.177   4.069   9.294  0.00  0.00    +0.072 A 
ATOM     21  C   UNL     1       0.175   3.946   9.623  0.00  0.00    +0.016 A 
ATOM     22  C   UNL     1       0.605   4.265  10.893  0.00  0.00    +0.001 A 
ATOM     23  C   UNL     1      -0.301   4.697  11.847  0.00  0.00    +0.003 A 
ATOM     24  C   UNL     1      -1.642   4.817  11.534  0.00  0.00    +0.039 A 
ATOM     25  C   UNL     1      -2.088   4.505  10.262  0.00  0.00    +0.135 A 
ATOM     26  F   UNL     1      -3.398   4.622   9.955  0.00  0.00    -0.205 F 
ENDBRANCH  17  20
ENDBRANCH  14  16
ENDBRANCH  12  14
ENDBRANCH   5  12
BRANCH   3  27
ATOM     27  C   UNL     1      -3.031   1.617   0.133  0.00  0.00    +0.077 C 
BRANCH  27  28
ATOM     28  C   UNL     1      -3.580   0.214   0.159  0.00  0.00    -0.043 A 
ATOM     29  C   UNL     1      -2.949  -0.788  -0.553  0.00  0.00    +0.004 A 
ATOM     30  C   UNL     1      -3.449  -2.077  -0.525  0.00  0.00    +0.000 A 
ATOM     31  C   UNL     1      -4.587  -2.360   0.207  0.00  0.00    +0.000 A 
ATOM     32  C   UNL     1      -5.221  -1.356   0.915  0.00  0.00    +0.000 A 
ATOM     33  C   UNL     1      -4.718  -0.069   0.891  0.00  0.00    +0.004 A 
ENDBRANCH  27  28
ENDBRANCH   3  27
TORSDOF 7
