REMARK  Name = ZINC20532123
REMARK  10 active torsions:
REMARK  status: ('A' for Active; 'I' for Inactive)
REMARK    1  A    between atoms: C_1  and  C_2
REMARK    2  A    between atoms: C_6  and  C_8
REMARK    3  A    between atoms: C_10  and  C_14
REMARK    4  A    between atoms: C_11  and  C_13
REMARK    5  A    between atoms: C_14  and  S_15
REMARK    6  A    between atoms: S_15  and  C_16
REMARK    7  A    between atoms: C_19  and  C_28
REMARK    8  A    between atoms: N_20  and  C_21
REMARK    9  A    between atoms: C_26  and  C_27
REMARK   10  A    between atoms: N_32  and  C_33
REMARK                            x       y       z     vdW  Elec       q    Type
REMARK                         _______ _______ _______ _____ _____    ______ ____
ROOT
ATOM      1  C   UNL     1      -3.009  10.192   1.369  0.00  0.00    +0.197 A 
ATOM      2  N   UNL     1      -3.457  10.730   0.257  0.00  0.00    -0.122 NA
ATOM      3  N   UNL     1      -4.231  11.720   0.523  0.00  0.00    -0.126 NA
ATOM      4  C   UNL     1      -4.327  11.879   1.826  0.00  0.00    +0.186 A 
ATOM      5  N   UNL     1      -3.550  10.900   2.409  0.00  0.00    -0.269 N 
ENDROOT
BRANCH   4   6
ATOM      6  C   UNL     1      -5.117  12.902   2.526  0.00  0.00    +0.091 A 
ATOM      7  C   UNL     1      -5.301  12.980   3.876  0.00  0.00    +0.078 A 
ATOM      8  C   UNL     1      -6.112  14.098   4.137  0.00  0.00    +0.153 A 
ATOM      9  C   UNL     1      -6.415  14.681   2.915  0.00  0.00    +0.088 A 
ATOM     10  N   UNL     1      -5.800  13.940   1.930  0.00  0.00    -0.338 N 
ATOM     11  C   UNL     1      -5.860  14.210   0.491  0.00  0.00    +0.149 C 
ATOM     12  C   UNL     1      -7.234  15.799   3.198  0.00  0.00    +0.067 A 
ATOM     13  C   UNL     1      -7.390  15.848   4.532  0.00  0.00    +0.198 A 
ATOM     14  O   UNL     1      -6.718  14.829   5.097  0.00  0.00    -0.461 OA
ENDBRANCH   4   6
BRANCH   5  15
ATOM     15  C   UNL     1      -3.353  10.678   3.779  0.00  0.00    +0.053 A 
ATOM     16  C   UNL     1      -2.370  11.381   4.463  0.00  0.00    +0.026 A 
ATOM     17  C   UNL     1      -2.178  11.160   5.813  0.00  0.00    +0.002 A 
ATOM     18  C   UNL     1      -2.964  10.240   6.483  0.00  0.00    +0.000 A 
ATOM     19  C   UNL     1      -3.942   9.538   5.804  0.00  0.00    +0.005 A 
ATOM     20  C   UNL     1      -4.143   9.758   4.455  0.00  0.00    -0.026 A 
ATOM     21  C   UNL     1      -5.214   8.997   3.717  0.00  0.00    +0.046 C 
ENDBRANCH   5  15
BRANCH   1  22
ATOM     22  S   UNL     1      -1.920   8.813   1.497  0.00  0.00    -0.079 S 
BRANCH  22  23
ATOM     23  C   UNL     1      -1.669   8.445  -0.258  0.00  0.00    +0.136 C 
BRANCH  23  26
ATOM     24  C   UNL     1      -0.031   5.238  -0.573  0.00  0.00    +0.228 A 
ATOM     25  N   UNL     1      -1.109   5.975  -0.451  0.00  0.00    -0.213 NA
ATOM     26  C   UNL     1      -0.743   7.265  -0.396  0.00  0.00    +0.093 A 
ATOM     27  C   UNL     1       0.598   7.317  -0.488  0.00  0.00    +0.127 A 
ATOM     28  O   UNL     1       1.042   6.048  -0.593  0.00  0.00    -0.440 OA
ATOM     29  C   UNL     1       1.448   8.562  -0.469  0.00  0.00    +0.088 C 
BRANCH  24  35
ATOM     30  C   UNL     1       2.555   0.994  -1.019  0.00  0.00    +0.044 C 
ATOM     31  C   UNL     1       1.241   1.718  -0.880  0.00  0.00    -0.050 A 
ATOM     32  C   UNL     1       0.058   1.000  -0.841  0.00  0.00    +0.003 A 
ATOM     33  C   UNL     1      -1.153   1.657  -0.721  0.00  0.00    +0.001 A 
ATOM     34  C   UNL     1      -1.189   3.033  -0.627  0.00  0.00    +0.013 A 
ATOM     35  C   UNL     1       0.000   3.763  -0.666  0.00  0.00    +0.037 A 
ATOM     36  C   UNL     1       1.219   3.094  -0.793  0.00  0.00    +0.016 A 
ENDBRANCH  24  35
ENDBRANCH  23  26
ENDBRANCH  22  23
ENDBRANCH   1  22
TORSDOF 6
