REMARK  Name = ZINC01978040
REMARK  6 active torsions:
REMARK  status: ('A' for Active; 'I' for Inactive)
REMARK    1  A    between atoms: C_6  and  C_7
REMARK    2  A    between atoms: C_13  and  O_18
REMARK    3  A    between atoms: O_18  and  C_19
REMARK    4  A    between atoms: C_19  and  C_20
REMARK    5  A    between atoms: N_22  and  C_23
REMARK    6  A    between atoms: C_24  and  C_32
REMARK                            x       y       z     vdW  Elec       q    Type
REMARK                         _______ _______ _______ _____ _____    ______ ____
ROOT
ATOM      1  O   UNL     1      -2.362   4.260   0.049  0.00  0.00    -0.483 OA
ENDROOT
BRANCH   1   8
ATOM      2  C   UNL     1       2.396   0.122  -0.020  0.00  0.00    +0.139 A 
ATOM      3  C   UNL     1       1.266  -0.637  -0.013  0.00  0.00    +0.098 A 
ATOM      4  C   UNL     1       0.002  -0.004   0.002  0.00  0.00    +0.193 A 
ATOM      5  O   UNL     1      -1.031  -0.652   0.008  0.00  0.00    -0.287 OA
ATOM      6  C   UNL     1      -0.018   1.472   0.010  0.00  0.00    +0.067 A 
ATOM      7  C   UNL     1      -1.219   2.180   0.031  0.00  0.00    +0.061 A 
ATOM      8  C   UNL     1      -1.195   3.562   0.034  0.00  0.00    +0.122 A 
ATOM      9  C   UNL     1       0.020   4.241   0.025  0.00  0.00    +0.049 A 
ATOM     10  C   UNL     1       1.211   3.548   0.009  0.00  0.00    +0.050 A 
ATOM     11  C   UNL     1       1.207   2.158   0.002  0.00  0.00    +0.139 A 
ATOM     12  O   UNL     1       2.364   1.464  -0.013  0.00  0.00    -0.455 OA
BRANCH   2  18
ATOM     13  C   UNL     1       3.774  -1.952  -0.039  0.00  0.00    +0.013 A 
ATOM     14  C   UNL     1       5.002  -2.579  -0.060  0.00  0.00    +0.021 A 
ATOM     15  C   UNL     1       6.166  -1.830  -0.066  0.00  0.00    +0.041 A 
ATOM     16  C   UNL     1       6.106  -0.446  -0.059  0.00  0.00    +0.021 A 
ATOM     17  C   UNL     1       4.885   0.194  -0.043  0.00  0.00    +0.013 A 
ATOM     18  C   UNL     1       3.707  -0.556  -0.036  0.00  0.00    +0.017 A 
ATOM     19 CL   UNL     1       7.708  -2.628  -0.085  0.00  0.00    -0.084 Cl
ENDBRANCH   2  18
ENDBRANCH   1   8
BRANCH   1  20
ATOM     20  C   UNL     1      -2.265   5.686   0.056  0.00  0.00    +0.324 C 
BRANCH  20  21
ATOM     21  C   UNL     1      -3.648   6.283   0.072  0.00  0.00    +0.255 C 
ATOM     22  O   UNL     1      -4.621   5.559   0.078  0.00  0.00    -0.272 OA
ATOM     23  N   UNL     1      -3.804   7.622   0.081  0.00  0.00    -0.277 N 
ATOM     24  H   UNL     1      -2.921   8.278   0.076  0.00  0.00    +0.155 HD
BRANCH  23  25
ATOM     25  C   UNL     1      -5.077   8.172   0.097  0.00  0.00    +0.084 A 
ATOM     26  C   UNL     1      -5.437   9.512   0.113  0.00  0.00    +0.068 A 
ATOM     27  C   UNL     1      -6.856   9.826   0.124  0.00  0.00    -0.023 A 
ATOM     28  C   UNL     1      -7.681   8.757   0.127  0.00  0.00    -0.004 A 
ATOM     29  S   UNL     1      -6.603   7.352   0.108  0.00  0.00    -0.077 S 
ATOM     30  C   UNL     1      -9.179   8.772   0.144  0.00  0.00    +0.043 C 
ATOM     31  C   UNL     1      -9.644  10.182   0.535  0.00  0.00    +0.005 C 
ATOM     32  C   UNL     1      -8.874  11.206  -0.304  0.00  0.00    +0.005 C 
ATOM     33  C   UNL     1      -7.410  11.245   0.138  0.00  0.00    +0.037 C 
BRANCH  26  34
ATOM     34  C   UNL     1      -4.424  10.572   0.115  0.00  0.00    +0.244 C 
ATOM     35  O   UNL     1      -4.012  11.022  -0.938  0.00  0.00    -0.270 OA
ATOM     36  N   UNL     1      -3.948  11.046   1.283  0.00  0.00    -0.325 N 
ATOM     37  H   UNL     1      -3.188  11.842   1.285  0.00  0.00    +0.145 HD
ATOM     38  H   UNL     1      -4.319  10.639   2.235  0.00  0.00    +0.145 HD
ENDBRANCH  26  34
ENDBRANCH  23  25
ENDBRANCH  20  21
ENDBRANCH   1  20
TORSDOF 6
