REMARK  Name = ZINC60386545
REMARK  9 active torsions:
REMARK  status: ('A' for Active; 'I' for Inactive)
REMARK    1  A    between atoms: C_1  and  C_2
REMARK    2  A    between atoms: C_2  and  C_3
REMARK    3  A    between atoms: C_3  and  C_4
REMARK    4  A    between atoms: C_4  and  C_5
REMARK    5  A    between atoms: C_5  and  C_28
REMARK    6  A    between atoms: N_8  and  C_12
REMARK    7  A    between atoms: C_12  and  C_13
REMARK    8  A    between atoms: N_15  and  C_16
REMARK    9  A    between atoms: C_17  and  C_26
REMARK                            x       y       z     vdW  Elec       q    Type
REMARK                         _______ _______ _______ _____ _____    ______ ____
ROOT
ATOM      1  C   UNL     1       1.503  -2.548   2.473  0.00  0.00    +0.138 C 
ATOM      2  C   UNL     1       2.888  -1.937   2.554  0.00  0.00    +0.251 C 
ATOM      3  O   UNL     1       3.789  -2.057   1.751  0.00  0.00    -0.272 OA
ATOM      4  N   UNL     1       2.909  -1.234   3.703  0.00  0.00    -0.215 N 
ATOM      5  C   UNL     1       1.742  -1.313   4.352  0.00  0.00    +0.310 C 
ATOM      6  O   UNL     1       1.520  -0.763   5.413  0.00  0.00    -0.252 OA
ATOM      7  N   UNL     1       0.843  -2.072   3.701  0.00  0.00    -0.281 N 
ATOM      8  H   UNL     1      -0.064  -2.268   3.984  0.00  0.00    +0.152 HD
ENDROOT
BRANCH   1   9
ATOM      9  C   UNL     1       1.583  -4.052   2.462  0.00  0.00    -0.015 A 
ATOM     10  C   UNL     1       1.629  -4.734   1.260  0.00  0.00    +0.006 A 
ATOM     11  C   UNL     1       1.702  -6.114   1.250  0.00  0.00    +0.000 A 
ATOM     12  C   UNL     1       1.730  -6.813   2.443  0.00  0.00    +0.000 A 
ATOM     13  C   UNL     1       1.685  -6.132   3.645  0.00  0.00    +0.000 A 
ATOM     14  C   UNL     1       1.616  -4.751   3.654  0.00  0.00    +0.006 A 
ENDBRANCH   1   9
BRANCH   1  15
ATOM     15  C   UNL     1       0.763  -2.041   1.233  0.00  0.00    +0.040 C 
BRANCH  15  16
ATOM     16  C   UNL     1       0.742  -0.511   1.242  0.00  0.00    +0.003 C 
BRANCH  16  18
ATOM     17  C   UNL     1      -0.019   1.526   0.010  0.00  0.00    +0.004 C 
ATOM     18  C   UNL     1       0.002  -0.004   0.002  0.00  0.00    -0.003 C 
ENDBRANCH  16  18
ENDBRANCH  15  16
ENDBRANCH   1  15
BRANCH   4  19
ATOM     19  C   UNL     1       4.068  -0.475   4.182  0.00  0.00    +0.214 C 
BRANCH  19  20
ATOM     20  C   UNL     1       4.000   0.934   3.651  0.00  0.00    +0.236 C 
ATOM     21  O   UNL     1       3.075   1.271   2.942  0.00  0.00    -0.274 OA
ATOM     22  N   UNL     1       4.967   1.819   3.964  0.00  0.00    -0.278 N 
ATOM     23  H   UNL     1       5.707   1.549   4.531  0.00  0.00    +0.155 HD
BRANCH  22  24
ATOM     24  C   UNL     1       4.905   3.116   3.475  0.00  0.00    +0.090 A 
ATOM     25  C   UNL     1       5.802   4.149   3.685  0.00  0.00    +0.084 A 
ATOM     26  C   UNL     1       5.510   5.429   3.057  0.00  0.00    -0.018 A 
ATOM     27  C   UNL     1       4.367   5.437   2.339  0.00  0.00    -0.004 A 
ATOM     28  S   UNL     1       3.728   3.792   2.488  0.00  0.00    -0.077 S 
ATOM     29  C   UNL     1       3.767   6.585   1.588  0.00  0.00    +0.043 C 
ATOM     30  C   UNL     1       4.849   7.237   0.717  0.00  0.00    +0.005 C 
ATOM     31  C   UNL     1       5.544   8.321   1.535  0.00  0.00    +0.001 C 
ATOM     32  C   UNL     1       5.596   7.920   3.008  0.00  0.00    +0.005 C 
ATOM     33  C   UNL     1       6.415   6.645   3.186  0.00  0.00    +0.037 C 
BRANCH  25  34
ATOM     34  C   UNL     1       6.972   3.965   4.490  0.00  0.00    +0.102 C 
ATOM     35  N   UNL     1       7.901   3.819   5.128  0.00  0.00    -0.191 NA
ENDBRANCH  25  34
ENDBRANCH  22  24
ENDBRANCH  19  20
ENDBRANCH   4  19
TORSDOF 8
