REMARK  Name = ZINC12504515
REMARK  12 active torsions:
REMARK  status: ('A' for Active; 'I' for Inactive)
REMARK    1  A    between atoms: C_1  and  C_2
REMARK    2  A    between atoms: C_2  and  C_4
REMARK    3  A    between atoms: C_2  and  C_11
REMARK    4  A    between atoms: C_4  and  C_5
REMARK    5  A    between atoms: C_6  and  C_7
REMARK    6  A    between atoms: C_7  and  C_8
REMARK    7  A    between atoms: C_7  and  C_9
REMARK    8  A    between atoms: C_7  and  O_10
REMARK    9  A    between atoms: C_17  and  C_34
REMARK   10  A    between atoms: C_22  and  C_23
REMARK   11  A    between atoms: C_26  and  O_33
REMARK   12  A    between atoms: C_29  and  O_32
REMARK                            x       y       z     vdW  Elec       q    Type
REMARK                         _______ _______ _______ _____ _____    ______ ____
ROOT
ATOM      1  C   UNL     1       1.045  -0.314   0.404  0.00  0.00    -0.001 C 
ATOM      2  C   UNL     1      -0.172   0.458  -0.170  0.00  0.00    +0.005 C 
ATOM      3  C   UNL     1       0.145   1.970   0.011  0.00  0.00    +0.009 C 
ATOM      4  C   UNL     1       1.674   1.990   0.072  0.00  0.00    +0.021 C 
ATOM      5  C   UNL     1       1.958   0.758   0.978  0.00  0.00    -0.022 C 
ATOM      6  C   UNL     1       3.450   0.521   0.950  0.00  0.00    +0.008 C 
ATOM      7  C   UNL     1       4.119   1.690   1.695  0.00  0.00    +0.005 C 
ATOM      8  C   UNL     1       3.800   3.027   1.029  0.00  0.00    +0.031 C 
ATOM      9  C   UNL     1       2.306   3.157   0.771  0.00  0.00    -0.066 C 
ATOM     10  C   UNL     1       1.610   4.228   1.137  0.00  0.00    -0.001 C 
ATOM     11  C   UNL     1       1.524   1.077   2.410  0.00  0.00    +0.012 C 
ENDROOT
BRANCH  10  12
ATOM     12  C   UNL     1       2.283   5.344   1.820  0.00  0.00    -0.001 C 
ATOM     13  C   UNL     1       1.572   6.366   2.283  0.00  0.00    -0.065 C 
ATOM     14  C   UNL     1       0.060   6.343   2.235  0.00  0.00    +0.062 C 
ATOM     15  C   UNL     1      -0.472   6.676   3.638  0.00  0.00    +0.121 C 
ATOM     16  C   UNL     1       0.123   8.006   4.103  0.00  0.00    +0.063 C 
ATOM     17  C   UNL     1       1.641   7.875   4.240  0.00  0.00    +0.121 C 
ATOM     18  C   UNL     1       2.253   7.585   2.865  0.00  0.00    +0.062 C 
BRANCH  17  19
ATOM     19  O   UNL     1       2.180   9.094   4.754  0.00  0.00    -0.391 OA
ATOM     20  H   UNL     1       3.140   9.083   4.866  0.00  0.00    +0.210 HD
ENDBRANCH  17  19
BRANCH  15  21
ATOM     21  O   UNL     1      -0.100   5.641   4.550  0.00  0.00    -0.391 OA
ATOM     22  H   UNL     1      -0.444   4.768   4.317  0.00  0.00    +0.210 HD
ENDBRANCH  15  21
ENDBRANCH  10  12
BRANCH   1  24
ATOM     23  C   UNL     1       1.812  -2.000   2.081  0.00  0.00    +0.009 C 
ATOM     24  C   UNL     1       0.593  -1.276   1.504  0.00  0.00    +0.001 C 
BRANCH  24  25
ATOM     25  C   UNL     1      -0.379  -2.301   0.918  0.00  0.00    +0.092 C 
BRANCH  25  26
ATOM     26  C   UNL     1      -0.906  -3.151   1.998  0.00  0.00    -0.099 C 
ATOM     27  C   UNL     1      -1.327  -3.829   2.860  0.00  0.00    -0.068 C 
BRANCH  27  28
ATOM     28  C   UNL     1      -1.854  -4.678   3.940  0.00  0.00    +0.121 C 
ATOM     29  C   UNL     1      -0.697  -5.407   4.626  0.00  0.00    +0.055 C 
ATOM     30  C   UNL     1      -2.586  -3.808   4.963  0.00  0.00    +0.055 C 
BRANCH  28  31
ATOM     31  O   UNL     1      -2.762  -5.636   3.392  0.00  0.00    -0.377 OA
ATOM     32  H   UNL     1      -3.149  -6.231   4.049  0.00  0.00    +0.211 HD
ENDBRANCH  28  31
ENDBRANCH  27  28
ENDBRANCH  25  26
ENDBRANCH  24  25
ENDBRANCH   1  24
TORSDOF 8
