REMARK  Name = ZINC10068721
REMARK  12 active torsions:
REMARK  status: ('A' for Active; 'I' for Inactive)
REMARK    1  A    between atoms: C_1  and  N_58
REMARK    2  A    between atoms: C_2  and  N_58
REMARK    3  A    between atoms: C_3  and  C_4
REMARK    4  A    between atoms: C_3  and  N_58
REMARK    5  A    between atoms: C_4  and  C_5
REMARK    6  A    between atoms: C_5  and  N_6
REMARK    7  A    between atoms: C_10  and  O_18
REMARK    8  A    between atoms: C_13  and  O_16
REMARK    9  A    between atoms: O_16  and  C_17
REMARK   10  A    between atoms: O_18  and  C_19
REMARK   11  A    between atoms: C_20  and  C_22
REMARK   12  A    between atoms: C_26  and  N_31
REMARK                            x       y       z     vdW  Elec       q    Type
REMARK                         _______ _______ _______ _____ _____    ______ ____
ROOT
ATOM      1  N   UNL     1       4.534  -3.135  -0.118  0.00  0.00    -0.246 N 
ATOM      2  C   UNL     1       3.457  -2.265  -0.093  0.00  0.00    +0.169 A 
ATOM      3  N   UNL     1       3.454  -0.955  -0.171  0.00  0.00    -0.221 NA
ATOM      4  C   UNL     1       2.316  -0.228  -0.135  0.00  0.00    +0.125 A 
ATOM      5  C   UNL     1       2.176   1.182  -0.208  0.00  0.00    +0.147 A 
ATOM      6  C   UNL     1       0.934   1.768  -0.155  0.00  0.00    +0.051 A 
ATOM      7  C   UNL     1      -0.221   1.009  -0.029  0.00  0.00    +0.050 A 
ATOM      8  C   UNL     1      -0.120  -0.372   0.045  0.00  0.00    +0.136 A 
ATOM      9  C   UNL     1       1.121  -0.967  -0.007  0.00  0.00    +0.086 A 
ATOM     10  S   UNL     1       1.715  -2.640   0.051  0.00  0.00    -0.048 S 
ATOM     11  C   UNL     1       4.329  -4.464  -0.025  0.00  0.00    +0.259 C 
ATOM     12  O   UNL     1       3.204  -4.896   0.143  0.00  0.00    -0.269 OA
ENDROOT
BRANCH  11  13
ATOM     13  C   UNL     1       5.464  -5.392  -0.127  0.00  0.00    +0.076 A 
ATOM     14  C   UNL     1       5.446  -6.750  -0.185  0.00  0.00    +0.029 A 
ATOM     15  C   UNL     1       6.653  -7.464  -0.287  0.00  0.00    -0.008 A 
ATOM     16  C   UNL     1       6.839  -8.869  -0.363  0.00  0.00    +0.041 A 
ATOM     17  C   UNL     1       8.085  -9.401  -0.452  0.00  0.00    +0.127 A 
ATOM     18  C   UNL     1       9.220  -8.599  -0.471  0.00  0.00    +0.034 A 
ATOM     19  C   UNL     1       9.085  -7.227  -0.399  0.00  0.00    +0.018 A 
ATOM     20  C   UNL     1       7.826  -6.673  -0.308  0.00  0.00    +0.020 A 
ATOM     21  S   UNL     1       7.207  -5.013  -0.198  0.00  0.00    -0.084 S 
BRANCH  17  22
ATOM     22  N   UNL     1       8.239 -10.871  -0.529  0.00  0.00    +0.056 N 
ATOM     23  O   UNL     1       7.254 -11.588  -0.514  0.00  0.00    -0.126 OA
ATOM     24  O   UNL     1       9.350 -11.364  -0.609  0.00  0.00    -0.126 OA
ENDBRANCH  17  22
ENDBRANCH  11  13
BRANCH   8  25
ATOM     25  O   UNL     1      -1.240  -1.134   0.169  0.00  0.00    -0.494 OA
ATOM     26  C   UNL     1      -2.491  -0.446   0.217  0.00  0.00    +0.277 C 
ENDBRANCH   8  25
BRANCH   5  27
ATOM     27  O   UNL     1       3.283   1.963  -0.332  0.00  0.00    -0.493 OA
ATOM     28  C   UNL     1       3.077   3.375  -0.401  0.00  0.00    +0.277 C 
ENDBRANCH   5  27
BRANCH   1  29
ATOM     29  C   UNL     1       5.896  -2.611  -0.244  0.00  0.00    +0.114 C 
BRANCH  29  30
ATOM     30  C   UNL     1       6.533  -2.508   1.143  0.00  0.00    +0.001 C 
BRANCH  30  31
ATOM     31  C   UNL     1       7.956  -1.960   1.011  0.00  0.00    -0.078 C 
BRANCH  31  34
ATOM     32  C   UNL     1       8.758  -3.191   2.936  0.00  0.00    -0.097 C 
ATOM     33  C   UNL     1       9.836  -1.123   2.286  0.00  0.00    -0.097 C 
ATOM     34  N   UNL     1       8.550  -1.846   2.360  0.00  0.00    +0.376 N 
ATOM     35  H   UNL     1       7.906  -1.321   2.964  0.00  0.00    -0.083 HD
ENDBRANCH  31  34
ENDBRANCH  30  31
ENDBRANCH  29  30
ENDBRANCH   1  29
TORSDOF 8
