REMARK  Name = ZINC40780065
REMARK  4 active torsions:
REMARK  status: ('A' for Active; 'I' for Inactive)
REMARK    1  A    between atoms: C_9  and  S_11
REMARK    2  A    between atoms: S_11  and  C_12
REMARK    3  A    between atoms: C_13  and  N_26
REMARK    4  A    between atoms: C_14  and  N_18
REMARK                            x       y       z     vdW  Elec       q    Type
REMARK                         _______ _______ _______ _____ _____    ______ ____
ROOT
ATOM      1  C   UNL     1      -0.498  -2.892   0.123  0.00  0.00    +0.127 A 
ATOM      2  C   UNL     1      -0.879  -4.228   0.270  0.00  0.00    +0.098 A 
ATOM      3  C   UNL     1      -2.239  -4.515   0.399  0.00  0.00    +0.149 A 
ATOM      4  N   UNL     1      -3.114  -3.513   0.378  0.00  0.00    -0.219 NA
ATOM      5  C   UNL     1      -2.713  -2.265   0.237  0.00  0.00    +0.224 A 
ATOM      6  N   UNL     1      -1.439  -1.950   0.117  0.00  0.00    -0.227 NA
ENDROOT
BRANCH   3   7
ATOM      7  N   UNL     1      -2.672  -5.829   0.548  0.00  0.00    -0.283 N 
ATOM      8  C   UNL     1      -4.035  -6.114   0.567  0.00  0.00    +0.124 A 
ATOM      9  C   UNL     1      -4.461  -7.437   0.605  0.00  0.00    +0.045 A 
ATOM     10  C   UNL     1      -5.818  -7.707   0.624  0.00  0.00    +0.020 A 
ATOM     11  C   UNL     1      -6.706  -6.638   0.605  0.00  0.00    +0.036 A 
ATOM     12  C   UNL     1      -6.212  -5.349   0.567  0.00  0.00    +0.128 A 
ATOM     13  N   UNL     1      -4.912  -5.122   0.554  0.00  0.00    -0.239 NA
ATOM     14 BR   UNL     1      -8.572  -6.947   0.629  0.00  0.00    -0.049 Br
ATOM     15  H   UNL     1      -2.026  -6.546   0.638  0.00  0.00    +0.155 HD
ENDBRANCH   3   7
BRANCH   2  16
ATOM     16  N   UNL     1       0.079  -5.254   0.286  0.00  0.00    -0.353 N 
ATOM     17  H   UNL     1       1.021  -5.039   0.195  0.00  0.00    +0.142 HD
ATOM     18  H   UNL     1      -0.200  -6.177   0.389  0.00  0.00    +0.142 HD
ENDBRANCH   2  16
BRANCH   1  19
ATOM     19  S   UNL     1       1.202  -2.460  -0.046  0.00  0.00    -0.066 S 
BRANCH  19  28
ATOM     20  C   UNL     1       1.593   1.395   1.072  0.00  0.00    +0.002 A 
ATOM     21  C   UNL     1       1.198   2.101  -0.024  0.00  0.00    +0.010 A 
ATOM     22  C   UNL     1       0.784   1.424  -1.182  0.00  0.00    +0.001 A 
ATOM     23  C   UNL     1       0.370   2.125  -2.331  0.00  0.00    +0.011 A 
ATOM     24  C   UNL     1      -0.020   1.401  -3.422  0.00  0.00    +0.020 A 
ATOM     25  C   UNL     1       0.000   0.009  -3.376  0.00  0.00    +0.111 A 
ATOM     26  N   UNL     1       0.386  -0.640  -2.304  0.00  0.00    -0.254 NA
ATOM     27  C   UNL     1       0.780   0.008  -1.204  0.00  0.00    +0.085 A 
ATOM     28  C   UNL     1       1.195  -0.698  -0.053  0.00  0.00    +0.040 A 
ATOM     29  C   UNL     1       1.595   0.004   1.065  0.00  0.00    +0.017 A 
ENDBRANCH  19  28
ENDBRANCH   1  19
TORSDOF 4
