REMARK  Name = ZINC09120421
REMARK  12 active torsions:
REMARK  status: ('A' for Active; 'I' for Inactive)
REMARK    1  A    between atoms: C_1  and  C_2
REMARK    2  A    between atoms: C_2  and  N_3
REMARK    3  A    between atoms: N_3  and  C_4
REMARK    4  A    between atoms: C_7  and  S_24
REMARK    5  A    between atoms: C_9  and  N_10
REMARK    6  A    between atoms: N_10  and  C_11
REMARK    7  A    between atoms: C_11  and  C_12
REMARK    8  A    between atoms: N_14  and  C_15
REMARK    9  A    between atoms: C_19  and  C_22
REMARK   10  A    between atoms: S_24  and  N_27
REMARK   11  A    between atoms: N_27  and  C_28
REMARK   12  A    between atoms: N_27  and  C_29
REMARK                            x       y       z     vdW  Elec       q    Type
REMARK                         _______ _______ _______ _____ _____    ______ ____
ROOT
ATOM      1  C   UNL     1      -4.162  -3.530  -4.263  0.00  0.00    +0.048 A 
ATOM      2  C   UNL     1      -3.186  -4.456  -4.603  0.00  0.00    +0.027 A 
ATOM      3  C   UNL     1      -2.658  -5.290  -3.636  0.00  0.00    +0.030 A 
ATOM      4  C   UNL     1      -3.098  -5.206  -2.328  0.00  0.00    +0.107 A 
ATOM      5  C   UNL     1      -4.071  -4.287  -1.980  0.00  0.00    +0.053 A 
ATOM      6  C   UNL     1      -4.602  -3.441  -2.942  0.00  0.00    +0.051 A 
ENDROOT
BRANCH   4   7
ATOM      7  S   UNL     1      -2.419  -6.273  -1.101  0.00  0.00    +0.060 S 
ATOM      8  O   UNL     1      -3.388  -6.370  -0.066  0.00  0.00    -0.153 OA
ATOM      9  O   UNL     1      -1.920  -7.413  -1.787  0.00  0.00    -0.153 OA
BRANCH   7  10
ATOM     10  N   UNL     1      -1.107  -5.500  -0.451  0.00  0.00    -0.183 NA
ATOM     11  C   UNL     1      -1.275  -4.626   0.713  0.00  0.00    +0.131 C 
ATOM     12  C   UNL     1       0.221  -5.689  -1.040  0.00  0.00    +0.131 C 
ENDBRANCH   7  10
ENDBRANCH   4   7
BRANCH   1  13
ATOM     13  N   UNL     1      -4.699  -2.684  -5.241  0.00  0.00    -0.343 N 
ATOM     14  H   UNL     1      -5.381  -2.038  -5.001  0.00  0.00    +0.146 HD
BRANCH  13  16
ATOM     15  C   UNL     1      -4.972  -1.749  -7.484  0.00  0.00    +0.024 C 
ATOM     16  C   UNL     1      -4.230  -2.776  -6.626  0.00  0.00    +0.098 C 
ENDBRANCH  13  16
ENDBRANCH   1  13
BRANCH   6  17
ATOM     17  N   UNL     1      -5.582  -2.505  -2.591  0.00  0.00    -0.334 N 
ATOM     18  H   UNL     1      -5.956  -1.918  -3.266  0.00  0.00    +0.147 HD
BRANCH  17  19
ATOM     19  C   UNL     1      -6.043  -2.413  -1.204  0.00  0.00    +0.198 C 
BRANCH  19  20
ATOM     20  C   UNL     1      -7.092  -1.337  -1.093  0.00  0.00    +0.234 C 
ATOM     21  O   UNL     1      -7.422  -0.708  -2.076  0.00  0.00    -0.274 OA
ATOM     22  N   UNL     1      -7.663  -1.072   0.099  0.00  0.00    -0.282 N 
ATOM     23  H   UNL     1      -7.454  -1.623   0.870  0.00  0.00    +0.155 HD
BRANCH  22  24
ATOM     24  C   UNL     1      -8.559  -0.004   0.224  0.00  0.00    +0.071 A 
ATOM     25  C   UNL     1      -8.090   1.265   0.543  0.00  0.00    +0.064 A 
ATOM     26  C   UNL     1      -8.977   2.318   0.662  0.00  0.00    +0.022 A 
ATOM     27  C   UNL     1     -10.331   2.109   0.472  0.00  0.00    +0.006 A 
ATOM     28  C   UNL     1     -10.802   0.848   0.160  0.00  0.00    -0.030 A 
ATOM     29  C   UNL     1      -9.920  -0.210   0.035  0.00  0.00    +0.066 A 
ATOM     30 CL   UNL     1     -10.513  -1.794  -0.357  0.00  0.00    -0.081 Cl
ATOM     31  C   UNL     1     -12.278   0.625  -0.045  0.00  0.00    +0.045 C 
ATOM     32 CL   UNL     1      -6.391   1.527   0.787  0.00  0.00    -0.082 Cl
ENDBRANCH  22  24
ENDBRANCH  19  20
ENDBRANCH  17  19
ENDBRANCH   6  17
TORSDOF 8
