REMARK  Name = ZINC27025236
REMARK  7 active torsions:
REMARK  status: ('A' for Active; 'I' for Inactive)
REMARK    1  A    between atoms: C_3  and  C_6
REMARK    2  A    between atoms: C_6  and  C_8
REMARK    3  A    between atoms: C_8  and  N_10
REMARK    4  A    between atoms: C_8  and  N_23
REMARK    5  A    between atoms: N_10  and  C_11
REMARK    6  A    between atoms: C_12  and  C_20
REMARK    7  A    between atoms: C_24  and  C_26
REMARK                            x       y       z     vdW  Elec       q    Type
REMARK                         _______ _______ _______ _____ _____    ______ ____
ROOT
ATOM      1  C   UNL     1      -1.892   5.557   0.049  0.00  0.00    +0.232 C 
ENDROOT
BRANCH   1   2
ATOM      2  N   UNL     1      -0.616   5.790   0.729  0.00  0.00    -0.287 N 
ATOM      3  C   UNL     1       0.291   6.628   0.191  0.00  0.00    +0.246 C 
ATOM      4  O   UNL     1       0.051   7.191  -0.860  0.00  0.00    -0.270 OA
ATOM      5  H   UNL     1      -0.398   5.280   1.679  0.00  0.00    +0.151 HD
BRANCH   3   6
ATOM      6  C   UNL     1       1.579   6.863   0.877  0.00  0.00    +0.037 A 
ATOM      7  C   UNL     1       1.856   6.223   2.086  0.00  0.00    +0.014 A 
ATOM      8  C   UNL     1       3.062   6.441   2.718  0.00  0.00    +0.021 A 
ATOM      9  C   UNL     1       3.992   7.303   2.163  0.00  0.00    +0.041 A 
ATOM     10  C   UNL     1       3.721   7.947   0.967  0.00  0.00    +0.021 A 
ATOM     11  C   UNL     1       2.521   7.731   0.322  0.00  0.00    +0.014 A 
ATOM     12 CL   UNL     1       5.505   7.579   2.969  0.00  0.00    -0.084 Cl
ENDBRANCH   3   6
ENDBRANCH   1   2
BRANCH   1  13
ATOM     13  C   UNL     1      -2.197   4.081   0.043  0.00  0.00    +0.208 C 
ATOM     14  O   UNL     1      -3.349   3.699   0.052  0.00  0.00    -0.288 OA
BRANCH  13  17
ATOM     15  C   UNL     1      -0.013   1.076   0.008  0.00  0.00    +0.008 A 
ATOM     16  C   UNL     1      -1.204   1.752   0.017  0.00  0.00    +0.019 A 
ATOM     17  C   UNL     1      -1.141   3.142   0.029  0.00  0.00    +0.058 A 
ATOM     18  S   UNL     1       0.619   3.429   0.014  0.00  0.00    -0.094 S 
ATOM     19  C   UNL     1       1.152   1.780   0.001  0.00  0.00    +0.046 A 
ENDBRANCH  13  17
ENDBRANCH   1  13
BRANCH   1  20
ATOM     20  N   UNL     1      -2.959   6.273   0.753  0.00  0.00    -0.314 N 
ATOM     21  H   UNL     1      -3.342   5.887   1.709  0.00  0.00    +0.149 HD
BRANCH  20  22
ATOM     22  C   UNL     1      -3.484   7.433   0.215  0.00  0.00    +0.080 A 
ATOM     23  C   UNL     1      -4.492   8.241   0.725  0.00  0.00    +0.068 A 
ATOM     24  C   UNL     1      -4.858   9.421  -0.042  0.00  0.00    -0.023 A 
ATOM     25  C   UNL     1      -4.172   9.595  -1.191  0.00  0.00    -0.005 A 
ATOM     26  S   UNL     1      -3.050   8.228  -1.262  0.00  0.00    -0.078 S 
ATOM     27  C   UNL     1      -4.336  10.707  -2.182  0.00  0.00    +0.043 C 
ATOM     28  C   UNL     1      -5.662  11.425  -1.888  0.00  0.00    +0.005 C 
ATOM     29  C   UNL     1      -5.744  11.714  -0.386  0.00  0.00    +0.005 C 
ATOM     30  C   UNL     1      -5.938  10.408   0.385  0.00  0.00    +0.037 C 
BRANCH  23  31
ATOM     31  C   UNL     1      -5.157   7.920   1.990  0.00  0.00    +0.244 C 
ATOM     32  O   UNL     1      -4.715   8.354   3.038  0.00  0.00    -0.270 OA
ATOM     33  N   UNL     1      -6.259   7.144   1.993  0.00  0.00    -0.325 N 
ATOM     34  H   UNL     1      -6.759   6.903   2.943  0.00  0.00    +0.145 HD
ATOM     35  H   UNL     1      -6.659   6.752   1.046  0.00  0.00    +0.145 HD
ENDBRANCH  23  31
ENDBRANCH  20  22
ENDBRANCH   1  20
TORSDOF 7
