REMARK  Name = ZINC21981911
REMARK  10 active torsions:
REMARK  status: ('A' for Active; 'I' for Inactive)
REMARK    1  A    between atoms: C_1  and  C_2
REMARK    2  A    between atoms: C_2  and  N_3
REMARK    3  A    between atoms: N_3  and  C_4
REMARK    4  A    between atoms: C_5  and  N_20
REMARK    5  A    between atoms: N_6  and  C_13
REMARK    6  A    between atoms: C_13  and  C_14
REMARK    7  A    between atoms: C_21  and  C_23
REMARK    8  A    between atoms: C_23  and  O_24
REMARK    9  A    between atoms: O_24  and  C_25
REMARK   10  A    between atoms: C_25  and  C_27
REMARK                            x       y       z     vdW  Elec       q    Type
REMARK                         _______ _______ _______ _____ _____    ______ ____
ROOT
ATOM      1  C   UNL     1       9.228   2.241  -0.065  0.00  0.00    +0.140 A 
ATOM      2  C   UNL     1       8.728   3.526  -0.110  0.00  0.00    +0.128 A 
ATOM      3  N   UNL     1       9.603   4.584  -0.200  0.00  0.00    -0.276 N 
ATOM      4  C   UNL     1      10.930   4.367  -0.255  0.00  0.00    +0.331 A 
ATOM      5  O   UNL     1      11.687   5.315  -0.340  0.00  0.00    -0.246 OA
ATOM      6  N   UNL     1      11.434   3.121  -0.217  0.00  0.00    -0.273 N 
ATOM      7  H   UNL     1      12.523   2.967  -0.262  0.00  0.00    +0.173 HD
ATOM      8  C   UNL     1      10.621   2.051  -0.123  0.00  0.00    +0.277 A 
ATOM      9  O   UNL     1      11.089   0.925  -0.089  0.00  0.00    -0.266 OA
ENDROOT
BRANCH   1  10
ATOM     10  N   UNL     1       8.356   1.135   0.033  0.00  0.00    -0.262 N 
ATOM     11  C   UNL     1       7.575   0.987   1.123  0.00  0.00    +0.258 C 
ATOM     12  O   UNL     1       7.681   1.756   2.055  0.00  0.00    -0.272 OA
BRANCH  10  14
ATOM     13  C   UNL     1       7.271   0.592  -2.090  0.00  0.00    +0.025 C 
ATOM     14  C   UNL     1       8.300   0.149  -1.048  0.00  0.00    +0.110 C 
ENDBRANCH  10  14
BRANCH  11  15
ATOM     15  C   UNL     1       6.570  -0.135   1.183  0.00  0.00    +0.328 C 
BRANCH  15  16
ATOM     16  O   UNL     1       5.870  -0.082   2.427  0.00  0.00    -0.451 OA
BRANCH  16  17
ATOM     17  C   UNL     1       4.928  -1.024   2.641  0.00  0.00    +0.346 C 
ATOM     18  O   UNL     1       4.708  -1.867   1.792  0.00  0.00    -0.244 OA
BRANCH  17  19
ATOM     19  C   UNL     1       4.171  -1.031   3.892  0.00  0.00    +0.098 A 
ATOM     20  C   UNL     1       3.172  -1.900   4.306  0.00  0.00    +0.024 A 
ATOM     21  C   UNL     1       2.623  -1.679   5.542  0.00  0.00    +0.028 A 
ATOM     22  C   UNL     1       3.074  -0.636   6.292  0.00  0.00    +0.079 A 
ATOM     23  S   UNL     1       4.293   0.077   5.286  0.00  0.00    -0.070 S 
ATOM     24 CL   UNL     1       2.551  -0.137   7.870  0.00  0.00    -0.076 Cl
ENDBRANCH  17  19
ENDBRANCH  16  17
ENDBRANCH  15  16
ENDBRANCH  11  15
ENDBRANCH   1  10
BRANCH   2  25
ATOM     25  N   UNL     1       7.373   3.748  -0.062  0.00  0.00    -0.343 N 
ATOM     26  H   UNL     1       6.982   4.775  -0.098  0.00  0.00    +0.144 HD
ATOM     27  H   UNL     1       6.679   2.897   0.014  0.00  0.00    +0.144 HD
ENDBRANCH   2  25
BRANCH   3  28
ATOM     28  C   UNL     1       9.087   5.954  -0.244  0.00  0.00    +0.163 C 
BRANCH  28  29
ATOM     29  C   UNL     1       8.840   6.353  -1.676  0.00  0.00    -0.028 A 
ATOM     30  C   UNL     1       9.844   6.960  -2.407  0.00  0.00    +0.005 A 
ATOM     31  C   UNL     1       9.619   7.322  -3.722  0.00  0.00    +0.000 A 
ATOM     32  C   UNL     1       8.387   7.085  -4.303  0.00  0.00    +0.000 A 
ATOM     33  C   UNL     1       7.382   6.483  -3.570  0.00  0.00    +0.000 A 
ATOM     34  C   UNL     1       7.608   6.117  -2.256  0.00  0.00    +0.005 A 
ENDBRANCH  28  29
ENDBRANCH   3  28
TORSDOF 9
