REMARK  Name = ZINC06133873
REMARK  11 active torsions:
REMARK  status: ('A' for Active; 'I' for Inactive)
REMARK    1  A    between atoms: C_1  and  C_2
REMARK    2  A    between atoms: C_2  and  O_3
REMARK    3  A    between atoms: O_3  and  C_4
REMARK    4  A    between atoms: C_11  and  C_16
REMARK    5  A    between atoms: C_16  and  C_18
REMARK    6  A    between atoms: C_16  and  N_70
REMARK    7  A    between atoms: N_22  and  C_23
REMARK    8  A    between atoms: C_28  and  C_29
REMARK    9  A    between atoms: C_28  and  N_70
REMARK   10  A    between atoms: C_35  and  C_36
REMARK   11  A    between atoms: C_35  and  N_70
REMARK                            x       y       z     vdW  Elec       q    Type
REMARK                         _______ _______ _______ _____ _____    ______ ____
ROOT
ATOM      1  C   UNL     1       2.893  -0.552   0.189  0.00  0.00    +0.040 C 
ENDROOT
BRANCH   1   9
ATOM      2  C   UNL     1       0.624  -3.147   5.341  0.00  0.00    +0.121 A 
ATOM      3  C   UNL     1       1.848  -3.284   5.992  0.00  0.00    +0.047 A 
ATOM      4  C   UNL     1       3.014  -2.866   5.389  0.00  0.00    +0.030 A 
ATOM      5  C   UNL     1       2.975  -2.302   4.118  0.00  0.00    +0.049 A 
ATOM      6  C   UNL     1       1.740  -2.162   3.457  0.00  0.00    +0.002 A 
ATOM      7  C   UNL     1       0.563  -2.590   4.080  0.00  0.00    +0.055 A 
ATOM      8  C   UNL     1       1.714  -1.566   2.120  0.00  0.00    +0.017 A 
ATOM      9  C   UNL     1       2.885  -1.169   1.564  0.00  0.00    +0.011 A 
ATOM     10  C   UNL     1       4.098  -1.337   2.266  0.00  0.00    +0.251 A 
ATOM     11  O   UNL     1       5.141  -0.978   1.746  0.00  0.00    -0.268 OA
ATOM     12  N   UNL     1       4.132  -1.877   3.497  0.00  0.00    -0.322 N 
ATOM     13  H   UNL     1       5.008  -1.973   3.969  0.00  0.00    +0.169 HD
BRANCH   2  14
ATOM     14  O   UNL     1      -0.517  -3.565   5.952  0.00  0.00    -0.492 OA
BRANCH  14  16
ATOM     15  C   UNL     1      -1.764  -4.541   7.778  0.00  0.00    +0.048 C 
ATOM     16  C   UNL     1      -0.384  -4.133   7.256  0.00  0.00    +0.225 C 
ENDBRANCH  14  16
ENDBRANCH   2  14
ENDBRANCH   1   9
BRANCH   1  17
ATOM     17  C   UNL     1       3.334   0.885   0.286  0.00  0.00    +0.143 A 
ATOM     18  N   UNL     1       4.567   1.330   0.257  0.00  0.00    -0.115 NA
ATOM     19  N   UNL     1       4.530   2.613   0.366  0.00  0.00    -0.023 NA
ATOM     20  N   UNL     1       3.306   2.999   0.459  0.00  0.00    -0.044 NA
ATOM     21  N   UNL     1       2.538   1.963   0.419  0.00  0.00    -0.227 N 
BRANCH  21  22
ATOM     22  C   UNL     1       1.075   1.960   0.498  0.00  0.00    +0.111 C 
ATOM     23  C   UNL     1       0.619   2.506   1.867  0.00  0.00    +0.027 C 
ATOM     24  C   UNL     1       0.330   4.005   1.599  0.00  0.00    +0.002 C 
ATOM     25  C   UNL     1      -0.306   3.984   0.187  0.00  0.00    +0.002 C 
ATOM     26  C   UNL     1       0.488   2.899  -0.569  0.00  0.00    +0.027 C 
ENDBRANCH  21  22
ENDBRANCH   1  17
BRANCH   1  27
ATOM     27  N   UNL     1       3.849  -1.291  -0.662  0.00  0.00    +0.397 N 
ATOM     28  H   UNL     1       4.784  -1.235  -0.241  0.00  0.00    -0.079 HD
BRANCH  27  29
ATOM     29  C   UNL     1       3.449  -2.711  -0.757  0.00  0.00    -0.039 C 
BRANCH  29  30
ATOM     30  C   UNL     1       4.596  -3.500  -1.334  0.00  0.00    -0.046 A 
ATOM     31  C   UNL     1       4.703  -3.681  -2.705  0.00  0.00    +0.005 A 
ATOM     32  C   UNL     1       5.777  -4.410  -3.192  0.00  0.00    +0.020 A 
ATOM     33  C   UNL     1       6.693  -4.936  -2.301  0.00  0.00    +0.111 A 
ATOM     34  N   UNL     1       6.557  -4.748  -1.003  0.00  0.00    -0.263 NA
ATOM     35  C   UNL     1       5.550  -4.056  -0.505  0.00  0.00    +0.112 A 
ENDBRANCH  29  30
ENDBRANCH  27  29
BRANCH  27  36
ATOM     36  C   UNL     1       3.894  -0.688  -2.011  0.00  0.00    -0.001 C 
BRANCH  36  37
ATOM     37  C   UNL     1       2.539  -0.760  -2.668  0.00  0.00    +0.089 A 
ATOM     38  C   UNL     1       1.595   0.197  -2.630  0.00  0.00    +0.042 A 
ATOM     39  C   UNL     1       0.493  -0.285  -3.372  0.00  0.00    +0.041 A 
ATOM     40  C   UNL     1       0.829  -1.508  -3.819  0.00  0.00    +0.195 A 
ATOM     41  O   UNL     1       2.072  -1.788  -3.394  0.00  0.00    -0.470 OA
ENDBRANCH  36  37
ENDBRANCH  27  36
ENDBRANCH   1  27
TORSDOF 10
