REMARK  Name = ZINC65490316
REMARK  10 active torsions:
REMARK  status: ('A' for Active; 'I' for Inactive)
REMARK    1  A    between atoms: C_1  and  C_2
REMARK    2  A    between atoms: C_2  and  C_3
REMARK    3  A    between atoms: C_3  and  C_4
REMARK    4  A    between atoms: C_3  and  N_6
REMARK    5  A    between atoms: C_4  and  C_5
REMARK    6  A    between atoms: C_7  and  C_9
REMARK    7  A    between atoms: C_9  and  N_10
REMARK    8  A    between atoms: C_11  and  C_13
REMARK    9  A    between atoms: C_14  and  N_20
REMARK   10  A    between atoms: N_15  and  C_19
REMARK                            x       y       z     vdW  Elec       q    Type
REMARK                         _______ _______ _______ _____ _____    ______ ____
ROOT
ATOM      1  N   UNL     1       4.106   2.893   2.067  0.00  0.00    -0.303 N 
ATOM      2  C   UNL     1       5.320   3.479   2.103  0.00  0.00    +0.250 C 
ATOM      3  O   UNL     1       6.297   2.880   1.694  0.00  0.00    -0.270 OA
ATOM      4  H   UNL     1       3.327   3.370   2.393  0.00  0.00    +0.150 HD
ENDROOT
BRANCH   2   5
ATOM      5  C   UNL     1       5.462   4.839   2.635  0.00  0.00    +0.110 A 
ATOM      6  C   UNL     1       5.720   5.189   3.959  0.00  0.00    +0.127 A 
ATOM      7  N   UNL     1       5.773   6.535   4.011  0.00  0.00    -0.252 N 
ATOM      8  N   UNL     1       5.549   7.039   2.725  0.00  0.00    -0.162 NA
ATOM      9  C   UNL     1       5.369   6.045   1.900  0.00  0.00    +0.142 A 
ATOM     10 BR   UNL     1       5.037   6.191   0.044  0.00  0.00    -0.026 Br
ATOM     11  C   UNL     1       6.023   7.336   5.212  0.00  0.00    +0.174 C 
BRANCH   6  12
ATOM     12  N   UNL     1       5.889   4.320   5.018  0.00  0.00    -0.343 N 
ATOM     13  H   UNL     1       5.831   3.363   4.874  0.00  0.00    +0.144 HD
ATOM     14  H   UNL     1       6.066   4.668   5.906  0.00  0.00    +0.144 HD
ENDBRANCH   6  12
ENDBRANCH   2   5
BRANCH   1  15
ATOM     15  C   UNL     1       3.964   1.535   1.536  0.00  0.00    +0.200 C 
BRANCH  15  17
ATOM     16  N   UNL     1       2.148  -0.104   1.172  0.00  0.00    -0.311 N 
ATOM     17  C   UNL     1       2.518   1.116   1.608  0.00  0.00    +0.230 C 
ATOM     18  O   UNL     1       1.688   1.877   2.059  0.00  0.00    -0.274 OA
ATOM     19  H   UNL     1       2.812  -0.712   0.811  0.00  0.00    +0.149 HD
BRANCH  16  20
ATOM     20  C   UNL     1       0.742  -0.511   1.242  0.00  0.00    +0.072 C 
BRANCH  20  22
ATOM     21  C   UNL     1      -0.019   1.526   0.010  0.00  0.00    +0.006 C 
ATOM     22  C   UNL     1       0.002  -0.004   0.002  0.00  0.00    +0.019 C 
ENDBRANCH  20  22
BRANCH  20  23
ATOM     23  C   UNL     1       0.655  -2.037   1.299  0.00  0.00    +0.019 C 
ATOM     24  C   UNL     1       1.286  -2.536   2.600  0.00  0.00    +0.006 C 
ENDBRANCH  20  23
ENDBRANCH  16  20
ENDBRANCH  15  17
ENDBRANCH   1  15
TORSDOF 7
