REMARK  Name = ZINC33587856
REMARK  6 active torsions:
REMARK  status: ('A' for Active; 'I' for Inactive)
REMARK    1  A    between atoms: C_2  and  C_12
REMARK    2  A    between atoms: C_4  and  C_6
REMARK    3  A    between atoms: N_14  and  C_15
REMARK    4  A    between atoms: C_15  and  C_17
REMARK    5  A    between atoms: C_15  and  C_24
REMARK    6  A    between atoms: C_17  and  C_18
REMARK                            x       y       z     vdW  Elec       q    Type
REMARK                         _______ _______ _______ _____ _____    ______ ____
ROOT
ATOM      1  C   UNL     1      -5.185  -1.327  -2.292  0.00  0.00    +0.264 C 
ATOM      2  O   UNL     1      -6.179  -0.865  -1.765  0.00  0.00    -0.268 OA
ATOM      3  N   UNL     1      -4.198  -0.506  -2.702  0.00  0.00    -0.299 N 
ATOM      4  H   UNL     1      -3.298  -0.924  -3.179  0.00  0.00    +0.150 HD
ENDROOT
BRANCH   1   6
ATOM      5  C   UNL     1      -6.050  -3.639  -2.072  0.00  0.00    +0.079 A 
ATOM      6  C   UNL     1      -5.060  -2.782  -2.480  0.00  0.00    +0.133 A 
ATOM      7  N   UNL     1      -3.983  -3.314  -3.059  0.00  0.00    -0.241 NA
ATOM      8  C   UNL     1      -3.895  -4.610  -3.209  0.00  0.00    +0.065 A 
ATOM      9  S   UNL     1      -5.387  -5.176  -2.531  0.00  0.00    -0.081 S 
BRANCH   8  10
ATOM     10  C   UNL     1      -2.778  -5.412  -3.825  0.00  0.00    -0.015 C 
ATOM     11  C   UNL     1      -1.968  -6.117  -2.721  0.00  0.00    -0.011 C 
ATOM     12  C   UNL     1      -2.078  -7.626  -3.040  0.00  0.00    -0.020 C 
ATOM     13  C   UNL     1      -2.429  -7.636  -4.549  0.00  0.00    -0.082 C 
ATOM     14  N   UNL     1      -3.337  -6.470  -4.695  0.00  0.00    +0.385 N 
ATOM     15  H   UNL     1      -4.358  -6.715  -4.365  0.00  0.00    -0.085 HD
ATOM     16  H   UNL     1      -3.364  -6.113  -5.735  0.00  0.00    -0.085 HD
ENDBRANCH   8  10
ENDBRANCH   1   6
BRANCH   3  17
ATOM     17  C   UNL     1      -4.322   0.941  -2.515  0.00  0.00    +0.159 C 
BRANCH  17  18
ATOM     18  C   UNL     1      -5.095   1.532  -3.665  0.00  0.00    +0.231 C 
ATOM     19  O   UNL     1      -5.502   0.815  -4.554  0.00  0.00    -0.274 OA
ATOM     20  N   UNL     1      -5.334   2.858  -3.706  0.00  0.00    -0.328 N 
ATOM     21  H   UNL     1      -5.898   3.290  -4.546  0.00  0.00    +0.145 HD
ATOM     22  H   UNL     1      -4.965   3.509  -2.900  0.00  0.00    +0.145 HD
ENDBRANCH  17  18
BRANCH  17  23
ATOM     23  C   UNL     1      -2.928   1.570  -2.460  0.00  0.00    +0.035 C 
BRANCH  23  24
ATOM     24  C   UNL     1      -2.188   1.063  -1.221  0.00  0.00    -0.009 C 
ATOM     25  C   UNL     1      -0.753   1.593  -1.232  0.00  0.00    +0.003 C 
ATOM     26  C   UNL     1      -0.013   1.086   0.008  0.00  0.00    +0.000 C 
ATOM     27  C   UNL     1      -0.729   1.579   1.267  0.00  0.00    +0.000 C 
ATOM     28  C   UNL     1      -2.164   1.050   1.278  0.00  0.00    +0.000 C 
ATOM     29  C   UNL     1      -2.904   1.556   0.038  0.00  0.00    +0.003 C 
ENDBRANCH  23  24
ENDBRANCH  17  23
ENDBRANCH   3  17
TORSDOF 6
