REMARK  Name = ZINC59447309
REMARK  6 active torsions:
REMARK  status: ('A' for Active; 'I' for Inactive)
REMARK    1  A    between atoms: C_1  and  O_2
REMARK    2  A    between atoms: O_2  and  C_3
REMARK    3  A    between atoms: C_4  and  C_11
REMARK    4  A    between atoms: N_12  and  N_13
REMARK    5  A    between atoms: C_14  and  C_16
REMARK    6  A    between atoms: C_21  and  O_22
REMARK                            x       y       z     vdW  Elec       q    Type
REMARK                         _______ _______ _______ _____ _____    ______ ____
ROOT
ATOM      1  N   UNL     1       2.903   0.363  -2.385  0.00  0.00    -0.203 N 
ATOM      2  C   UNL     1       2.290   0.972  -3.420  0.00  0.00    +0.267 C 
ATOM      3  O   UNL     1       1.103   1.230  -3.357  0.00  0.00    -0.268 OA
ATOM      4  H   UNL     1       3.849   0.157  -2.434  0.00  0.00    +0.178 HD
ENDROOT
BRANCH   2   5
ATOM      5  C   UNL     1       3.060   1.326  -4.627  0.00  0.00    +0.081 A 
ATOM      6  C   UNL     1       4.422   1.026  -4.705  0.00  0.00    +0.036 A 
ATOM      7  C   UNL     1       5.135   1.360  -5.837  0.00  0.00    +0.042 A 
ATOM      8  C   UNL     1       4.506   1.992  -6.899  0.00  0.00    +0.023 A 
ATOM      9  C   UNL     1       3.160   2.293  -6.834  0.00  0.00    +0.047 A 
ATOM     10  C   UNL     1       2.427   1.959  -5.705  0.00  0.00    +0.129 A 
ATOM     11 CL   UNL     1       6.828   0.988  -5.933  0.00  0.00    -0.084 Cl
BRANCH  10  12
ATOM     12  O   UNL     1       1.103   2.249  -5.643  0.00  0.00    -0.506 OA
ATOM     13  H   UNL     1       0.908   3.121  -5.273  0.00  0.00    +0.292 HD
ENDBRANCH  10  12
ENDBRANCH   2   5
BRANCH   1  15
ATOM     14  C   UNL     1       2.762  -0.560  -0.241  0.00  0.00    +0.142 C 
ATOM     15  N   UNL     1       2.172   0.027  -1.238  0.00  0.00    -0.187 NA
BRANCH  14  17
ATOM     16  C   UNL     1       0.626  -0.618   1.041  0.00  0.00    +0.147 A 
ATOM     17  C   UNL     1       1.994  -0.913   0.966  0.00  0.00    +0.039 A 
ATOM     18  C   UNL     1       2.624  -1.545   2.040  0.00  0.00    +0.033 A 
ATOM     19  C   UNL     1       1.899  -1.874   3.167  0.00  0.00    +0.043 A 
ATOM     20  C   UNL     1       0.547  -1.581   3.237  0.00  0.00    +0.043 A 
ATOM     21  C   UNL     1      -0.087  -0.950   2.182  0.00  0.00    +0.085 A 
ATOM     22 CL   UNL     1      -1.780  -0.580   2.285  0.00  0.00    -0.080 Cl
ATOM     23 CL   UNL     1       2.684  -2.659   4.502  0.00  0.00    -0.083 Cl
BRANCH  16  25
ATOM     24  C   UNL     1      -0.017   1.425   0.010  0.00  0.00    +0.277 C 
ATOM     25  O   UNL     1       0.002  -0.004   0.002  0.00  0.00    -0.493 OA
ENDBRANCH  16  25
ENDBRANCH  14  17
ENDBRANCH   1  15
TORSDOF 5
