REMARK  Name = ZINC50769731
REMARK  5 active torsions:
REMARK  status: ('A' for Active; 'I' for Inactive)
REMARK    1  A    between atoms: C_1  and  C_2
REMARK    2  A    between atoms: C_2  and  C_3
REMARK    3  A    between atoms: C_3  and  N_4
REMARK    4  A    between atoms: N_4  and  C_5
REMARK    5  A    between atoms: C_8  and  C_11
REMARK                            x       y       z     vdW  Elec       q    Type
REMARK                         _______ _______ _______ _____ _____    ______ ____
ROOT
ATOM      1  C   UNL     1      -2.608  -2.710   0.012  0.00  0.00    +0.027 A 
ATOM      2  C   UNL     1      -3.822  -2.029   0.022  0.00  0.00    +0.023 A 
ATOM      3  C   UNL     1      -5.006  -2.730   0.029  0.00  0.00    +0.015 A 
ATOM      4  C   UNL     1      -4.989  -4.128   0.028  0.00  0.00    +0.037 A 
ATOM      5  C   UNL     1      -3.768  -4.809   0.018  0.00  0.00    +0.015 A 
ATOM      6  C   UNL     1      -2.587  -4.102   0.005  0.00  0.00    +0.023 A 
ENDROOT
BRANCH   4   7
ATOM      7  C   UNL     1      -6.256  -4.883   0.036  0.00  0.00    +0.250 C 
ATOM      8  O   UNL     1      -7.317  -4.289   0.045  0.00  0.00    -0.270 OA
ATOM      9  N   UNL     1      -6.238  -6.231   0.034  0.00  0.00    -0.261 N 
ATOM     10  C   UNL     1      -7.431  -6.941   0.042  0.00  0.00    +0.166 A 
ATOM     11  N   UNL     1      -8.661  -6.474   0.046  0.00  0.00    -0.232 NA
ATOM     12  C   UNL     1      -9.700  -7.288   0.053  0.00  0.00    +0.136 A 
ATOM     13  C   UNL     1      -9.440  -8.620   0.056  0.00  0.00    +0.076 A 
ATOM     14  S   UNL     1      -7.655  -8.610   0.042  0.00  0.00    -0.045 S 
ATOM     15 BR   UNL     1     -10.638 -10.083   0.066  0.00  0.00    -0.041 Br
ATOM     16  H   UNL     1      -5.391  -6.704   0.027  0.00  0.00    +0.157 HD
ENDBRANCH   4   7
BRANCH   1  17
ATOM     17  N   UNL     1      -1.413  -1.998   0.005  0.00  0.00    -0.344 N 
ATOM     18  H   UNL     1      -0.567  -2.472  -0.006  0.00  0.00    +0.146 HD
BRANCH  17  19
ATOM     19  C   UNL     1      -1.433  -0.534   0.013  0.00  0.00    +0.101 C 
BRANCH  19  21
ATOM     20  C   UNL     1      -0.019   1.526   0.010  0.00  0.00    +0.005 C 
ATOM     21  C   UNL     1       0.002  -0.004   0.002  0.00  0.00    +0.015 C 
ENDBRANCH  19  21
ENDBRANCH  17  19
ENDBRANCH   1  17
TORSDOF 4
