REMARK  Name = ZINC39612155
REMARK  10 active torsions:
REMARK  status: ('A' for Active; 'I' for Inactive)
REMARK    1  A    between atoms: C_7  and  C_11
REMARK    2  A    between atoms: C_11  and  C_12
REMARK    3  A    between atoms: C_12  and  C_14
REMARK    4  A    between atoms: C_12  and  N_27
REMARK    5  A    between atoms: C_14  and  O_16
REMARK    6  A    between atoms: O_16  and  C_17
REMARK    7  A    between atoms: C_17  and  C_18
REMARK    8  A    between atoms: N_20  and  C_21
REMARK    9  A    between atoms: C_21  and  C_22
REMARK   10  A    between atoms: C_28  and  C_30
REMARK                            x       y       z     vdW  Elec       q    Type
REMARK                         _______ _______ _______ _____ _____    ______ ____
ROOT
ATOM      1  C   UNL     1       0.236  -3.589  -1.455  0.00  0.00    +0.186 C 
ENDROOT
BRANCH   1   2
ATOM      2  N   UNL     1      -0.550  -2.472  -1.985  0.00  0.00    -0.298 N 
ATOM      3  C   UNL     1      -1.694  -2.104  -1.375  0.00  0.00    +0.246 C 
ATOM      4  O   UNL     1      -2.074  -2.699  -0.385  0.00  0.00    -0.270 OA
ATOM      5  H   UNL     1      -0.247  -1.997  -2.775  0.00  0.00    +0.150 HD
BRANCH   3   6
ATOM      6  C   UNL     1      -2.486  -0.977  -1.909  0.00  0.00    +0.055 A 
ATOM      7  C   UNL     1      -2.056  -0.295  -3.049  0.00  0.00    +0.014 A 
ATOM      8  C   UNL     1      -2.800   0.756  -3.542  0.00  0.00    +0.001 A 
ATOM      9  C   UNL     1      -3.972   1.136  -2.911  0.00  0.00    +0.001 A 
ATOM     10  C   UNL     1      -4.405   0.466  -1.781  0.00  0.00    +0.021 A 
ATOM     11  C   UNL     1      -3.672  -0.592  -1.279  0.00  0.00    +0.053 A 
ATOM     12 CL   UNL     1      -4.221  -1.438   0.134  0.00  0.00    -0.083 Cl
ENDBRANCH   3   6
ENDBRANCH   1   2
BRANCH   1  13
ATOM     13  C   UNL     1      -0.602  -4.842  -1.466  0.00  0.00    +0.328 C 
ATOM     14  O   UNL     1      -1.806  -4.763  -1.519  0.00  0.00    -0.249 OA
BRANCH  13  15
ATOM     15  O   UNL     1      -0.010  -6.045  -1.416  0.00  0.00    -0.454 OA
BRANCH  15  16
ATOM     16  C   UNL     1      -0.865  -7.190  -1.429  0.00  0.00    +0.327 C 
BRANCH  16  17
ATOM     17  C   UNL     1      -0.029  -8.443  -1.368  0.00  0.00    +0.251 C 
ATOM     18  O   UNL     1       1.180  -8.363  -1.317  0.00  0.00    -0.272 OA
ATOM     19  N   UNL     1      -0.625  -9.651  -1.369  0.00  0.00    -0.308 N 
ATOM     20  H   UNL     1      -1.592  -9.715  -1.409  0.00  0.00    +0.149 HD
BRANCH  19  21
ATOM     21  C   UNL     1       0.188 -10.869  -1.309  0.00  0.00    +0.146 C 
BRANCH  21  22
ATOM     22  C   UNL     1      -0.714 -12.076  -1.323  0.00  0.00    +0.007 A 
ATOM     23  C   UNL     1      -1.176 -12.785  -2.383  0.00  0.00    +0.013 A 
ATOM     24  C   UNL     1      -2.001 -13.870  -2.156  0.00  0.00    +0.008 A 
ATOM     25  C   UNL     1      -2.325 -14.193  -0.880  0.00  0.00    +0.045 A 
ATOM     26  S   UNL     1      -1.446 -12.949   0.051  0.00  0.00    -0.100 S 
ENDBRANCH  21  22
ENDBRANCH  19  21
ENDBRANCH  16  17
ENDBRANCH  15  16
ENDBRANCH  13  15
ENDBRANCH   1  13
BRANCH   1  27
ATOM     27  C   UNL     1       0.666  -3.275  -0.021  0.00  0.00    +0.071 C 
BRANCH  27  34
ATOM     28  C   UNL     1      -0.017   1.362   0.009  0.00  0.00    +0.001 A 
ATOM     29  C   UNL     1       1.170   2.083   0.002  0.00  0.00    +0.002 A 
ATOM     30  C   UNL     1       2.386   1.436  -0.013  0.00  0.00    +0.026 A 
ATOM     31  C   UNL     1       2.428   0.046  -0.021  0.00  0.00    +0.047 A 
ATOM     32  C   UNL     1       1.223  -0.681  -0.013  0.00  0.00    +0.003 A 
ATOM     33  C   UNL     1       0.002  -0.004   0.002  0.00  0.00    +0.010 A 
ATOM     34  C   UNL     1       1.604  -2.095  -0.025  0.00  0.00    -0.020 A 
ATOM     35  C   UNL     1       2.945  -2.141  -0.038  0.00  0.00    +0.087 A 
ATOM     36  N   UNL     1       3.455  -0.871  -0.036  0.00  0.00    -0.360 N 
ATOM     37  H   UNL     1       4.399  -0.650  -0.044  0.00  0.00    +0.165 HD
ENDBRANCH  27  34
ENDBRANCH   1  27
TORSDOF 10
