REMARK  Name = ZINC08830338
REMARK  7 active torsions:
REMARK  status: ('A' for Active; 'I' for Inactive)
REMARK    1  A    between atoms: C_1  and  C_2
REMARK    2  A    between atoms: C_3  and  N_15
REMARK    3  A    between atoms: N_6  and  C_9
REMARK    4  A    between atoms: N_7  and  C_8
REMARK    5  A    between atoms: N_15  and  C_16
REMARK    6  A    between atoms: C_21  and  C_22
REMARK    7  A    between atoms: C_25  and  O_28
REMARK                            x       y       z     vdW  Elec       q    Type
REMARK                         _______ _______ _______ _____ _____    ______ ____
ROOT
ATOM      1  N   UNL     1       1.265   0.563  -1.743  0.00  0.00    -0.185 NA
ENDROOT
BRANCH   1   4
ATOM      2  C   UNL     1       1.864   2.674   0.401  0.00  0.00    +0.067 C 
ATOM      3  C   UNL     1       1.807   1.179   0.580  0.00  0.00    +0.061 A 
ATOM      4  C   UNL     1       1.540   0.278  -0.392  0.00  0.00    +0.142 A 
ATOM      5  C   UNL     1       1.588  -1.050   0.223  0.00  0.00    +0.295 A 
ATOM      6  O   UNL     1       1.399  -2.115  -0.336  0.00  0.00    -0.264 OA
ATOM      7  N   UNL     1       1.881  -0.868   1.528  0.00  0.00    -0.216 N 
ATOM      8  N   UNL     1       2.023   0.506   1.754  0.00  0.00    -0.282 N 
ATOM      9  C   UNL     1       2.349   1.125   3.041  0.00  0.00    +0.171 C 
BRANCH   7  10
ATOM     10  C   UNL     1       2.023  -1.877   2.485  0.00  0.00    +0.067 A 
ATOM     11  C   UNL     1       1.301  -1.818   3.671  0.00  0.00    +0.028 A 
ATOM     12  C   UNL     1       1.444  -2.816   4.615  0.00  0.00    +0.002 A 
ATOM     13  C   UNL     1       2.304  -3.873   4.381  0.00  0.00    +0.000 A 
ATOM     14  C   UNL     1       3.024  -3.935   3.202  0.00  0.00    +0.002 A 
ATOM     15  C   UNL     1       2.882  -2.943   2.251  0.00  0.00    +0.028 A 
ENDBRANCH   7  10
ENDBRANCH   1   4
BRANCH   1  16
ATOM     16  C   UNL     1       1.011  -0.457  -2.619  0.00  0.00    +0.176 C 
ATOM     17  N   UNL     1       0.975  -1.758  -2.378  0.00  0.00    -0.152 NA
ATOM     18  C   UNL     1       0.716  -2.642  -3.316  0.00  0.00    +0.276 C 
ATOM     19  O   UNL     1       0.685  -3.840  -3.081  0.00  0.00    -0.267 OA
ATOM     20  C   UNL     1       0.465  -2.106  -4.674  0.00  0.00    +0.079 C 
ATOM     21  C   UNL     1       0.176  -2.759  -5.827  0.00  0.00    +0.028 C 
ATOM     22  S   UNL     1       0.641  -0.353  -4.364  0.00  0.00    -0.050 S 
BRANCH  21  23
ATOM     23  C   UNL     1       0.146  -2.026  -7.099  0.00  0.00    -0.024 A 
ATOM     24  C   UNL     1      -0.329  -2.650  -8.259  0.00  0.00    +0.011 A 
ATOM     25  C   UNL     1      -0.356  -1.958  -9.449  0.00  0.00    +0.046 A 
ATOM     26  C   UNL     1       0.089  -0.642  -9.500  0.00  0.00    +0.117 A 
ATOM     27  C   UNL     1       0.562  -0.017  -8.351  0.00  0.00    +0.046 A 
ATOM     28  C   UNL     1       0.587  -0.698  -7.155  0.00  0.00    +0.011 A 
BRANCH  26  29
ATOM     29  O   UNL     1       0.061   0.036 -10.676  0.00  0.00    -0.507 OA
ATOM     30  H   UNL     1      -0.764   0.515 -10.834  0.00  0.00    +0.292 HD
ENDBRANCH  26  29
ENDBRANCH  21  23
ENDBRANCH   1  16
TORSDOF 5
