REMARK  Name = ZINC63511491
REMARK  5 active torsions:
REMARK  status: ('A' for Active; 'I' for Inactive)
REMARK    1  A    between atoms: C_1  and  C_2
REMARK    2  A    between atoms: C_4  and  C_7
REMARK    3  A    between atoms: C_7  and  N_12
REMARK    4  A    between atoms: N_12  and  C_13
REMARK    5  A    between atoms: C_13  and  C_14
REMARK                            x       y       z     vdW  Elec       q    Type
REMARK                         _______ _______ _______ _____ _____    ______ ____
ROOT
ATOM      1  C   UNL     1      -1.588  -3.254  -0.008  0.00  0.00    -0.003 C 
ATOM      2  C   UNL     1      -2.428  -3.272   1.286  0.00  0.00    -0.005 C 
ATOM      3  C   UNL     1      -2.542  -4.775   1.644  0.00  0.00    -0.001 C 
ATOM      4  C   UNL     1      -1.142  -5.322   1.268  0.00  0.00    -0.001 C 
ATOM      5  C   UNL     1      -0.770  -4.558  -0.019  0.00  0.00    -0.005 C 
ENDROOT
BRANCH   1   9
ATOM      6  C   UNL     1      -0.018   1.503   0.010  0.00  0.00    +0.112 C 
ATOM      7  C   UNL     1       0.002  -0.004   0.002  0.00  0.00    +0.224 A 
ATOM      8  N   UNL     1      -1.044  -0.783   0.003  0.00  0.00    -0.198 NA
ATOM      9  C   UNL     1      -0.663  -2.065  -0.006  0.00  0.00    +0.161 A 
ATOM     10  N   UNL     1       0.638  -2.118  -0.012  0.00  0.00    -0.063 NA
ATOM     11  O   UNL     1       1.097  -0.774  -0.013  0.00  0.00    -0.338 OA
ENDBRANCH   1   9
BRANCH   1  12
ATOM     12  N   UNL     1      -2.470  -3.204  -1.181  0.00  0.00    +0.390 N 
ATOM     13  H   UNL     1      -1.913  -3.228  -2.022  0.00  0.00    -0.084 HD
ATOM     14  H   UNL     1      -3.093  -3.997  -1.168  0.00  0.00    -0.084 HD
BRANCH  12  15
ATOM     15  C   UNL     1      -3.256  -1.963  -1.150  0.00  0.00    -0.044 C 
BRANCH  15  16
ATOM     16  C   UNL     1      -4.161  -1.911  -2.354  0.00  0.00    -0.050 A 
ATOM     17  C   UNL     1      -3.802  -1.157  -3.456  0.00  0.00    +0.003 A 
ATOM     18  C   UNL     1      -4.632  -1.110  -4.561  0.00  0.00    +0.000 A 
ATOM     19  C   UNL     1      -5.821  -1.816  -4.564  0.00  0.00    +0.001 A 
ATOM     20  C   UNL     1      -6.180  -2.570  -3.462  0.00  0.00    +0.015 A 
ATOM     21  C   UNL     1      -5.347  -2.622  -2.359  0.00  0.00    +0.019 A 
ATOM     22 BR   UNL     1      -5.835  -3.658  -0.854  0.00  0.00    -0.050 Br
ENDBRANCH  15  16
ENDBRANCH  12  15
ENDBRANCH   1  12
TORSDOF 4
