REMARK  Name = ZINC43209056
REMARK  11 active torsions:
REMARK  status: ('A' for Active; 'I' for Inactive)
REMARK    1  A    between atoms: C_3  and  C_9
REMARK    2  A    between atoms: C_6  and  C_7
REMARK    3  A    between atoms: C_9  and  C_11
REMARK    4  A    between atoms: C_9  and  N_28
REMARK    5  A    between atoms: C_11  and  C_13
REMARK    6  A    between atoms: C_11  and  C_25
REMARK    7  A    between atoms: C_13  and  N_14
REMARK    8  A    between atoms: N_14  and  C_15
REMARK    9  A    between atoms: C_15  and  C_16
REMARK   10  A    between atoms: N_28  and  C_29
REMARK   11  A    between atoms: C_29  and  C_30
REMARK                            x       y       z     vdW  Elec       q    Type
REMARK                         _______ _______ _______ _____ _____    ______ ____
ROOT
ATOM      1  C   UNL     1       3.664   2.190  -0.024  0.00  0.00    -0.028 C 
ENDROOT
BRANCH   1   4
ATOM      2  C   UNL     1      -0.048   1.521  -0.126  0.00  0.00    +0.019 A 
ATOM      3  C   UNL     1       1.162   2.180  -0.069  0.00  0.00    +0.003 A 
ATOM      4  C   UNL     1       2.345   1.463  -0.086  0.00  0.00    -0.061 A 
ATOM      5  C   UNL     1       2.324   0.082  -0.162  0.00  0.00    +0.003 A 
ATOM      6  C   UNL     1       1.120  -0.590  -0.220  0.00  0.00    +0.019 A 
ATOM      7  C   UNL     1      -0.078   0.127  -0.202  0.00  0.00    +0.052 A 
BRANCH   7   8
ATOM      8  C   UNL     1      -1.331  -0.563  -0.261  0.00  0.00    +0.099 C 
ATOM      9  N   UNL     1      -2.325  -1.111  -0.308  0.00  0.00    -0.191 NA
ENDBRANCH   7   8
ENDBRANCH   1   4
BRANCH   1  10
ATOM     10  N   UNL     1       4.622   1.546  -0.933  0.00  0.00    +0.387 N 
ATOM     11  H   UNL     1       5.530   1.971  -0.821  0.00  0.00    -0.085 HD
ATOM     12  H   UNL     1       4.681   0.562  -0.717  0.00  0.00    -0.085 HD
BRANCH  10  13
ATOM     13  C   UNL     1       4.170   1.717  -2.321  0.00  0.00    -0.046 C 
BRANCH  13  14
ATOM     14  C   UNL     1       5.152   1.057  -3.253  0.00  0.00    -0.061 A 
ATOM     15  C   UNL     1       6.222   1.777  -3.751  0.00  0.00    +0.005 A 
ATOM     16  C   UNL     1       7.126   1.176  -4.607  0.00  0.00    +0.050 A 
ATOM     17  C   UNL     1       6.961  -0.151  -4.968  0.00  0.00    +0.166 A 
ATOM     18  C   UNL     1       5.883  -0.877  -4.467  0.00  0.00    +0.166 A 
ATOM     19  C   UNL     1       4.985  -0.270  -3.605  0.00  0.00    +0.051 A 
ATOM     20  O   UNL     1       5.943  -2.146  -4.966  0.00  0.00    -0.453 OA
ATOM     21  C   UNL     1       6.832  -2.074  -6.096  0.00  0.00    +0.466 C 
ATOM     22  O   UNL     1       7.695  -0.966  -5.781  0.00  0.00    -0.453 OA
ENDBRANCH  13  14
ENDBRANCH  10  13
ENDBRANCH   1  10
BRANCH   1  23
ATOM     23  C   UNL     1       4.206   2.140   1.406  0.00  0.00    +0.075 C 
BRANCH  23  24
ATOM     24  C   UNL     1       3.289   2.913   2.318  0.00  0.00    +0.356 C 
ATOM     25  O   UNL     1       3.244   2.645   3.507  0.00  0.00    -0.246 OA
ATOM     26  O   UNL     1       2.593   3.807   1.868  0.00  0.00    -0.246 OA
ENDBRANCH  23  24
BRANCH  23  27
ATOM     27  C   UNL     1       4.281   0.685   1.873  0.00  0.00    -0.069 C 
BRANCH  27  28
ATOM     28  N   UNL     1       4.913   0.627   3.198  0.00  0.00    +0.382 N 
ATOM     29  H   UNL     1       5.844   1.012   3.144  0.00  0.00    -0.085 HD
ATOM     30  H   UNL     1       4.365   1.163   3.855  0.00  0.00    -0.085 HD
BRANCH  28  31
ATOM     31  C   UNL     1       4.984  -0.770   3.646  0.00  0.00    -0.047 C 
BRANCH  31  32
ATOM     32  C   UNL     1       5.632  -0.829   5.006  0.00  0.00    -0.061 A 
ATOM     33  C   UNL     1       7.004  -0.960   5.111  0.00  0.00    +0.005 A 
ATOM     34  C   UNL     1       7.603  -1.014   6.356  0.00  0.00    +0.050 A 
ATOM     35  C   UNL     1       6.828  -0.937   7.502  0.00  0.00    +0.166 A 
ATOM     36  C   UNL     1       5.446  -0.804   7.396  0.00  0.00    +0.166 A 
ATOM     37  C   UNL     1       4.853  -0.745   6.145  0.00  0.00    +0.051 A 
ATOM     38  O   UNL     1       4.915  -0.750   8.652  0.00  0.00    -0.453 OA
ATOM     39  C   UNL     1       5.941  -1.260   9.525  0.00  0.00    +0.466 C 
ATOM     40  O   UNL     1       7.164  -0.966   8.825  0.00  0.00    -0.453 OA
ENDBRANCH  31  32
ENDBRANCH  28  31
ENDBRANCH  27  28
ENDBRANCH  23  27
ENDBRANCH   1  23
TORSDOF 11
