REMARK  Name = ZINC54363725
REMARK  8 active torsions:
REMARK  status: ('A' for Active; 'I' for Inactive)
REMARK    1  A    between atoms: C_1  and  O_2
REMARK    2  A    between atoms: O_2  and  C_3
REMARK    3  A    between atoms: C_3  and  C_5
REMARK    4  A    between atoms: C_8  and  N_11
REMARK    5  A    between atoms: C_12  and  C_14
REMARK    6  A    between atoms: C_14  and  C_15
REMARK    7  A    between atoms: C_15  and  S_16
REMARK    8  A    between atoms: S_16  and  C_17
REMARK                            x       y       z     vdW  Elec       q    Type
REMARK                         _______ _______ _______ _____ _____    ______ ____
ROOT
ATOM      1  C   UNL     1      -4.104  -8.854   0.298  0.00  0.00    +0.086 C 
ENDROOT
BRANCH   1   2
ATOM      2  C   UNL     1      -2.647  -8.399   0.193  0.00  0.00    +0.107 C 
BRANCH   2   4
ATOM      3  N   UNL     1      -1.409  -6.268  -0.018  0.00  0.00    -0.285 N 
ATOM      4  C   UNL     1      -2.596  -6.897   0.086  0.00  0.00    +0.218 C 
ATOM      5  O   UNL     1      -3.624  -6.253   0.095  0.00  0.00    -0.275 OA
ATOM      6  H   UNL     1      -0.592  -6.784  -0.101  0.00  0.00    +0.155 HD
BRANCH   3  10
ATOM      7  C   UNL     1      -1.245  -2.106   0.021  0.00  0.00    +0.059 A 
ATOM      8  C   UNL     1      -2.213  -2.776   0.775  0.00  0.00    +0.017 A 
ATOM      9  C   UNL     1      -2.264  -4.152   0.760  0.00  0.00    +0.024 A 
ATOM     10  C   UNL     1      -1.354  -4.875  -0.005  0.00  0.00    +0.033 A 
ATOM     11  C   UNL     1      -0.390  -4.211  -0.757  0.00  0.00    +0.024 A 
ATOM     12  C   UNL     1      -0.336  -2.836  -0.751  0.00  0.00    +0.017 A 
BRANCH   7  13
ATOM     13  C   UNL     1      -1.188  -0.632   0.034  0.00  0.00    +0.339 C 
ATOM     14  O   UNL     1      -0.349  -0.051  -0.626  0.00  0.00    -0.245 OA
BRANCH  13  16
ATOM     15  C   UNL     1      -1.951   1.494   0.745  0.00  0.00    +0.280 C 
ATOM     16  O   UNL     1      -2.064   0.070   0.779  0.00  0.00    -0.464 OA
ENDBRANCH  13  16
ENDBRANCH   7  13
ENDBRANCH   3  10
ENDBRANCH   2   4
ENDBRANCH   1   2
BRANCH   1  17
ATOM     17  S   UNL     1      -4.164 -10.663   0.426  0.00  0.00    -0.087 S 
BRANCH  17  18
ATOM     18  C   UNL     1      -5.885 -11.025   0.539  0.00  0.00    +0.171 A 
ATOM     19  N   UNL     1      -6.754 -10.037   0.510  0.00  0.00    -0.185 NA
ATOM     20  C   UNL     1      -8.072 -10.239   0.592  0.00  0.00    +0.282 A 
ATOM     21  O   UNL     1      -8.845  -9.294   0.560  0.00  0.00    -0.265 OA
ATOM     22  C   UNL     1      -8.586 -11.623   0.720  0.00  0.00    +0.075 A 
ATOM     23  C   UNL     1      -9.973 -12.077   0.825  0.00  0.00    -0.023 A 
ATOM     24  C   UNL     1     -10.175 -13.407   0.933  0.00  0.00    -0.004 A 
ATOM     25  S   UNL     1      -8.552 -14.118   0.901  0.00  0.00    -0.075 S 
ATOM     26  C   UNL     1      -7.612 -12.622   0.744  0.00  0.00    +0.092 A 
ATOM     27  N   UNL     1      -6.287 -12.323   0.649  0.00  0.00    -0.328 N 
ATOM     28  C   UNL     1     -11.487 -14.120   1.055  0.00  0.00    +0.043 C 
ATOM     29  C   UNL     1     -12.567 -13.088   1.413  0.00  0.00    +0.005 C 
ATOM     30  C   UNL     1     -12.426 -11.885   0.476  0.00  0.00    +0.005 C 
ATOM     31  C   UNL     1     -11.153 -11.108   0.814  0.00  0.00    +0.037 C 
ATOM     32  H   UNL     1      -5.628 -13.034   0.663  0.00  0.00    +0.168 HD
ENDBRANCH  17  18
ENDBRANCH   1  17
TORSDOF 7
