REMARK  Name = ZINC12833092
REMARK  9 active torsions:
REMARK  status: ('A' for Active; 'I' for Inactive)
REMARK    1  A    between atoms: C_1  and  C_2
REMARK    2  A    between atoms: C_5  and  C_34
REMARK    3  A    between atoms: C_9  and  C_14
REMARK    4  A    between atoms: C_14  and  N_63
REMARK    5  A    between atoms: C_15  and  C_16
REMARK    6  A    between atoms: C_15  and  N_63
REMARK    7  A    between atoms: C_23  and  C_24
REMARK    8  A    between atoms: C_23  and  N_63
REMARK    9  A    between atoms: N_28  and  C_29
REMARK                            x       y       z     vdW  Elec       q    Type
REMARK                         _______ _______ _______ _____ _____    ______ ____
ROOT
ATOM      1  N   UNL     1       1.199   3.891   1.542  0.00  0.00    +0.390 N 
ATOM      2  H   UNL     1       0.621   3.334   2.182  0.00  0.00    -0.080 HD
ENDROOT
BRANCH   1   3
ATOM      3  C   UNL     1       1.015   3.386   0.165  0.00  0.00    -0.036 C 
BRANCH   3  12
ATOM      4  C   UNL     1      -2.026  -0.822   0.565  0.00  0.00    +0.044 C 
ATOM      5  C   UNL     1      -0.608  -1.308   0.410  0.00  0.00    -0.041 A 
ATOM      6  C   UNL     1      -0.338  -2.647   0.399  0.00  0.00    +0.004 A 
ATOM      7  C   UNL     1       0.964  -3.105   0.258  0.00  0.00    +0.005 A 
ATOM      8  C   UNL     1       2.011  -2.217   0.128  0.00  0.00    -0.026 A 
ATOM      9  C   UNL     1       1.762  -0.849   0.138  0.00  0.00    +0.052 A 
ATOM     10  C   UNL     1       0.439  -0.389   0.281  0.00  0.00    +0.002 A 
ATOM     11  C   UNL     1       0.186   1.053   0.290  0.00  0.00    +0.017 A 
ATOM     12  C   UNL     1       1.240   1.896   0.160  0.00  0.00    +0.001 A 
ATOM     13  C   UNL     1       2.548   1.383   0.018  0.00  0.00    +0.251 A 
ATOM     14  O   UNL     1       3.481   2.159  -0.098  0.00  0.00    -0.268 OA
ATOM     15  N   UNL     1       2.789   0.060   0.009  0.00  0.00    -0.322 N 
ATOM     16  H   UNL     1       3.700  -0.258  -0.090  0.00  0.00    +0.169 HD
ATOM     17  C   UNL     1       3.421  -2.728  -0.024  0.00  0.00    +0.046 C 
ENDBRANCH   3  12
ENDBRANCH   1   3
BRANCH   1  18
ATOM     18  C   UNL     1       2.616   3.764   1.942  0.00  0.00    -0.042 C 
BRANCH  18  19
ATOM     19  C   UNL     1       2.748   4.142   3.395  0.00  0.00    -0.064 A 
ATOM     20  C   UNL     1       3.153   5.417   3.742  0.00  0.00    +0.004 A 
ATOM     21  C   UNL     1       3.270   5.767   5.074  0.00  0.00    +0.038 A 
ATOM     22  C   UNL     1       2.992   4.836   6.061  0.00  0.00    +0.123 A 
ATOM     23  C   UNL     1       2.592   3.557   5.711  0.00  0.00    +0.038 A 
ATOM     24  C   UNL     1       2.471   3.211   4.379  0.00  0.00    +0.004 A 
ATOM     25  F   UNL     1       3.111   5.175   7.363  0.00  0.00    -0.205 F 
ENDBRANCH  18  19
ENDBRANCH   1  18
BRANCH   1  26
ATOM     26  C   UNL     1       0.777   5.305   1.622  0.00  0.00    +0.001 C 
BRANCH  26  27
ATOM     27  C   UNL     1      -0.728   5.365   1.570  0.00  0.00    +0.135 A 
ATOM     28  N   UNL     1      -1.467   5.586   0.510  0.00  0.00    -0.115 NA
ATOM     29  N   UNL     1      -2.702   5.557   0.873  0.00  0.00    -0.023 NA
ATOM     30  N   UNL     1      -2.771   5.332   2.139  0.00  0.00    -0.044 NA
ATOM     31  N   UNL     1      -1.575   5.208   2.605  0.00  0.00    -0.228 N 
BRANCH  31  32
ATOM     32  C   UNL     1      -1.206   4.945   3.998  0.00  0.00    +0.111 C 
ATOM     33  C   UNL     1      -1.766   3.578   4.444  0.00  0.00    +0.027 C 
ATOM     34  C   UNL     1      -2.188   3.804   5.918  0.00  0.00    +0.002 C 
ATOM     35  C   UNL     1      -2.764   5.241   5.893  0.00  0.00    +0.002 C 
ATOM     36  C   UNL     1      -1.840   6.002   4.920  0.00  0.00    +0.027 C 
ENDBRANCH  31  32
ENDBRANCH  26  27
ENDBRANCH   1  26
TORSDOF 7
