REMARK  Name = ZINC02437577
REMARK  12 active torsions:
REMARK  status: ('A' for Active; 'I' for Inactive)
REMARK    1  A    between atoms: C_1  and  C_2
REMARK    2  A    between atoms: C_2  and  C_3
REMARK    3  A    between atoms: C_3  and  C_5
REMARK    4  A    between atoms: C_3  and  N_6
REMARK    5  A    between atoms: C_7  and  C_9
REMARK    6  A    between atoms: N_20  and  C_23
REMARK    7  A    between atoms: C_21  and  N_22
REMARK    8  A    between atoms: C_26  and  N_29
REMARK    9  A    between atoms: N_29  and  C_30
REMARK   10  A    between atoms: N_29  and  C_32
REMARK   11  A    between atoms: C_30  and  C_31
REMARK   12  A    between atoms: C_32  and  C_33
REMARK                            x       y       z     vdW  Elec       q    Type
REMARK                         _______ _______ _______ _____ _____    ______ ____
ROOT
ATOM      1  C   UNL     1       0.002  -0.004   0.002  0.00  0.00    +0.104 A 
ATOM      2  C   UNL     1       0.031  -0.891   1.177  0.00  0.00    +0.123 A 
ATOM      3  C   UNL     1       0.038  -2.253   0.635  0.00  0.00    +0.166 A 
ATOM      4  N   UNL     1       0.059  -3.277   1.461  0.00  0.00    -0.225 NA
ATOM      5  C   UNL     1       0.085  -3.068   2.783  0.00  0.00    +0.092 A 
ATOM      6  C   UNL     1       0.113  -4.157   3.673  0.00  0.00    +0.030 A 
ATOM      7  C   UNL     1       0.130  -3.935   5.015  0.00  0.00    +0.002 A 
ATOM      8  C   UNL     1       0.119  -2.639   5.528  0.00  0.00    +0.002 A 
ATOM      9  C   UNL     1       0.092  -1.561   4.699  0.00  0.00    +0.030 A 
ATOM     10  C   UNL     1       0.074  -1.750   3.305  0.00  0.00    +0.090 A 
ATOM     11  N   UNL     1       0.048  -0.696   2.480  0.00  0.00    -0.241 NA
ATOM     12  N   UNL     1       0.024  -2.140  -0.741  0.00  0.00    -0.280 N 
ATOM     13  C   UNL     1       0.003  -0.830  -1.117  0.00  0.00    +0.117 A 
ENDROOT
BRANCH  12  14
ATOM     14  C   UNL     1       0.030  -3.225  -1.631  0.00  0.00    +0.050 A 
ATOM     15  C   UNL     1      -1.046  -4.101  -1.664  0.00  0.00    +0.028 A 
ATOM     16  C   UNL     1      -1.042  -5.166  -2.543  0.00  0.00    +0.025 A 
ATOM     17  C   UNL     1       0.043  -5.366  -3.387  0.00  0.00    +0.030 A 
ATOM     18  C   UNL     1       1.121  -4.492  -3.350  0.00  0.00    +0.025 A 
ATOM     19  C   UNL     1       1.115  -3.425  -2.474  0.00  0.00    +0.028 A 
BRANCH  17  20
ATOM     20  N   UNL     1       0.049  -6.448  -4.273  0.00  0.00    -0.330 N 
BRANCH  20  21
ATOM     21  C   UNL     1      -1.089  -7.370  -4.312  0.00  0.00    +0.102 C 
ATOM     22  C   UNL     1      -2.115  -6.871  -5.331  0.00  0.00    +0.024 C 
ENDBRANCH  20  21
BRANCH  20  23
ATOM     23  C   UNL     1       1.194  -6.660  -5.162  0.00  0.00    +0.102 C 
ATOM     24  C   UNL     1       2.222  -7.554  -4.466  0.00  0.00    +0.024 C 
ENDBRANCH  20  23
ENDBRANCH  17  20
ENDBRANCH  12  14
BRANCH   1  26
ATOM     25  N   UNL     1       1.140   2.147   0.003  0.00  0.00    -0.309 N 
ATOM     26  C   UNL     1      -0.018   1.457   0.010  0.00  0.00    +0.250 C 
ATOM     27  O   UNL     1      -1.081   2.051   0.018  0.00  0.00    -0.270 OA
ATOM     28  H   UNL     1       1.987   1.673  -0.008  0.00  0.00    +0.149 HD
BRANCH  25  29
ATOM     29  C   UNL     1       1.120   3.611   0.011  0.00  0.00    +0.070 C 
ATOM     30  C   UNL     1       1.001   4.112   1.452  0.00  0.00    +0.028 C 
BRANCH  29  32
ATOM     31  C   UNL     1       2.474   3.747  -2.085  0.00  0.00    +0.005 C 
ATOM     32  C   UNL     1       2.415   4.143  -0.608  0.00  0.00    +0.018 C 
ENDBRANCH  29  32
ENDBRANCH  25  29
ENDBRANCH   1  26
BRANCH  13  33
ATOM     33  N   UNL     1      -0.014  -0.389  -2.415  0.00  0.00    -0.343 N 
ATOM     34  H   UNL     1      -0.029   0.563  -2.603  0.00  0.00    +0.144 HD
ATOM     35  H   UNL     1      -0.012  -1.028  -3.144  0.00  0.00    +0.144 HD
ENDBRANCH  13  33
TORSDOF 8
