REMARK  Name = ZINC39324825
REMARK  7 active torsions:
REMARK  status: ('A' for Active; 'I' for Inactive)
REMARK    1  A    between atoms: C_4  and  C_7
REMARK    2  A    between atoms: C_7  and  C_8
REMARK    3  A    between atoms: C_8  and  N_9
REMARK    4  A    between atoms: N_9  and  C_10
REMARK    5  A    between atoms: N_9  and  S_27
REMARK    6  A    between atoms: C_10  and  C_11
REMARK    7  A    between atoms: S_27  and  C_30
REMARK                            x       y       z     vdW  Elec       q    Type
REMARK                         _______ _______ _______ _____ _____    ______ ____
ROOT
ATOM      1  N   UNL     1       5.970  -1.547   1.221  0.00  0.00    -0.175 NA
ENDROOT
BRANCH   1   2
ATOM      2  S   UNL     1       5.879  -3.186   1.000  0.00  0.00    +0.062 S 
ATOM      3  O   UNL     1       7.212  -3.648   0.832  0.00  0.00    -0.153 OA
ATOM      4  O   UNL     1       5.022  -3.686   2.018  0.00  0.00    -0.153 OA
BRANCH   2   5
ATOM      5  C   UNL     1       5.054  -3.460  -0.532  0.00  0.00    +0.124 A 
ATOM      6  C   UNL     1       5.774  -3.857  -1.644  0.00  0.00    +0.030 A 
ATOM      7  C   UNL     1       5.127  -4.073  -2.846  0.00  0.00    +0.002 A 
ATOM      8  C   UNL     1       3.759  -3.891  -2.938  0.00  0.00    +0.002 A 
ATOM      9  C   UNL     1       3.038  -3.494  -1.828  0.00  0.00    +0.022 A 
ATOM     10  C   UNL     1       3.685  -3.284  -0.622  0.00  0.00    +0.067 A 
ATOM     11 CL   UNL     1       2.779  -2.791   0.774  0.00  0.00    -0.082 Cl
ENDBRANCH   2   5
ENDBRANCH   1   2
BRANCH   1  12
ATOM     12  C   UNL     1       4.870  -0.835   1.876  0.00  0.00    +0.114 C 
BRANCH  12  13
ATOM     13  C   UNL     1       4.253   0.164   0.894  0.00  0.00    +0.052 C 
BRANCH  13  17
ATOM     14  C   UNL     1       1.339   2.541   2.919  0.00  0.00    +0.000 A 
ATOM     15  C   UNL     1       2.674   2.895   2.968  0.00  0.00    +0.000 A 
ATOM     16  C   UNL     1       3.617   2.125   2.313  0.00  0.00    +0.003 A 
ATOM     17  C   UNL     1       3.225   1.002   1.609  0.00  0.00    -0.046 A 
ATOM     18  C   UNL     1       1.890   0.648   1.561  0.00  0.00    +0.003 A 
ATOM     19  C   UNL     1       0.946   1.418   2.215  0.00  0.00    +0.000 A 
ENDBRANCH  13  17
ENDBRANCH  12  13
ENDBRANCH   1  12
BRANCH   1  20
ATOM     20  C   UNL     1       7.150  -0.810   0.762  0.00  0.00    +0.126 C 
BRANCH  20  21
ATOM     21  C   UNL     1       7.896  -0.240   1.970  0.00  0.00    +0.114 C 
ATOM     22  C   UNL     1       8.925   0.748   1.456  0.00  0.00    -0.003 C 
ATOM     23  C   UNL     1      10.227   0.517   1.775  0.00  0.00    -0.003 A 
ATOM     24  C   UNL     1      11.282   1.423   1.317  0.00  0.00    +0.059 A 
ATOM     25  C   UNL     1      12.575   1.165   1.653  0.00  0.00    +0.163 A 
ATOM     26  C   UNL     1      12.914   0.044   2.436  0.00  0.00    +0.164 A 
ATOM     27  C   UNL     1      11.957  -0.841   2.890  0.00  0.00    +0.073 A 
ATOM     28  C   UNL     1      10.602  -0.653   2.590  0.00  0.00    +0.044 A 
ATOM     29  N   UNL     1       9.693  -1.522   3.039  0.00  0.00    -0.284 N 
ATOM     30  C   UNL     1       8.401  -1.403   2.794  0.00  0.00    +0.225 C 
ATOM     31  O   UNL     1       7.619  -2.227   3.231  0.00  0.00    -0.275 OA
ATOM     32  O   UNL     1      14.212  -0.190   2.770  0.00  0.00    -0.485 OA
ATOM     33  C   UNL     1      15.210   0.484   1.998  0.00  0.00    +0.270 C 
ATOM     34  C   UNL     1      14.807   1.959   1.872  0.00  0.00    +0.270 C 
ATOM     35  O   UNL     1      13.540   2.021   1.211  0.00  0.00    -0.485 OA
ATOM     36  H   UNL     1       9.996  -2.275   3.570  0.00  0.00    +0.155 HD
ENDBRANCH  20  21
ENDBRANCH   1  20
TORSDOF 7
