REMARK  Name = ZINC36312950
REMARK  13 active torsions:
REMARK  status: ('A' for Active; 'I' for Inactive)
REMARK    1  A    between atoms: C_4  and  C_7
REMARK    2  A    between atoms: C_7  and  O_8
REMARK    3  A    between atoms: O_8  and  C_9
REMARK    4  A    between atoms: C_9  and  C_10
REMARK    5  A    between atoms: C_10  and  C_12
REMARK    6  A    between atoms: C_10  and  O_38
REMARK    7  A    between atoms: C_12  and  N_13
REMARK    8  A    between atoms: N_13  and  C_14
REMARK    9  A    between atoms: N_13  and  C_31
REMARK   10  A    between atoms: C_14  and  C_15
REMARK   11  A    between atoms: C_16  and  C_25
REMARK   12  A    between atoms: C_19  and  N_20
REMARK   13  A    between atoms: C_31  and  C_32
REMARK                            x       y       z     vdW  Elec       q    Type
REMARK                         _______ _______ _______ _____ _____    ______ ____
ROOT
ATOM      1  N   UNL     1       7.349  -2.373   4.461  0.00  0.00    +0.386 N 
ATOM      2  H   UNL     1       7.465  -1.501   4.955  0.00  0.00    -0.081 HD
ENDROOT
BRANCH   1   3
ATOM      3  C   UNL     1       6.909  -2.101   3.086  0.00  0.00    -0.044 C 
BRANCH   3   4
ATOM      4  C   UNL     1       5.642  -1.244   3.116  0.00  0.00    +0.124 C 
BRANCH   4   5
ATOM      5  O   UNL     1       5.946   0.035   3.675  0.00  0.00    -0.391 OA
ATOM      6  H   UNL     1       6.615   0.531   3.183  0.00  0.00    +0.210 HD
ENDBRANCH   4   5
BRANCH   4   7
ATOM      7  C   UNL     1       5.114  -1.065   1.691  0.00  0.00    +0.189 C 
BRANCH   7   8
ATOM      8  O   UNL     1       3.869  -0.364   1.729  0.00  0.00    -0.373 OA
BRANCH   8   9
ATOM      9  C   UNL     1       3.287  -0.143   0.443  0.00  0.00    +0.195 C 
BRANCH   9  13
ATOM     10  C   UNL     1      -0.403   1.963   0.891  0.00  0.00    +0.000 A 
ATOM     11  C   UNL     1       0.779   2.663   0.733  0.00  0.00    +0.000 A 
ATOM     12  C   UNL     1       1.972   1.982   0.589  0.00  0.00    +0.006 A 
ATOM     13  C   UNL     1       1.985   0.600   0.602  0.00  0.00    -0.022 A 
ATOM     14  C   UNL     1       0.804  -0.101   0.760  0.00  0.00    +0.006 A 
ATOM     15  C   UNL     1      -0.390   0.581   0.904  0.00  0.00    +0.000 A 
ENDBRANCH   9  13
ENDBRANCH   8   9
ENDBRANCH   7   8
ENDBRANCH   4   7
ENDBRANCH   3   4
ENDBRANCH   1   3
BRANCH   1  16
ATOM     16  C   UNL     1       8.629  -3.094   4.432  0.00  0.00    -0.035 C 
BRANCH  16  17
ATOM     17  C   UNL     1       9.677  -2.230   3.779  0.00  0.00    +0.025 A 
ATOM     18  C   UNL     1      10.021  -2.235   2.411  0.00  0.00    +0.117 A 
ATOM     19  N   UNL     1      10.972  -1.348   2.230  0.00  0.00    -0.076 NA
ATOM     20  O   UNL     1      11.259  -0.752   3.482  0.00  0.00    -0.339 OA
ATOM     21  C   UNL     1      10.452  -1.306   4.402  0.00  0.00    +0.222 A 
BRANCH  18  22
ATOM     22  C   UNL     1       9.415  -3.093   1.361  0.00  0.00    +0.004 A 
ATOM     23  C   UNL     1       9.177  -4.442   1.613  0.00  0.00    +0.010 A 
ATOM     24  C   UNL     1       8.613  -5.235   0.634  0.00  0.00    +0.001 A 
ATOM     25  C   UNL     1       8.285  -4.692  -0.596  0.00  0.00    +0.000 A 
ATOM     26  C   UNL     1       8.520  -3.353  -0.851  0.00  0.00    +0.001 A 
ATOM     27  C   UNL     1       9.078  -2.550   0.123  0.00  0.00    +0.010 A 
ENDBRANCH  18  22
BRANCH  21  28
ATOM     28  N   UNL     1      10.418  -0.992   5.748  0.00  0.00    -0.299 N 
ATOM     29  C   UNL     1       9.625  -1.689   6.771  0.00  0.00    +0.108 C 
ATOM     30  C   UNL     1       9.883  -0.977   8.116  0.00  0.00    +0.020 C 
ATOM     31  C   UNL     1      10.367   0.430   7.676  0.00  0.00    +0.020 C 
ATOM     32  C   UNL     1      11.177   0.093   6.396  0.00  0.00    +0.108 C 
ENDBRANCH  21  28
ENDBRANCH  16  17
ENDBRANCH   1  16
BRANCH   1  33
ATOM     33  C   UNL     1       6.340  -3.193   5.145  0.00  0.00    -0.046 C 
BRANCH  33  34
ATOM     34  C   UNL     1       6.725  -3.352   6.617  0.00  0.00    +0.102 C 
ATOM     35  C   UNL     1       5.728  -4.298   7.320  0.00  0.00    +0.032 C 
ATOM     36  C   UNL     1       5.551  -3.620   8.706  0.00  0.00    +0.030 C 
ATOM     37  C   UNL     1       5.666  -2.125   8.319  0.00  0.00    +0.160 C 
ATOM     38  O   UNL     1       6.657  -2.082   7.276  0.00  0.00    -0.378 OA
ENDBRANCH  33  34
ENDBRANCH   1  33
TORSDOF 13
