REMARK  Name = ZINC13628610
REMARK  4 active torsions:
REMARK  status: ('A' for Active; 'I' for Inactive)
REMARK    1  A    between atoms: C_4  and  C_7
REMARK    2  A    between atoms: C_7  and  C_8
REMARK    3  A    between atoms: C_8  and  C_10
REMARK    4  A    between atoms: C_8  and  N_18
REMARK                            x       y       z     vdW  Elec       q    Type
REMARK                         _______ _______ _______ _____ _____    ______ ____
ROOT
ATOM      1  C   UNL     1       4.165  -0.960   1.397  0.00  0.00    +0.165 C 
ENDROOT
BRANCH   1   2
ATOM      2  N   UNL     1       4.442   0.319   2.057  0.00  0.00    -0.287 N 
ATOM      3  C   UNL     1       4.378   0.412   3.400  0.00  0.00    +0.308 C 
ATOM      4  O   UNL     1       4.000  -0.538   4.058  0.00  0.00    -0.252 OA
ATOM      5  N   UNL     1       4.732   1.559   4.013  0.00  0.00    -0.245 N 
ATOM      6  C   UNL     1       5.092   2.755   3.236  0.00  0.00    +0.211 C 
ATOM      7  C   UNL     1       6.293   3.409   3.870  0.00  0.00    +0.235 C 
ATOM      8  O   UNL     1       7.064   4.042   3.181  0.00  0.00    -0.274 OA
ATOM      9  N   UNL     1       6.519   3.301   5.193  0.00  0.00    -0.283 N 
ATOM     10  C   UNL     1       5.674   2.535   6.004  0.00  0.00    +0.055 A 
ATOM     11  C   UNL     1       4.764   1.651   5.413  0.00  0.00    +0.059 A 
ATOM     12  C   UNL     1       3.921   0.887   6.199  0.00  0.00    +0.025 A 
ATOM     13  C   UNL     1       3.974   1.004   7.577  0.00  0.00    +0.002 A 
ATOM     14  C   UNL     1       4.865   1.882   8.167  0.00  0.00    +0.002 A 
ATOM     15  C   UNL     1       5.724   2.646   7.384  0.00  0.00    +0.025 A 
ATOM     16  H   UNL     1       4.671   1.098   1.527  0.00  0.00    +0.151 HD
ATOM     17  H   UNL     1       7.278   3.758   5.589  0.00  0.00    +0.155 HD
ENDBRANCH   1   2
BRANCH   1  18
ATOM     18  C   UNL     1       5.420  -1.794   1.371  0.00  0.00    +0.239 C 
ATOM     19  O   UNL     1       6.444  -1.363   1.855  0.00  0.00    -0.273 OA
ATOM     20  N   UNL     1       5.403  -3.019   0.809  0.00  0.00    -0.263 N 
ATOM     21  C   UNL     1       6.560  -3.788   0.785  0.00  0.00    +0.164 A 
ATOM     22  N   UNL     1       7.750  -3.490   1.261  0.00  0.00    -0.233 NA
ATOM     23  C   UNL     1       8.758  -4.337   1.158  0.00  0.00    +0.120 A 
ATOM     24  C   UNL     1       8.509  -5.519   0.542  0.00  0.00    +0.068 A 
ATOM     25  S   UNL     1       6.778  -5.330   0.145  0.00  0.00    -0.061 S 
ATOM     26  H   UNL     1       4.583  -3.364   0.422  0.00  0.00    +0.157 HD
ENDBRANCH   1  18
BRANCH   1  27
ATOM     27  C   UNL     1       3.692  -0.704  -0.035  0.00  0.00    +0.067 C 
BRANCH  27  31
ATOM     28  C   UNL     1      -0.047   1.360   0.045  0.00  0.00    +0.000 A 
ATOM     29  C   UNL     1       1.136   2.074   0.030  0.00  0.00    +0.000 A 
ATOM     30  C   UNL     1       2.346   1.406   0.004  0.00  0.00    +0.004 A 
ATOM     31  C   UNL     1       2.373   0.024  -0.006  0.00  0.00    -0.045 A 
ATOM     32  C   UNL     1       1.190  -0.690   0.010  0.00  0.00    +0.004 A 
ATOM     33  C   UNL     1      -0.021  -0.022   0.034  0.00  0.00    +0.000 A 
ENDBRANCH  27  31
ENDBRANCH   1  27
TORSDOF 4
