REMARK  Name = ZINC27549773
REMARK  12 active torsions:
REMARK  status: ('A' for Active; 'I' for Inactive)
REMARK    1  A    between atoms: C_1  and  C_2
REMARK    2  A    between atoms: C_2  and  C_3
REMARK    3  A    between atoms: C_9  and  C_10
REMARK    4  A    between atoms: C_12  and  O_29
REMARK    5  A    between atoms: C_13  and  O_17
REMARK    6  A    between atoms: O_17  and  C_18
REMARK    7  A    between atoms: C_18  and  C_19
REMARK    8  A    between atoms: C_19  and  O_20
REMARK    9  A    between atoms: O_20  and  C_21
REMARK   10  A    between atoms: C_23  and  C_28
REMARK   11  A    between atoms: C_26  and  C_27
REMARK   12  A    between atoms: O_29  and  C_30
REMARK                            x       y       z     vdW  Elec       q    Type
REMARK                         _______ _______ _______ _____ _____    ______ ____
ROOT
ATOM      1  C   UNL     1       5.588  -0.908   6.269  0.00  0.00    -0.019 A 
ATOM      2  C   UNL     1       6.695  -0.365   6.938  0.00  0.00    +0.057 A 
ATOM      3  C   UNL     1       7.651  -1.203   7.475  0.00  0.00    +0.164 A 
ATOM      4  C   UNL     1       7.516  -2.586   7.353  0.00  0.00    +0.180 A 
ATOM      5  C   UNL     1       6.420  -3.127   6.690  0.00  0.00    +0.087 A 
ATOM      6  C   UNL     1       5.457  -2.299   6.156  0.00  0.00    +0.032 A 
ATOM      7 CL   UNL     1       6.261  -4.849   6.542  0.00  0.00    -0.080 Cl
ENDROOT
BRANCH   1  14
ATOM      8  C   UNL     1       4.093   5.827   4.979  0.00  0.00    +0.100 C 
ATOM      9  N   UNL     1       3.582   4.629   4.944  0.00  0.00    -0.169 NA
ATOM     10  N   UNL     1       4.383   3.513   4.834  0.00  0.00    -0.152 N 
ATOM     11  C   UNL     1       3.931   2.183   4.698  0.00  0.00    +0.152 C 
ATOM     12  N   UNL     1       2.746   1.870   4.245  0.00  0.00    -0.283 NA
ATOM     13  C   UNL     1       4.939   1.170   5.121  0.00  0.00    +0.081 C 
ATOM     14  C   UNL     1       4.569  -0.025   5.697  0.00  0.00    +0.024 C 
ATOM     15  C   UNL     1       6.363   1.518   4.888  0.00  0.00    +0.273 C 
ATOM     16  O   UNL     1       7.209   0.648   4.762  0.00  0.00    -0.268 OA
ATOM     17  N   UNL     1       6.694   2.822   4.819  0.00  0.00    -0.152 NA
ATOM     18  C   UNL     1       5.745   3.725   4.829  0.00  0.00    +0.181 C 
ATOM     19  S   UNL     1       5.845   5.495   4.856  0.00  0.00    -0.038 S 
ATOM     20  H   UNL     1       2.127   2.570   3.983  0.00  0.00    +0.188 HD
BRANCH   8  22
ATOM     21  C   UNL     1       1.876   6.922   5.166  0.00  0.00    +0.011 C 
ATOM     22  C   UNL     1       3.386   7.154   5.088  0.00  0.00    +0.061 C 
ENDBRANCH   8  22
ENDBRANCH   1  14
BRANCH   3  23
ATOM     23  O   UNL     1       8.726  -0.680   8.123  0.00  0.00    -0.491 OA
ATOM     24  C   UNL     1       8.801   0.745   8.210  0.00  0.00    +0.277 C 
ENDBRANCH   3  23
BRANCH   4  25
ATOM     25  O   UNL     1       8.459  -3.407   7.883  0.00  0.00    -0.483 OA
BRANCH  25  26
ATOM     26  C   UNL     1       8.264  -3.833   9.232  0.00  0.00    +0.270 C 
BRANCH  26  27
ATOM     27  C   UNL     1       9.418  -4.745   9.652  0.00  0.00    +0.270 C 
BRANCH  27  28
ATOM     28  O   UNL     1      10.636  -3.997   9.664  0.00  0.00    -0.488 OA
BRANCH  28  29
ATOM     29  C   UNL     1      11.766  -4.664  10.017  0.00  0.00    +0.124 A 
ATOM     30  C   UNL     1      11.706  -6.012  10.340  0.00  0.00    +0.049 A 
ATOM     31  C   UNL     1      12.856  -6.688  10.698  0.00  0.00    -0.047 A 
ATOM     32  C   UNL     1      14.067  -6.021  10.735  0.00  0.00    +0.004 A 
ATOM     33  C   UNL     1      14.130  -4.678  10.415  0.00  0.00    +0.007 A 
ATOM     34  C   UNL     1      12.983  -3.999  10.050  0.00  0.00    -0.009 A 
ATOM     35  C   UNL     1      13.053  -2.537   9.694  0.00  0.00    +0.047 C 
ATOM     36  C   UNL     1      12.791  -8.152  11.050  0.00  0.00    +0.044 C 
ENDBRANCH  28  29
ENDBRANCH  27  28
ENDBRANCH  26  27
ENDBRANCH  25  26
ENDBRANCH   4  25
TORSDOF 8
