REMARK  Name = ZINC49117605
REMARK  7 active torsions:
REMARK  status: ('A' for Active; 'I' for Inactive)
REMARK    1  A    between atoms: C_1  and  C_2
REMARK    2  A    between atoms: C_2  and  C_3
REMARK    3  A    between atoms: C_9  and  N_11
REMARK    4  A    between atoms: N_11  and  S_12
REMARK    5  A    between atoms: S_12  and  C_15
REMARK    6  A    between atoms: C_18  and  O_22
REMARK    7  A    between atoms: C_19  and  N_21
REMARK                            x       y       z     vdW  Elec       q    Type
REMARK                         _______ _______ _______ _____ _____    ______ ____
ROOT
ATOM      1  S   UNL     1       0.158  -3.801  -1.463  0.00  0.00    +0.059 S 
ATOM      2  O   UNL     1       0.619  -3.900  -2.804  0.00  0.00    -0.153 OA
ATOM      3  O   UNL     1       1.044  -3.760  -0.354  0.00  0.00    -0.153 OA
ENDROOT
BRANCH   1   4
ATOM      4  C   UNL     1      -0.918  -5.171  -1.199  0.00  0.00    +0.107 A 
ATOM      5  C   UNL     1      -1.139  -5.637   0.084  0.00  0.00    +0.032 A 
ATOM      6  C   UNL     1      -1.982  -6.712   0.298  0.00  0.00    +0.049 A 
ATOM      7  C   UNL     1      -2.608  -7.325  -0.774  0.00  0.00    +0.137 A 
ATOM      8  C   UNL     1      -2.386  -6.857  -2.067  0.00  0.00    +0.068 A 
ATOM      9  C   UNL     1      -1.543  -5.775  -2.274  0.00  0.00    +0.055 A 
BRANCH   8  10
ATOM     10  N   UNL     1      -3.016  -7.473  -3.154  0.00  0.00    -0.355 N 
ATOM     11  H   UNL     1      -3.607  -8.228  -3.008  0.00  0.00    +0.142 HD
ATOM     12  H   UNL     1      -2.860  -7.146  -4.054  0.00  0.00    +0.142 HD
ENDBRANCH   8  10
BRANCH   7  13
ATOM     13  O   UNL     1      -3.437  -8.383  -0.565  0.00  0.00    -0.505 OA
ATOM     14  H   UNL     1      -4.361  -8.136  -0.421  0.00  0.00    +0.292 HD
ENDBRANCH   7  13
ENDBRANCH   1   4
BRANCH   1  15
ATOM     15  N   UNL     1      -0.767  -2.429  -1.381  0.00  0.00    -0.187 NA
ATOM     16  H   UNL     1      -0.880  -1.873  -2.167  0.00  0.00    +0.148 HD
BRANCH  15  22
ATOM     17  C   UNL     1      -1.433  -0.534   0.013  0.00  0.00    +0.007 C 
ATOM     18  C   UNL     1      -2.110  -0.145   1.329  0.00  0.00    +0.005 C 
ATOM     19  C   UNL     1      -3.546  -0.675   1.340  0.00  0.00    +0.000 C 
ATOM     20  C   UNL     1      -3.528  -2.199   1.206  0.00  0.00    +0.002 C 
ATOM     21  C   UNL     1      -2.851  -2.587  -0.110  0.00  0.00    +0.020 C 
ATOM     22  C   UNL     1      -1.416  -2.058  -0.121  0.00  0.00    +0.080 C 
BRANCH  17  24
ATOM     23  C   UNL     1      -0.019   1.526   0.010  0.00  0.00    +0.004 C 
ATOM     24  C   UNL     1       0.002  -0.004   0.002  0.00  0.00    +0.002 C 
ENDBRANCH  17  24
ENDBRANCH  15  22
ENDBRANCH   1  15
TORSDOF 6
