REMARK  Name = ZINC01645738
REMARK  8 active torsions:
REMARK  status: ('A' for Active; 'I' for Inactive)
REMARK    1  A    between atoms: C_1  and  C_2
REMARK    2  A    between atoms: C_2  and  C_4
REMARK    3  A    between atoms: C_2  and  O_26
REMARK    4  A    between atoms: C_4  and  C_16
REMARK    5  A    between atoms: C_6  and  C_8
REMARK    6  A    between atoms: C_8  and  C_9
REMARK    7  A    between atoms: C_9  and  C_10
REMARK    8  A    between atoms: C_16  and  N_17
REMARK                            x       y       z     vdW  Elec       q    Type
REMARK                         _______ _______ _______ _____ _____    ______ ____
ROOT
ATOM      1  C   UNL     1      -6.112  -0.175   2.400  0.00  0.00    +0.012 C 
ATOM      2  C   UNL     1      -4.633   0.192   2.609  0.00  0.00    +0.014 C 
ATOM      3  C   UNL     1      -4.617   0.639   1.138  0.00  0.00    -0.009 C 
ATOM      4  C   UNL     1      -6.130   0.873   1.274  0.00  0.00    +0.014 C 
ENDROOT
BRANCH   1   6
ATOM      5  C   UNL     1      -5.887  -2.591   2.994  0.00  0.00    +0.038 C 
ATOM      6  C   UNL     1      -6.324  -1.608   1.907  0.00  0.00    +0.119 C 
BRANCH   6   7
ATOM      7  O   UNL     1      -5.547  -1.826   0.728  0.00  0.00    -0.391 OA
ATOM      8  H   UNL     1      -4.593  -1.845   0.883  0.00  0.00    +0.210 HD
ENDBRANCH   6   7
ENDBRANCH   1   6
BRANCH   3   9
ATOM      9  C   UNL     1      -3.818   1.921   0.895  0.00  0.00    +0.008 C 
BRANCH   9  10
ATOM     10  C   UNL     1      -3.759   2.209  -0.606  0.00  0.00    +0.035 C 
BRANCH  10  11
ATOM     11  C   UNL     1      -2.972   3.472  -0.845  0.00  0.00    -0.047 A 
ATOM     12  C   UNL     1      -1.605   3.408  -1.039  0.00  0.00    +0.003 A 
ATOM     13  C   UNL     1      -0.884   4.565  -1.263  0.00  0.00    +0.000 A 
ATOM     14  C   UNL     1      -1.529   5.788  -1.289  0.00  0.00    +0.000 A 
ATOM     15  C   UNL     1      -2.895   5.852  -1.090  0.00  0.00    +0.000 A 
ATOM     16  C   UNL     1      -3.616   4.694  -0.865  0.00  0.00    +0.003 A 
ENDBRANCH  10  11
ENDBRANCH   9  10
ENDBRANCH   3   9
BRANCH   1  17
ATOM     17  C   UNL     1      -7.007   0.185   3.587  0.00  0.00    +0.112 C 
BRANCH  17  18
ATOM     18  N   UNL     1      -8.406  -0.076   3.241  0.00  0.00    -0.328 N 
ATOM     19  C   UNL     1      -9.410   0.206   4.154  0.00  0.00    +0.125 A 
ATOM     20  C   UNL     1      -9.098   0.734   5.407  0.00  0.00    +0.083 A 
ATOM     21  C   UNL     1     -10.133   1.006   6.284  0.00  0.00    +0.136 A 
ATOM     22  N   UNL     1     -11.380   0.748   5.914  0.00  0.00    -0.203 NA
ATOM     23  C   UNL     1     -11.645   0.241   4.719  0.00  0.00    +0.216 A 
ATOM     24  N   UNL     1     -10.682  -0.028   3.849  0.00  0.00    -0.200 NA
ATOM     25  N   UNL     1     -12.960  -0.014   4.371  0.00  0.00    -0.327 N 
ATOM     26 CL   UNL     1      -9.802   1.669   7.854  0.00  0.00    -0.062 Cl
ATOM     27  H   UNL     1      -8.630  -0.447   2.373  0.00  0.00    +0.147 HD
ATOM     28  H   UNL     1     -13.167  -0.385   3.499  0.00  0.00    +0.145 HD
ATOM     29  H   UNL     1     -13.674   0.178   4.998  0.00  0.00    +0.145 HD
ENDBRANCH  17  18
ENDBRANCH   1  17
TORSDOF 7
