REMARK  Name = ZINC26113782
REMARK  8 active torsions:
REMARK  status: ('A' for Active; 'I' for Inactive)
REMARK    1  A    between atoms: C_3  and  O_26
REMARK    2  A    between atoms: C_6  and  C_7
REMARK    3  A    between atoms: C_7  and  C_8
REMARK    4  A    between atoms: C_8  and  C_9
REMARK    5  A    between atoms: N_12  and  C_15
REMARK    6  A    between atoms: C_15  and  C_16
REMARK    7  A    between atoms: N_18  and  C_19
REMARK    8  A    between atoms: C_20  and  C_24
REMARK                            x       y       z     vdW  Elec       q    Type
REMARK                         _______ _______ _______ _____ _____    ______ ____
ROOT
ATOM      1  C   UNL     1      -3.061  -1.808  -1.420  0.00  0.00    -0.014 C 
ATOM      2  C   UNL     1      -2.825  -3.201  -0.829  0.00  0.00    -0.015 C 
ATOM      3  C   UNL     1      -4.126  -4.005  -0.896  0.00  0.00    -0.078 C 
ATOM      4  N   UNL     1      -4.555  -4.131  -2.294  0.00  0.00    +0.385 N 
ATOM      5  C   UNL     1      -4.852  -2.804  -2.846  0.00  0.00    -0.078 C 
ATOM      6  C   UNL     1      -3.580  -1.954  -2.853  0.00  0.00    -0.015 C 
ATOM      7  H   UNL     1      -3.819  -4.562  -2.833  0.00  0.00    -0.081 HD
ENDROOT
BRANCH   1   8
ATOM      8  C   UNL     1      -1.746  -1.027  -1.429  0.00  0.00    +0.008 C 
BRANCH   8   9
ATOM      9  C   UNL     1      -1.293  -0.774   0.011  0.00  0.00    +0.035 C 
BRANCH   9  15
ATOM     10  C   UNL     1      -0.017   1.378   0.010  0.00  0.00    +0.007 A 
ATOM     11  C   UNL     1       1.169   2.087   0.002  0.00  0.00    +0.045 A 
ATOM     12  C   UNL     1       2.380   1.409  -0.013  0.00  0.00    +0.117 A 
ATOM     13  C   UNL     1       2.396   0.022  -0.021  0.00  0.00    +0.045 A 
ATOM     14  C   UNL     1       1.207  -0.681  -0.013  0.00  0.00    +0.007 A 
ATOM     15  C   UNL     1       0.002  -0.004   0.002  0.00  0.00    -0.047 A 
BRANCH  12  16
ATOM     16  O   UNL     1       3.548   2.104  -0.021  0.00  0.00    -0.507 OA
ATOM     17  H   UNL     1       3.895   2.300   0.860  0.00  0.00    +0.292 HD
ENDBRANCH  12  16
ENDBRANCH   9  15
ENDBRANCH   8   9
ENDBRANCH   1   8
BRANCH   4  18
ATOM     18  C   UNL     1      -5.760  -4.969  -2.361  0.00  0.00    +0.019 C 
BRANCH  18  19
ATOM     19  C   UNL     1      -6.132  -5.201  -3.803  0.00  0.00    +0.201 C 
ATOM     20  O   UNL     1      -5.459  -4.717  -4.688  0.00  0.00    -0.278 OA
ATOM     21  N   UNL     1      -7.212  -5.947  -4.109  0.00  0.00    -0.281 N 
ATOM     22  H   UNL     1      -7.750  -6.335  -3.401  0.00  0.00    +0.155 HD
BRANCH  21  23
ATOM     23  C   UNL     1      -7.554  -6.161  -5.437  0.00  0.00    +0.089 A 
ATOM     24  C   UNL     1      -8.623  -6.889  -5.934  0.00  0.00    +0.080 A 
ATOM     25  C   UNL     1      -8.749  -6.952  -7.372  0.00  0.00    +0.028 A 
ATOM     26  C   UNL     1      -7.808  -6.292  -8.073  0.00  0.00    +0.048 A 
ATOM     27  S   UNL     1      -6.772  -5.591  -6.808  0.00  0.00    -0.081 S 
BRANCH  24  28
ATOM     28  C   UNL     1      -9.555  -7.546  -5.068  0.00  0.00    +0.102 C 
ATOM     29  N   UNL     1     -10.294  -8.067  -4.380  0.00  0.00    -0.191 NA
ENDBRANCH  24  28
ENDBRANCH  21  23
ENDBRANCH  18  19
ENDBRANCH   4  18
TORSDOF 8
