REMARK  Name = ZINC12132885
REMARK  6 active torsions:
REMARK  status: ('A' for Active; 'I' for Inactive)
REMARK    1  A    between atoms: C_1  and  C_2
REMARK    2  A    between atoms: C_10  and  C_13
REMARK    3  A    between atoms: C_14  and  C_15
REMARK    4  A    between atoms: C_14  and  N_53
REMARK    5  A    between atoms: C_15  and  N_16
REMARK    6  A    between atoms: C_17  and  C_19
REMARK                            x       y       z     vdW  Elec       q    Type
REMARK                         _______ _______ _______ _____ _____    ______ ____
ROOT
ATOM      1  C   UNL     1      -5.190  -0.105  -0.500  0.00  0.00    +0.086 C 
ENDROOT
BRANCH   1   2
ATOM      2  N   UNL     1      -6.024  -1.268  -0.812  0.00  0.00    -0.313 N 
ATOM      3  C   UNL     1      -7.088  -1.562  -0.038  0.00  0.00    +0.251 C 
ATOM      4  O   UNL     1      -7.354  -0.862   0.920  0.00  0.00    -0.270 OA
ATOM      5  H   UNL     1      -5.812  -1.826  -1.577  0.00  0.00    +0.149 HD
BRANCH   3   6
ATOM      6  C   UNL     1      -7.926  -2.731  -0.352  0.00  0.00    +0.122 A 
ATOM      7  C   UNL     1      -7.638  -3.532  -1.444  0.00  0.00    +0.031 A 
ATOM      8  C   UNL     1      -8.469  -4.650  -1.707  0.00  0.00    +0.018 A 
ATOM      9  C   UNL     1      -8.203  -5.486  -2.801  0.00  0.00    +0.011 A 
ATOM     10  C   UNL     1      -9.011  -6.557  -3.052  0.00  0.00    +0.001 A 
ATOM     11  C   UNL     1     -10.097  -6.826  -2.230  0.00  0.00    +0.004 A 
ATOM     12  C   UNL     1     -10.378  -6.019  -1.149  0.00  0.00    +0.047 A 
ATOM     13  C   UNL     1      -9.569  -4.921  -0.873  0.00  0.00    +0.139 A 
ATOM     14  O   UNL     1      -9.847  -4.131   0.186  0.00  0.00    -0.422 OA
ATOM     15  C   UNL     1      -9.087  -3.063   0.482  0.00  0.00    +0.350 A 
ATOM     16  O   UNL     1      -9.362  -2.370   1.443  0.00  0.00    -0.244 OA
ENDBRANCH   3   6
ENDBRANCH   1   2
BRANCH   1  17
ATOM     17  C   UNL     1      -4.060   0.003  -1.525  0.00  0.00    -0.059 C 
BRANCH  17  30
ATOM     18  C   UNL     1       2.491   1.054  -0.015  0.00  0.00    +0.044 C 
ATOM     19  C   UNL     1       1.174   1.787   0.000  0.00  0.00    -0.050 A 
ATOM     20  C   UNL     1       1.155   3.170   0.008  0.00  0.00    +0.007 A 
ATOM     21  C   UNL     1      -0.050   3.848   0.014  0.00  0.00    +0.046 A 
ATOM     22  C   UNL     1      -1.239   3.134   0.013  0.00  0.00    +0.122 A 
ATOM     23  C   UNL     1      -1.215   1.753   0.017  0.00  0.00    -0.022 A 
ATOM     24  C   UNL     1      -0.013   1.076   0.008  0.00  0.00    +0.008 A 
ATOM     25  C   UNL     1      -2.521   0.984   0.063  0.00  0.00    -0.039 C 
ATOM     26  C   UNL     1      -4.007   2.400  -1.246  0.00  0.00    -0.033 C 
ATOM     27  C   UNL     1      -3.163   3.656  -1.258  0.00  0.00    +0.154 C 
ATOM     28  O   UNL     1      -2.432   3.790  -0.023  0.00  0.00    -0.491 OA
ATOM     29  C   UNL     1      -4.074   4.873  -1.435  0.00  0.00    +0.050 C 
ATOM     30  N   UNL     1      -3.199   1.163  -1.243  0.00  0.00    +0.386 N 
ATOM     31  H   UNL     1      -2.485   1.233  -1.978  0.00  0.00    -0.081 HD
ENDBRANCH  17  30
ENDBRANCH   1  17
TORSDOF 4
