REMARK  Name = ZINC13573631
REMARK  6 active torsions:
REMARK  status: ('A' for Active; 'I' for Inactive)
REMARK    1  A    between atoms: C_1  and  C_2
REMARK    2  A    between atoms: C_2  and  C_14
REMARK    3  A    between atoms: N_3  and  N_4
REMARK    4  A    between atoms: C_5  and  C_7
REMARK    5  A    between atoms: C_14  and  C_15
REMARK    6  A    between atoms: N_17  and  C_18
REMARK                            x       y       z     vdW  Elec       q    Type
REMARK                         _______ _______ _______ _____ _____    ______ ____
ROOT
ATOM      1  C   UNL     1      -2.216  -4.256   0.000  0.00  0.00    +0.147 C 
ENDROOT
BRANCH   1   2
ATOM      2  C   UNL     1      -2.797  -4.774   1.291  0.00  0.00    +0.219 C 
ATOM      3  O   UNL     1      -3.190  -3.996   2.134  0.00  0.00    -0.275 OA
ATOM      4  N   UNL     1      -2.881  -6.101   1.508  0.00  0.00    -0.309 N 
ATOM      5  H   UNL     1      -2.568  -6.724   0.833  0.00  0.00    +0.149 HD
BRANCH   4   6
ATOM      6  C   UNL     1      -3.446  -6.604   2.762  0.00  0.00    +0.035 C 
ATOM      7  C   UNL     1      -2.615  -6.090   3.939  0.00  0.00    +0.029 C 
ATOM      8  C   UNL     1      -3.205  -6.615   5.249  0.00  0.00    -0.008 C 
ATOM      9  C   UNL     1      -3.184  -8.145   5.241  0.00  0.00    +0.007 C 
ATOM     10  C   UNL     1      -4.016  -8.659   4.064  0.00  0.00    -0.008 C 
ATOM     11  C   UNL     1      -3.426  -8.134   2.754  0.00  0.00    +0.029 C 
ATOM     12  C   UNL     1      -5.458  -8.170   4.206  0.00  0.00    +0.007 C 
ATOM     13  C   UNL     1      -5.479  -6.640   4.215  0.00  0.00    -0.008 C 
ATOM     14  C   UNL     1      -4.647  -6.125   5.391  0.00  0.00    +0.007 C 
ATOM     15  C   UNL     1      -4.889  -6.115   2.905  0.00  0.00    +0.029 C 
ENDBRANCH   4   6
ENDBRANCH   1   2
BRANCH   1  17
ATOM     16  C   UNL     1      -3.552  -2.014   0.025  0.00  0.00    +0.063 C 
ATOM     17  C   UNL     1      -2.237  -2.750   0.009  0.00  0.00    +0.043 C 
ATOM     18  N   UNL     1      -1.137  -2.095   0.002  0.00  0.00    -0.189 NA
BRANCH  18  19
ATOM     19  N   UNL     1      -1.156  -0.694   0.009  0.00  0.00    -0.203 N 
ATOM     20  C   UNL     1       0.002  -0.004   0.002  0.00  0.00    +0.264 C 
ATOM     21  O   UNL     1       1.063  -0.598  -0.011  0.00  0.00    -0.268 OA
ATOM     22  H   UNL     1      -2.002  -0.220   0.020  0.00  0.00    +0.178 HD
BRANCH  20  23
ATOM     23  C   UNL     1      -0.018   1.473   0.010  0.00  0.00    +0.052 A 
ATOM     24  C   UNL     1      -1.235   2.158   0.020  0.00  0.00    +0.014 A 
ATOM     25  C   UNL     1      -1.246   3.537   0.031  0.00  0.00    +0.001 A 
ATOM     26  C   UNL     1      -0.056   4.243   0.024  0.00  0.00    +0.001 A 
ATOM     27  C   UNL     1       1.153   3.572   0.010  0.00  0.00    +0.016 A 
ATOM     28  C   UNL     1       1.180   2.191   0.003  0.00  0.00    +0.030 A 
ATOM     29 BR   UNL     1       2.834   1.275  -0.018  0.00  0.00    -0.050 Br
ENDBRANCH  20  23
ENDBRANCH  18  19
ENDBRANCH   1  17
TORSDOF 5
