REMARK  Name = ZINC61697835
REMARK  7 active torsions:
REMARK  status: ('A' for Active; 'I' for Inactive)
REMARK    1  A    between atoms: C_1  and  C_2
REMARK    2  A    between atoms: C_5  and  N_20
REMARK    3  A    between atoms: C_7  and  O_8
REMARK    4  A    between atoms: O_8  and  C_9
REMARK    5  A    between atoms: C_12  and  C_16
REMARK    6  A    between atoms: C_16  and  C_18
REMARK    7  A    between atoms: C_16  and  O_19
REMARK                            x       y       z     vdW  Elec       q    Type
REMARK                         _______ _______ _______ _____ _____    ______ ____
ROOT
ATOM      1  O   UNL     1       0.025  -0.034   2.381  0.00  0.00    -0.455 OA
ENDROOT
BRANCH   1   8
ATOM      2  C   UNL     1      -0.085   1.825   0.256  0.00  0.00    +0.047 C 
ATOM      3  C   UNL     1       1.210   1.402   0.899  0.00  0.00    -0.008 A 
ATOM      4  C   UNL     1       2.408   1.931   0.457  0.00  0.00    +0.009 A 
ATOM      5  C   UNL     1       3.596   1.543   1.047  0.00  0.00    +0.033 A 
ATOM      6  C   UNL     1       3.591   0.625   2.081  0.00  0.00    +0.130 A 
ATOM      7  C   UNL     1       2.397   0.093   2.527  0.00  0.00    +0.079 A 
ATOM      8  C   UNL     1       1.202   0.485   1.940  0.00  0.00    +0.134 A 
BRANCH   6   9
ATOM      9  N   UNL     1       4.865   0.211   2.709  0.00  0.00    +0.057 N 
ATOM     10  O   UNL     1       5.911   0.677   2.319  0.00  0.00    -0.126 OA
ATOM     11  O   UNL     1       4.861  -0.592   3.613  0.00  0.00    -0.126 OA
ENDBRANCH   6   9
ENDBRANCH   1   8
BRANCH   1  12
ATOM     12  C   UNL     1       0.054  -0.847   3.469  0.00  0.00    +0.142 A 
ATOM     13  C   UNL     1       0.136  -2.223   3.306  0.00  0.00    +0.048 A 
ATOM     14  C   UNL     1       0.165  -3.048   4.413  0.00  0.00    +0.010 A 
ATOM     15  C   UNL     1       0.113  -2.505   5.684  0.00  0.00    -0.018 A 
ATOM     16  C   UNL     1       0.030  -1.135   5.850  0.00  0.00    +0.025 A 
ATOM     17  C   UNL     1       0.007  -0.304   4.745  0.00  0.00    +0.060 A 
ATOM     18 BR   UNL     1      -0.096   1.571   4.973  0.00  0.00    -0.046 Br
BRANCH  15  19
ATOM     19  C   UNL     1       0.145  -3.408   6.890  0.00  0.00    +0.141 C 
ATOM     20  C   UNL     1       1.559  -3.432   7.472  0.00  0.00    +0.043 C 
BRANCH  19  21
ATOM     21  O   UNL     1      -0.767  -2.919   7.875  0.00  0.00    -0.387 OA
ATOM     22  H   UNL     1      -0.799  -3.453   8.681  0.00  0.00    +0.210 HD
ENDBRANCH  19  21
ENDBRANCH  15  19
ENDBRANCH   1  12
TORSDOF 5
