REMARK  Name = ZINC20705923
REMARK  8 active torsions:
REMARK  status: ('A' for Active; 'I' for Inactive)
REMARK    1  A    between atoms: C_1  and  C_2
REMARK    2  A    between atoms: C_2  and  C_3
REMARK    3  A    between atoms: C_2  and  C_4
REMARK    4  A    between atoms: C_2  and  N_5
REMARK    5  A    between atoms: N_5  and  S_6
REMARK    6  A    between atoms: S_6  and  C_9
REMARK    7  A    between atoms: C_22  and  C_25
REMARK    8  A    between atoms: C_27  and  N_32
REMARK                            x       y       z     vdW  Elec       q    Type
REMARK                         _______ _______ _______ _____ _____    ______ ____
ROOT
ATOM      1  C   UNL     1      -3.623  -5.326   0.023  0.00  0.00    +0.106 A 
ATOM      2  C   UNL     1      -3.080  -5.003  -1.207  0.00  0.00    +0.030 A 
ATOM      3  C   UNL     1      -2.546  -3.749  -1.421  0.00  0.00    +0.025 A 
ATOM      4  C   UNL     1      -2.549  -2.802  -0.404  0.00  0.00    +0.031 A 
ATOM      5  C   UNL     1      -3.112  -3.131   0.834  0.00  0.00    -0.018 A 
ATOM      6  C   UNL     1      -3.637  -4.388   1.039  0.00  0.00    +0.034 A 
ATOM      7  C   UNL     1      -3.116  -2.087   1.881  0.00  0.00    +0.049 C 
ATOM      8  C   UNL     1      -3.143  -2.423   3.327  0.00  0.00    -0.023 C 
ATOM      9  C   UNL     1      -2.495  -1.476   3.994  0.00  0.00    -0.030 C 
ATOM     10  C   UNL     1      -1.947  -0.431   3.020  0.00  0.00    +0.033 C 
ATOM     11  C   UNL     1      -1.809  -1.253   1.731  0.00  0.00    +0.029 C 
ATOM     12  C   UNL     1      -1.952  -0.507   0.417  0.00  0.00    +0.106 C 
ATOM     13  N   UNL     1      -1.967  -1.549  -0.633  0.00  0.00    -0.336 N 
ATOM     14  H   UNL     1      -1.516  -1.346  -1.616  0.00  0.00    +0.147 HD
ENDROOT
BRANCH  12  15
ATOM     15  C   UNL     1      -0.782   0.419   0.213  0.00  0.00    -0.007 A 
ATOM     16  C   UNL     1       0.387   0.224   0.926  0.00  0.00    +0.039 A 
ATOM     17  C   UNL     1       1.460   1.074   0.740  0.00  0.00    +0.127 A 
ATOM     18  C   UNL     1       1.367   2.121  -0.159  0.00  0.00    +0.034 A 
ATOM     19  C   UNL     1       0.199   2.317  -0.872  0.00  0.00    +0.022 A 
ATOM     20  C   UNL     1      -0.876   1.466  -0.686  0.00  0.00    +0.046 A 
ATOM     21 CL   UNL     1      -2.340   1.708  -1.587  0.00  0.00    -0.083 Cl
BRANCH  17  22
ATOM     22  N   UNL     1       2.711   0.864   1.503  0.00  0.00    +0.056 N 
ATOM     23  O   UNL     1       2.794  -0.058   2.294  0.00  0.00    -0.126 OA
ATOM     24  O   UNL     1       3.658   1.613   1.339  0.00  0.00    -0.126 OA
ENDBRANCH  17  22
ENDBRANCH  12  15
BRANCH   1  25
ATOM     25  S   UNL     1      -4.295  -6.932   0.296  0.00  0.00    +0.059 S 
ATOM     26  O   UNL     1      -3.506  -7.837  -0.464  0.00  0.00    -0.153 OA
ATOM     27  O   UNL     1      -4.469  -7.066   1.700  0.00  0.00    -0.153 OA
BRANCH  25  28
ATOM     28  N   UNL     1      -5.810  -6.948  -0.372  0.00  0.00    -0.185 NA
ATOM     29  H   UNL     1      -6.048  -7.693  -1.146  0.00  0.00    +0.149 HD
BRANCH  28  31
ATOM     30  C   UNL     1      -6.427  -4.670   0.269  0.00  0.00    +0.029 C 
ATOM     31  C   UNL     1      -6.877  -6.131   0.212  0.00  0.00    +0.032 C 
ATOM     32  C   UNL     1      -8.136  -6.244  -0.651  0.00  0.00    +0.029 C 
ATOM     33  C   UNL     1      -7.183  -6.627   1.626  0.00  0.00    +0.029 C 
ENDBRANCH  28  31
ENDBRANCH  25  28
ENDBRANCH   1  25
TORSDOF 5
