REMARK  Name = ZINC38743279
REMARK  5 active torsions:
REMARK  status: ('A' for Active; 'I' for Inactive)
REMARK    1  A    between atoms: C_1  and  O_2
REMARK    2  A    between atoms: O_2  and  C_3
REMARK    3  A    between atoms: C_6  and  C_9
REMARK    4  A    between atoms: C_11  and  C_15
REMARK    5  A    between atoms: C_23  and  C_25
REMARK                            x       y       z     vdW  Elec       q    Type
REMARK                         _______ _______ _______ _____ _____    ______ ____
ROOT
ATOM      1  C   UNL     1       2.628  -4.798   6.770  0.00  0.00    +0.206 C 
ATOM      2  N   UNL     1       2.345  -6.169   6.283  0.00  0.00    -0.231 NA
ATOM      3  N   UNL     1       2.855  -7.093   7.311  0.00  0.00    -0.224 NA
ATOM      4  C   UNL     1       2.839  -6.267   8.535  0.00  0.00    +0.240 C 
ATOM      5  N   UNL     1       3.394  -4.971   8.025  0.00  0.00    -0.206 N 
ATOM      6  N   UNL     1       4.415  -4.463   8.799  0.00  0.00    -0.173 NA
ATOM      7  C   UNL     1       5.054  -5.175   9.682  0.00  0.00    +0.125 C 
ATOM      8  S   UNL     1       4.165  -6.762   9.697  0.00  0.00    -0.063 S 
ATOM      9  H   UNL     1       1.357  -6.304   6.134  0.00  0.00    +0.143 HD
ATOM     10  H   UNL     1       2.251  -7.895   7.407  0.00  0.00    +0.144 HD
ENDROOT
BRANCH   7  11
ATOM     11  C   UNL     1       6.227  -4.783  10.493  0.00  0.00    +0.009 A 
ATOM     12  C   UNL     1       6.790  -5.688  11.393  0.00  0.00    +0.013 A 
ATOM     13  C   UNL     1       7.883  -5.318  12.147  0.00  0.00    +0.039 A 
ATOM     14  C   UNL     1       8.423  -4.049  12.012  0.00  0.00    +0.123 A 
ATOM     15  C   UNL     1       7.869  -3.146  11.119  0.00  0.00    +0.039 A 
ATOM     16  C   UNL     1       6.778  -3.508  10.356  0.00  0.00    +0.013 A 
ATOM     17  F   UNL     1       9.494  -3.690  12.753  0.00  0.00    -0.205 F 
ENDBRANCH   7  11
BRANCH   1  20
ATOM     18  C   UNL     1       2.577  -2.541   4.295  0.00  0.00    +0.091 C 
ATOM     19  C   UNL     1       2.697  -3.875   4.440  0.00  0.00    +0.034 C 
ATOM     20  C   UNL     1       3.462  -4.032   5.742  0.00  0.00    +0.190 C 
ATOM     21  N   UNL     1       3.679  -2.642   6.174  0.00  0.00    -0.176 NA
ATOM     22  N   UNL     1       3.173  -1.896   5.332  0.00  0.00    -0.154 NA
BRANCH  18  26
ATOM     23  C   UNL     1       0.626  -0.618   1.041  0.00  0.00    +0.120 A 
ATOM     24  C   UNL     1       1.202   0.142   2.050  0.00  0.00    +0.046 A 
ATOM     25  C   UNL     1       1.835  -0.479   3.107  0.00  0.00    +0.013 A 
ATOM     26  C   UNL     1       1.896  -1.870   3.161  0.00  0.00    +0.002 A 
ATOM     27  C   UNL     1       1.317  -2.631   2.146  0.00  0.00    +0.013 A 
ATOM     28  C   UNL     1       0.681  -2.005   1.095  0.00  0.00    +0.046 A 
BRANCH  23  30
ATOM     29  C   UNL     1      -0.017   1.425   0.010  0.00  0.00    +0.277 C 
ATOM     30  O   UNL     1       0.002  -0.004   0.002  0.00  0.00    -0.495 OA
ENDBRANCH  23  30
ENDBRANCH  18  26
ENDBRANCH   1  20
TORSDOF 4
