REMARK  Name = ZINC22524085
REMARK  10 active torsions:
REMARK  status: ('A' for Active; 'I' for Inactive)
REMARK    1  A    between atoms: C_1  and  C_2
REMARK    2  A    between atoms: C_2  and  C_4
REMARK    3  A    between atoms: C_2  and  S_19
REMARK    4  A    between atoms: C_16  and  C_17
REMARK    5  A    between atoms: C_16  and  C_18
REMARK    6  A    between atoms: S_19  and  C_20
REMARK    7  A    between atoms: C_23  and  C_30
REMARK    8  A    between atoms: N_24  and  C_25
REMARK    9  A    between atoms: C_25  and  C_26
REMARK   10  A    between atoms: C_26  and  C_27
REMARK                            x       y       z     vdW  Elec       q    Type
REMARK                         _______ _______ _______ _____ _____    ______ ____
ROOT
ATOM      1  C   UNL     1       0.276  -1.807   4.098  0.00  0.00    +0.029 C 
ATOM      2  C   UNL     1       1.251  -0.736   3.604  0.00  0.00    +0.137 C 
ENDROOT
BRANCH   2   3
ATOM      3  C   UNL     1       0.618   0.039   2.478  0.00  0.00    +0.234 C 
ATOM      4  O   UNL     1       0.611  -0.420   1.355  0.00  0.00    -0.274 OA
ATOM      5  N   UNL     1       0.060   1.242   2.718  0.00  0.00    -0.255 N 
ATOM      6  C   UNL     1       0.062   1.797   4.007  0.00  0.00    +0.059 A 
ATOM      7  C   UNL     1       0.052   0.992   5.132  0.00  0.00    +0.025 A 
ATOM      8  C   UNL     1       0.050   1.569   6.389  0.00  0.00    +0.002 A 
ATOM      9  C   UNL     1       0.057   2.946   6.522  0.00  0.00    +0.002 A 
ATOM     10  C   UNL     1       0.068   3.756   5.402  0.00  0.00    +0.025 A 
ATOM     11  C   UNL     1       0.072   3.187   4.138  0.00  0.00    +0.055 A 
ATOM     12  N   UNL     1       0.089   3.989   2.992  0.00  0.00    -0.282 N 
ATOM     13  C   UNL     1      -0.185   3.466   1.782  0.00  0.00    +0.241 C 
ATOM     14  O   UNL     1      -0.122   4.170   0.797  0.00  0.00    -0.273 OA
ATOM     15  C   UNL     1      -0.570   2.016   1.637  0.00  0.00    +0.113 C 
ATOM     16  C   UNL     1      -0.087   1.491   0.283  0.00  0.00    +0.042 C 
ATOM     17  C   UNL     1      -2.091   1.876   1.728  0.00  0.00    +0.042 C 
ATOM     18  H   UNL     1       0.329   5.059   3.073  0.00  0.00    +0.155 HD
ENDBRANCH   2   3
BRANCH   2  19
ATOM     19  S   UNL     1       2.769  -1.527   3.015  0.00  0.00    -0.073 S 
BRANCH  19  20
ATOM     20  C   UNL     1       3.362  -2.214   4.525  0.00  0.00    +0.193 A 
ATOM     21  N   UNL     1       2.787  -2.122   5.702  0.00  0.00    -0.122 NA
ATOM     22  N   UNL     1       3.486  -2.737   6.587  0.00  0.00    -0.125 NA
ATOM     23  C   UNL     1       4.555  -3.263   6.028  0.00  0.00    +0.200 A 
ATOM     24  N   UNL     1       4.504  -2.948   4.688  0.00  0.00    -0.299 N 
BRANCH  23  25
ATOM     25  C   UNL     1       5.602  -4.043   6.704  0.00  0.00    +0.172 A 
ATOM     26  C   UNL     1       5.513  -4.593   7.948  0.00  0.00    +0.053 A 
ATOM     27  C   UNL     1       6.736  -5.249   8.190  0.00  0.00    +0.042 A 
ATOM     28  C   UNL     1       7.506  -5.063   7.100  0.00  0.00    +0.196 A 
ATOM     29  O   UNL     1       6.819  -4.335   6.204  0.00  0.00    -0.460 OA
ENDBRANCH  23  25
BRANCH  24  30
ATOM     30  C   UNL     1       5.473  -3.319   3.653  0.00  0.00    +0.135 C 
BRANCH  30  31
ATOM     31  C   UNL     1       6.551  -2.238   3.554  0.00  0.00    +0.117 C 
BRANCH  31  32
ATOM     32  C   UNL     1       7.548  -2.620   2.490  0.00  0.00    +0.212 C 
ATOM     33  O   UNL     1       7.410  -3.655   1.873  0.00  0.00    -0.276 OA
ATOM     34  N   UNL     1       8.594  -1.811   2.225  0.00  0.00    -0.329 N 
ATOM     35  H   UNL     1       9.321  -2.090   1.448  0.00  0.00    +0.145 HD
ATOM     36  H   UNL     1       8.719  -0.873   2.785  0.00  0.00    +0.145 HD
ENDBRANCH  31  32
ENDBRANCH  30  31
ENDBRANCH  24  30
ENDBRANCH  19  20
ENDBRANCH   2  19
TORSDOF 7
