REMARK  Name = ZINC57622004
REMARK  4 active torsions:
REMARK  status: ('A' for Active; 'I' for Inactive)
REMARK    1  A    between atoms: C_1  and  C_2
REMARK    2  A    between atoms: C_12  and  C_14
REMARK    3  A    between atoms: C_14  and  N_15
REMARK    4  A    between atoms: C_23  and  C_25
REMARK                            x       y       z     vdW  Elec       q    Type
REMARK                         _______ _______ _______ _____ _____    ______ ____
ROOT
ATOM      1  C   UNL     1       2.314  -8.167   0.772  0.00  0.00    +0.214 C 
ENDROOT
BRANCH   1  12
ATOM      2  C   UNL     1      -0.019   1.526   0.010  0.00  0.00    +0.008 C 
ATOM      3  C   UNL     1       0.002  -0.004   0.002  0.00  0.00    -0.009 C 
ATOM      4  C   UNL     1       0.724  -0.501  -1.254  0.00  0.00    +0.010 C 
ATOM      5  C   UNL     1       0.541  -2.012  -1.403  0.00  0.00    +0.056 C 
ATOM      6  C   UNL     1       0.951  -2.684  -0.100  0.00  0.00    +0.054 A 
ATOM      7  C   UNL     1       1.031  -1.968   1.051  0.00  0.00    +0.015 A 
ATOM      8  S   UNL     1       1.536  -3.189   2.230  0.00  0.00    -0.057 S 
ATOM      9  C   UNL     1       1.604  -4.500   1.174  0.00  0.00    +0.165 A 
ATOM     10  N   UNL     1       1.255  -3.974   0.021  0.00  0.00    -0.229 NA
ATOM     11  N   UNL     1       1.946  -5.818   1.454  0.00  0.00    -0.263 N 
ATOM     12  C   UNL     1       1.944  -6.738   0.469  0.00  0.00    +0.237 C 
ATOM     13  O   UNL     1       1.644  -6.416  -0.661  0.00  0.00    -0.274 OA
ATOM     14  C   UNL     1       0.751  -0.516   1.243  0.00  0.00    +0.047 C 
ATOM     15  H   UNL     1       2.186  -6.075   2.358  0.00  0.00    +0.157 HD
ENDBRANCH   1  12
BRANCH   1  16
ATOM     16  N   UNL     1       2.236  -8.963  -0.455  0.00  0.00    -0.215 N 
ATOM     17  C   UNL     1       1.124  -9.602  -0.875  0.00  0.00    +0.247 C 
ATOM     18  O   UNL     1       0.042  -9.626  -0.330  0.00  0.00    -0.273 OA
ATOM     19  C   UNL     1       1.513 -10.280  -2.168  0.00  0.00    +0.115 C 
ATOM     20  C   UNL     1       1.361 -11.792  -2.042  0.00  0.00    +0.035 C 
ATOM     21  C   UNL     1       1.788 -12.462  -3.351  0.00  0.00    +0.003 C 
ATOM     22  C   UNL     1       0.919 -11.939  -4.497  0.00  0.00    +0.000 C 
ATOM     23  C   UNL     1       1.100 -10.425  -4.626  0.00  0.00    +0.006 C 
ATOM     24  C   UNL     1       0.670  -9.748  -3.322  0.00  0.00    +0.018 C 
ATOM     25  C   UNL     1       0.870  -8.236  -3.443  0.00  0.00    +0.010 C 
ATOM     26  N   UNL     1       2.924  -9.918  -2.351  0.00  0.00    -0.285 N 
ATOM     27  C   UNL     1       3.257  -9.142  -1.302  0.00  0.00    +0.310 C 
ATOM     28  O   UNL     1       4.361  -8.661  -1.141  0.00  0.00    -0.252 OA
ATOM     29  H   UNL     1       3.501 -10.183  -3.084  0.00  0.00    +0.151 HD
ENDBRANCH   1  16
TORSDOF 2
