REMARK  Name = ZINC37359726
REMARK  9 active torsions:
REMARK  status: ('A' for Active; 'I' for Inactive)
REMARK    1  A    between atoms: C_1  and  O_2
REMARK    2  A    between atoms: O_2  and  C_3
REMARK    3  A    between atoms: C_3  and  C_4
REMARK    4  A    between atoms: C_4  and  N_5
REMARK    5  A    between atoms: C_8  and  C_24
REMARK    6  A    between atoms: C_10  and  N_23
REMARK    7  A    between atoms: N_11  and  C_15
REMARK    8  A    between atoms: C_18  and  O_21
REMARK    9  A    between atoms: O_21  and  C_22
REMARK                            x       y       z     vdW  Elec       q    Type
REMARK                         _______ _______ _______ _____ _____    ______ ____
ROOT
ATOM      1  N   UNL     1      -0.792  -2.590  -0.298  0.00  0.00    -0.311 N 
ATOM      2  C   UNL     1      -1.076  -3.919  -0.557  0.00  0.00    +0.218 A 
ATOM      3  N   UNL     1      -2.351  -4.293  -0.596  0.00  0.00    -0.214 NA
ATOM      4  C   UNL     1      -2.712  -5.546  -0.838  0.00  0.00    +0.089 A 
ATOM      5  C   UNL     1      -1.697  -6.504  -1.059  0.00  0.00    +0.086 A 
ATOM      6  C   UNL     1      -1.656  -7.866  -1.335  0.00  0.00    +0.131 A 
ATOM      7  N   UNL     1      -0.360  -8.218  -1.443  0.00  0.00    -0.216 N 
ATOM      8  N   UNL     1       0.456  -7.100  -1.241  0.00  0.00    -0.144 NA
ATOM      9  C   UNL     1      -0.296  -6.047  -1.008  0.00  0.00    +0.189 A 
ATOM     10  N   UNL     1      -0.068  -4.743  -0.757  0.00  0.00    -0.193 NA
ATOM     11  H   UNL     1      -1.514  -1.960  -0.147  0.00  0.00    +0.149 HD
ENDROOT
BRANCH   4  12
ATOM     12  C   UNL     1      -4.141  -5.932  -0.874  0.00  0.00    +0.004 A 
ATOM     13  C   UNL     1      -4.576  -7.073  -0.198  0.00  0.00    +0.010 A 
ATOM     14  C   UNL     1      -5.908  -7.428  -0.234  0.00  0.00    +0.003 A 
ATOM     15  C   UNL     1      -6.814  -6.657  -0.940  0.00  0.00    +0.038 A 
ATOM     16  C   UNL     1      -6.390  -5.522  -1.613  0.00  0.00    +0.124 A 
ATOM     17  C   UNL     1      -5.058  -5.153  -1.578  0.00  0.00    +0.048 A 
ATOM     18  F   UNL     1      -7.280  -4.774  -2.300  0.00  0.00    -0.205 F 
ENDBRANCH   4  12
BRANCH   7  19
ATOM     19  C   UNL     1       0.101  -9.513  -1.716  0.00  0.00    +0.068 A 
ATOM     20  C   UNL     1      -0.584 -10.614  -1.219  0.00  0.00    +0.031 A 
ATOM     21  C   UNL     1      -0.129 -11.889  -1.488  0.00  0.00    +0.048 A 
ATOM     22  C   UNL     1       1.013 -12.071  -2.256  0.00  0.00    +0.120 A 
ATOM     23  C   UNL     1       1.698 -10.971  -2.753  0.00  0.00    +0.048 A 
ATOM     24  C   UNL     1       1.240  -9.695  -2.490  0.00  0.00    +0.031 A 
BRANCH  22  25
ATOM     25  O   UNL     1       1.461 -13.327  -2.521  0.00  0.00    -0.495 OA
ATOM     26  C   UNL     1       2.642 -13.440  -3.317  0.00  0.00    +0.277 C 
ENDBRANCH  22  25
ENDBRANCH   7  19
BRANCH   6  27
ATOM     27  N   UNL     1      -2.746  -8.705  -1.472  0.00  0.00    -0.342 N 
ATOM     28  H   UNL     1      -3.640  -8.333  -1.528  0.00  0.00    +0.144 HD
ATOM     29  H   UNL     1      -2.616  -9.665  -1.513  0.00  0.00    +0.144 HD
ENDBRANCH   6  27
BRANCH   1  30
ATOM     30  C   UNL     1       0.600  -2.134  -0.252  0.00  0.00    +0.132 C 
BRANCH  30  31
ATOM     31  C   UNL     1       0.635  -0.634   0.049  0.00  0.00    +0.178 C 
BRANCH  31  33
ATOM     32  C   UNL     1       0.106   0.977   1.743  0.00  0.00    +0.194 C 
ATOM     33  O   UNL     1       0.117  -0.400   1.360  0.00  0.00    -0.381 OA
ENDBRANCH  31  33
ENDBRANCH  30  31
ENDBRANCH   1  30
TORSDOF 7
