REMARK  Name = ZINC39865138
REMARK  5 active torsions:
REMARK  status: ('A' for Active; 'I' for Inactive)
REMARK    1  A    between atoms: C_1  and  C_2
REMARK    2  A    between atoms: C_2  and  C_21
REMARK    3  A    between atoms: N_6  and  C_15
REMARK    4  A    between atoms: N_8  and  C_9
REMARK    5  A    between atoms: C_24  and  N_27
REMARK                            x       y       z     vdW  Elec       q    Type
REMARK                         _______ _______ _______ _____ _____    ______ ____
ROOT
ATOM      1  C   UNL     1      -0.622   1.557  -0.113  0.00  0.00    +0.045 C 
ATOM      2  C   UNL     1      -0.403   0.066  -0.092  0.00  0.00    -0.024 C 
ATOM      3  C   UNL     1      -0.322  -0.591   1.094  0.00  0.00    +0.081 C 
ATOM      4  C   UNL     1      -0.423  -0.062   2.466  0.00  0.00    +0.260 C 
ATOM      5  O   UNL     1      -0.607   1.122   2.679  0.00  0.00    -0.269 OA
ATOM      6  N   UNL     1      -0.306  -0.932   3.455  0.00  0.00    -0.243 N 
ATOM      7  C   UNL     1      -0.099  -2.268   3.194  0.00  0.00    +0.171 C 
ATOM      8  N   UNL     1       0.037  -3.258   4.052  0.00  0.00    -0.199 NA
ATOM      9  S   UNL     1      -0.070  -2.332   1.410  0.00  0.00    -0.048 S 
ENDROOT
BRANCH   6  10
ATOM     10  C   UNL     1      -0.397  -0.470   4.842  0.00  0.00    +0.084 C 
ATOM     11  C   UNL     1      -1.702   0.306   5.037  0.00  0.00    +0.023 C 
ATOM     12  C   UNL     1      -1.797   0.788   6.486  0.00  0.00    +0.002 C 
ATOM     13  C   UNL     1      -0.609   1.701   6.798  0.00  0.00    +0.000 C 
ATOM     14  C   UNL     1       0.695   0.925   6.603  0.00  0.00    +0.002 C 
ATOM     15  C   UNL     1       0.790   0.443   5.155  0.00  0.00    +0.023 C 
ENDBRANCH   6  10
BRANCH   2  16
ATOM     16  C   UNL     1      -0.278  -0.675  -1.352  0.00  0.00    -0.021 A 
ATOM     17  C   UNL     1       0.927  -1.311  -1.677  0.00  0.00    +0.010 A 
ATOM     18  C   UNL     1       1.040  -2.002  -2.856  0.00  0.00    +0.023 A 
ATOM     19  C   UNL     1      -0.042  -2.073  -3.730  0.00  0.00    +0.025 A 
ATOM     20  C   UNL     1      -1.242  -1.442  -3.412  0.00  0.00    +0.023 A 
ATOM     21  C   UNL     1      -1.366  -0.754  -2.232  0.00  0.00    +0.010 A 
BRANCH  19  22
ATOM     22  N   UNL     1       0.077  -2.776  -4.926  0.00  0.00    -0.358 N 
ATOM     23  H   UNL     1       0.912  -3.215  -5.149  0.00  0.00    +0.142 HD
ATOM     24  H   UNL     1      -0.675  -2.826  -5.535  0.00  0.00    +0.142 HD
ENDBRANCH  19  22
ENDBRANCH   2  16
BRANCH   8  25
ATOM     25  C   UNL     1      -0.073  -3.022   5.385  0.00  0.00    +0.195 A 
ATOM     26  N   UNL     1      -1.152  -3.053   6.161  0.00  0.00    -0.230 NA
ATOM     27  C   UNL     1      -1.070  -2.795   7.449  0.00  0.00    +0.121 A 
ATOM     28  C   UNL     1       0.130  -2.491   8.003  0.00  0.00    +0.068 A 
ATOM     29  S   UNL     1       1.195  -2.595   6.570  0.00  0.00    -0.056 S 
ENDBRANCH   8  25
TORSDOF 4
