REMARK  Name = ZINC00566853
REMARK  8 active torsions:
REMARK  status: ('A' for Active; 'I' for Inactive)
REMARK    1  A    between atoms: C_3  and  O_26
REMARK    2  A    between atoms: C_4  and  O_25
REMARK    3  A    between atoms: C_5  and  C_7
REMARK    4  A    between atoms: N_8  and  C_9
REMARK    5  A    between atoms: C_12  and  N_15
REMARK    6  A    between atoms: C_16  and  C_17
REMARK    7  A    between atoms: C_18  and  O_24
REMARK    8  A    between atoms: C_19  and  O_23
REMARK                            x       y       z     vdW  Elec       q    Type
REMARK                         _______ _______ _______ _____ _____    ______ ____
ROOT
ATOM      1  C   UNL     1       2.413  -4.155  -0.045  0.00  0.00    +0.064 A 
ATOM      2  C   UNL     1       1.573  -4.874   0.812  0.00  0.00    +0.030 A 
ATOM      3  C   UNL     1       1.597  -6.240   0.804  0.00  0.00    +0.030 A 
ATOM      4  C   UNL     1       2.460  -6.920  -0.061  0.00  0.00    +0.064 A 
ATOM      5  C   UNL     1       3.300  -6.201  -0.919  0.00  0.00    +0.030 A 
ATOM      6  C   UNL     1       3.273  -4.835  -0.914  0.00  0.00    +0.030 A 
ENDROOT
BRANCH   1   8
ATOM      7  C   UNL     1       1.249  -2.157  -0.022  0.00  0.00    +0.123 C 
ATOM      8  N   UNL     1       2.390  -2.789  -0.037  0.00  0.00    -0.255 NA
BRANCH   7  13
ATOM      9  C   UNL     1      -0.017   1.373   0.010  0.00  0.00    +0.004 A 
ATOM     10  C   UNL     1       1.169   2.090   0.002  0.00  0.00    +0.049 A 
ATOM     11  C   UNL     1       2.386   1.429  -0.013  0.00  0.00    +0.159 A 
ATOM     12  C   UNL     1       2.423   0.039  -0.021  0.00  0.00    +0.167 A 
ATOM     13  C   UNL     1       1.224  -0.687  -0.013  0.00  0.00    +0.038 A 
ATOM     14  C   UNL     1       0.002  -0.004   0.002  0.00  0.00    +0.013 A 
BRANCH  12  15
ATOM     15  O   UNL     1       3.615  -0.612  -0.036  0.00  0.00    -0.503 OA
ATOM     16  H   UNL     1       3.969  -0.806   0.843  0.00  0.00    +0.292 HD
ENDBRANCH  12  15
BRANCH  11  17
ATOM     17  O   UNL     1       3.546   2.140  -0.021  0.00  0.00    -0.503 OA
ATOM     18  H   UNL     1       3.890   2.341   0.860  0.00  0.00    +0.292 HD
ENDBRANCH  11  17
ENDBRANCH   7  13
ENDBRANCH   1   8
BRANCH   4  19
ATOM     19  N   UNL     1       2.485  -8.286  -0.069  0.00  0.00    -0.255 NA
ATOM     20  C   UNL     1       2.490  -8.932  -1.202  0.00  0.00    +0.123 C 
BRANCH  20  21
ATOM     21  C   UNL     1       2.515 -10.402  -1.210  0.00  0.00    +0.038 A 
ATOM     22  C   UNL     1       2.529 -11.113  -0.002  0.00  0.00    +0.167 A 
ATOM     23  C   UNL     1       2.553 -12.503  -0.022  0.00  0.00    +0.159 A 
ATOM     24  C   UNL     1       2.564 -13.178  -1.232  0.00  0.00    +0.049 A 
ATOM     25  C   UNL     1       2.551 -12.476  -2.426  0.00  0.00    +0.004 A 
ATOM     26  C   UNL     1       2.521 -11.099  -2.424  0.00  0.00    +0.013 A 
BRANCH  23  27
ATOM     27  O   UNL     1       2.566 -13.200   1.145  0.00  0.00    -0.503 OA
ATOM     28  H   UNL     1       1.687 -13.417   1.484  0.00  0.00    +0.292 HD
ENDBRANCH  23  27
BRANCH  22  29
ATOM     29  O   UNL     1       2.519 -10.448   1.182  0.00  0.00    -0.503 OA
ATOM     30  H   UNL     1       1.633 -10.270   1.526  0.00  0.00    +0.292 HD
ENDBRANCH  22  29
ENDBRANCH  20  21
ENDBRANCH   4  19
TORSDOF 8
