REMARK  Name = ZINC39661288
REMARK  5 active torsions:
REMARK  status: ('A' for Active; 'I' for Inactive)
REMARK    1  A    between atoms: C_4  and  O_7
REMARK    2  A    between atoms: O_7  and  C_8
REMARK    3  A    between atoms: C_9  and  C_14
REMARK    4  A    between atoms: C_18  and  C_27
REMARK    5  A    between atoms: N_29  and  C_30
REMARK                            x       y       z     vdW  Elec       q    Type
REMARK                         _______ _______ _______ _____ _____    ______ ____
ROOT
ATOM      1  C   UNL     1       6.005  -1.898   0.124  0.00  0.00    +0.252 C 
ATOM      2  O   UNL     1       6.032  -0.683   0.107  0.00  0.00    -0.270 OA
ATOM      3  N   UNL     1       7.157  -2.598   0.118  0.00  0.00    -0.296 N 
ATOM      4  C   UNL     1       7.328  -4.067   0.207  0.00  0.00    +0.121 C 
ATOM      5  C   UNL     1       8.479  -4.387  -0.774  0.00  0.00    +0.100 C 
ATOM      6  C   UNL     1       9.271  -3.074  -0.890  0.00  0.00    -0.004 C 
ATOM      7  C   UNL     1       8.540  -2.072   0.015  0.00  0.00    +0.115 C 
ATOM      8  C   UNL     1       9.261  -2.577  -2.333  0.00  0.00    -0.010 C 
ATOM      9  C   UNL     1      10.103  -1.302  -2.434  0.00  0.00    -0.082 C 
ATOM     10  N   UNL     1      11.477  -1.584  -2.002  0.00  0.00    +0.379 N 
ATOM     11  C   UNL     1      11.487  -1.972  -0.586  0.00  0.00    -0.082 C 
ATOM     12  C   UNL     1      10.704  -3.276  -0.406  0.00  0.00    -0.010 C 
ATOM     13  H   UNL     1      11.855  -2.337  -2.558  0.00  0.00    -0.086 HD
ATOM     14  H   UNL     1      12.044  -0.759  -2.127  0.00  0.00    -0.086 HD
ENDROOT
BRANCH   1  16
ATOM     15  C   UNL     1       3.606  -2.102  -0.550  0.00  0.00    +0.233 A 
ATOM     16  C   UNL     1       4.712  -2.607   0.151  0.00  0.00    +0.099 A 
ATOM     17  C   UNL     1       4.566  -3.796   0.875  0.00  0.00    +0.020 A 
ATOM     18  C   UNL     1       3.332  -4.423   0.867  0.00  0.00    +0.021 A 
ATOM     19  C   UNL     1       2.289  -3.863   0.152  0.00  0.00    +0.114 A 
ATOM     20  N   UNL     1       2.447  -2.739  -0.519  0.00  0.00    -0.220 NA
BRANCH  15  21
ATOM     21  O   UNL     1       3.724  -0.954  -1.257  0.00  0.00    -0.437 OA
BRANCH  21  25
ATOM     22  C   UNL     1       0.327   0.608  -3.000  0.00  0.00    +0.000 A 
ATOM     23  C   UNL     1       0.430   0.547  -1.623  0.00  0.00    +0.004 A 
ATOM     24  C   UNL     1       1.567   0.025  -1.037  0.00  0.00    +0.046 A 
ATOM     25  C   UNL     1       2.605  -0.440  -1.831  0.00  0.00    +0.130 A 
ATOM     26  C   UNL     1       2.499  -0.378  -3.213  0.00  0.00    +0.046 A 
ATOM     27  C   UNL     1       1.360   0.146  -3.795  0.00  0.00    +0.004 A 
ENDBRANCH  21  25
ENDBRANCH  15  21
ENDBRANCH   1  16
BRANCH   5  28
ATOM     28  C   UNL     1       9.352  -5.482  -0.219  0.00  0.00    +0.219 C 
ATOM     29  O   UNL     1       9.409  -5.664   0.979  0.00  0.00    -0.275 OA
ATOM     30  N   UNL     1      10.070  -6.259  -1.053  0.00  0.00    -0.304 N 
ATOM     31  H   UNL     1      10.025  -6.114  -2.011  0.00  0.00    +0.149 HD
BRANCH  30  32
ATOM     32  C   UNL     1      10.920  -7.324  -0.514  0.00  0.00    +0.151 C 
ATOM     33  C   UNL     1      12.071  -7.584  -1.488  0.00  0.00    +0.042 C 
ATOM     34  C   UNL     1      12.588  -9.019  -1.233  0.00  0.00    +0.079 C 
ATOM     35  S   UNL     1      11.069  -9.864  -0.648  0.00  0.00    -0.086 S 
ATOM     36  C   UNL     1      10.079  -8.559  -0.293  0.00  0.00    +0.209 C 
ATOM     37  O   UNL     1       8.921  -8.599   0.070  0.00  0.00    -0.283 OA
ENDBRANCH  30  32
ENDBRANCH   5  28
TORSDOF 5
