REMARK  Name = ZINC17831557
REMARK  7 active torsions:
REMARK  status: ('A' for Active; 'I' for Inactive)
REMARK    1  A    between atoms: C_8  and  C_10
REMARK    2  A    between atoms: C_11  and  C_12
REMARK    3  A    between atoms: C_12  and  O_14
REMARK    4  A    between atoms: O_14  and  C_15
REMARK    5  A    between atoms: C_15  and  C_16
REMARK    6  A    between atoms: N_18  and  C_19
REMARK    7  A    between atoms: C_20  and  C_27
REMARK                            x       y       z     vdW  Elec       q    Type
REMARK                         _______ _______ _______ _____ _____    ______ ____
ROOT
ATOM      1  C   UNL     1       6.368  10.953  -0.003  0.00  0.00    +0.255 C 
ATOM      2  O   UNL     1       7.119  10.000  -0.014  0.00  0.00    -0.272 OA
ATOM      3  N   UNL     1       6.868  12.205  -0.002  0.00  0.00    -0.277 N 
ATOM      4  H   UNL     1       6.268  12.967   0.007  0.00  0.00    +0.155 HD
ENDROOT
BRANCH   3   5
ATOM      5  C   UNL     1       8.240  12.403  -0.013  0.00  0.00    +0.084 A 
ATOM      6  C   UNL     1       8.936  13.600  -0.020  0.00  0.00    +0.068 A 
ATOM      7  C   UNL     1      10.397  13.534  -0.028  0.00  0.00    -0.023 A 
ATOM      8  C   UNL     1      10.912  12.291  -0.038  0.00  0.00    -0.004 A 
ATOM      9  S   UNL     1       9.499  11.216  -0.031  0.00  0.00    -0.077 S 
ATOM     10  C   UNL     1      12.417  12.305  -0.049  0.00  0.00    +0.043 C 
ATOM     11  C   UNL     1      12.797  13.735   0.393  0.00  0.00    +0.010 C 
ATOM     12  C   UNL     1      11.551  14.537  -0.035  0.00  0.00    +0.037 C 
BRANCH   6  13
ATOM     13  C   UNL     1       8.234  14.887  -0.014  0.00  0.00    +0.244 C 
ATOM     14  O   UNL     1       7.952  15.422   1.042  0.00  0.00    -0.270 OA
ATOM     15  N   UNL     1       7.901  15.478  -1.179  0.00  0.00    -0.325 N 
ATOM     16  H   UNL     1       8.126  15.052  -2.021  0.00  0.00    +0.145 HD
ATOM     17  H   UNL     1       7.436  16.330  -1.175  0.00  0.00    +0.145 HD
ENDBRANCH   6  13
ENDBRANCH   3   5
BRANCH   1  18
ATOM     18  C   UNL     1       4.877  10.737   0.010  0.00  0.00    +0.328 C 
BRANCH  18  19
ATOM     19  O   UNL     1       4.598   9.335   0.006  0.00  0.00    -0.452 OA
BRANCH  19  20
ATOM     20  C   UNL     1       3.300   8.969   0.016  0.00  0.00    +0.332 C 
ATOM     21  O   UNL     1       2.428   9.817   0.028  0.00  0.00    -0.246 OA
BRANCH  20  23
ATOM     22  C   UNL     1       1.647   7.229   0.023  0.00  0.00    +0.023 C 
ATOM     23  C   UNL     1       2.952   7.598   0.013  0.00  0.00    +0.093 C 
BRANCH  22  31
ATOM     24  C   UNL     1      -1.222   1.759   0.017  0.00  0.00    +0.001 A 
ATOM     25  C   UNL     1      -0.013   1.076   0.008  0.00  0.00    +0.001 A 
ATOM     26  C   UNL     1       1.170   1.787   0.001  0.00  0.00    +0.016 A 
ATOM     27  C   UNL     1       1.135   3.165   0.008  0.00  0.00    +0.021 A 
ATOM     28  C   UNL     1      -0.082   3.888   0.023  0.00  0.00    +0.008 A 
ATOM     29  C   UNL     1      -1.273   3.116   0.030  0.00  0.00    +0.010 A 
ATOM     30  C   UNL     1       0.045   5.288   0.029  0.00  0.00    +0.063 A 
ATOM     31  C   UNL     1       1.298   5.855   0.020  0.00  0.00    +0.032 A 
ATOM     32  S   UNL     1       2.377   4.434   0.003  0.00  0.00    -0.087 S 
ATOM     33 CL   UNL     1      -1.369   6.295   0.048  0.00  0.00    -0.082 Cl
ENDBRANCH  22  31
ENDBRANCH  20  23
ENDBRANCH  19  20
ENDBRANCH  18  19
ENDBRANCH   1  18
TORSDOF 7
