REMARK  Name = ZINC63952566
REMARK  6 active torsions:
REMARK  status: ('A' for Active; 'I' for Inactive)
REMARK    1  A    between atoms: C_1  and  O_2
REMARK    2  A    between atoms: O_2  and  C_3
REMARK    3  A    between atoms: C_7  and  C_12
REMARK    4  A    between atoms: C_12  and  C_13
REMARK    5  A    between atoms: C_13  and  N_14
REMARK    6  A    between atoms: C_19  and  C_22
REMARK                            x       y       z     vdW  Elec       q    Type
REMARK                         _______ _______ _______ _____ _____    ______ ____
ROOT
ATOM      1  N   UNL     1       5.312  -1.748  -6.426  0.00  0.00    -0.313 N 
ATOM      2  C   UNL     1       6.678  -1.651  -6.440  0.00  0.00    +0.213 A 
ATOM      3  N   UNL     1       7.353  -1.871  -5.328  0.00  0.00    -0.174 NA
ATOM      4  C   UNL     1       8.687  -1.783  -5.312  0.00  0.00    +0.301 A 
ATOM      5  O   UNL     1       9.306  -1.989  -4.279  0.00  0.00    -0.263 OA
ATOM      6  C   UNL     1       9.403  -1.436  -6.551  0.00  0.00    +0.157 A 
ATOM      7  N   UNL     1       8.706  -1.221  -7.644  0.00  0.00    -0.166 NA
ATOM      8  N   UNL     1       7.310  -1.334  -7.598  0.00  0.00    -0.248 N 
ATOM      9  H   UNL     1       4.806  -1.592  -7.238  0.00  0.00    +0.149 HD
ATOM     10  H   UNL     1       6.789  -1.181  -8.403  0.00  0.00    +0.192 HD
ENDROOT
BRANCH   6  11
ATOM     11  C   UNL     1      10.881  -1.330  -6.565  0.00  0.00    +0.008 A 
ATOM     12  C   UNL     1      11.645  -2.083  -5.674  0.00  0.00    +0.011 A 
ATOM     13  C   UNL     1      13.021  -1.981  -5.692  0.00  0.00    +0.020 A 
ATOM     14  C   UNL     1      13.643  -1.133  -6.592  0.00  0.00    +0.041 A 
ATOM     15  C   UNL     1      12.889  -0.382  -7.478  0.00  0.00    +0.020 A 
ATOM     16  C   UNL     1      11.513  -0.481  -7.472  0.00  0.00    +0.011 A 
ATOM     17 CL   UNL     1      15.375  -1.009  -6.609  0.00  0.00    -0.084 Cl
ENDBRANCH   6  11
BRANCH   1  18
ATOM     18  C   UNL     1       4.615  -2.089  -5.183  0.00  0.00    +0.109 C 
BRANCH  18  19
ATOM     19  C   UNL     1       3.108  -2.133  -5.439  0.00  0.00    +0.052 C 
BRANCH  19  24
ATOM     20  C   UNL     1       0.582  -0.309  -1.142  0.00  0.00    +0.122 A 
ATOM     21  C   UNL     1       1.152   0.441  -2.189  0.00  0.00    +0.046 A 
ATOM     22  C   UNL     1       1.771  -0.155  -3.231  0.00  0.00    +0.013 A 
ATOM     23  C   UNL     1       1.849  -1.621  -3.272  0.00  0.00    -0.001 A 
ATOM     24  C   UNL     1       2.390  -2.483  -4.161  0.00  0.00    -0.040 C 
ATOM     25  C   UNL     1       2.131  -3.869  -3.615  0.00  0.00    +0.144 C 
ATOM     26  N   UNL     1       1.404  -3.677  -2.356  0.00  0.00    -0.380 N 
ATOM     27  C   UNL     1       1.243  -2.388  -2.159  0.00  0.00    +0.046 A 
ATOM     28  C   UNL     1       0.622  -1.665  -1.111  0.00  0.00    +0.071 A 
ATOM     29  H   UNL     1       1.095  -4.383  -1.767  0.00  0.00    +0.160 HD
BRANCH  20  31
ATOM     30  C   UNL     1      -0.044   1.777  -0.196  0.00  0.00    +0.277 C 
ATOM     31  O   UNL     1      -0.025   0.350  -0.124  0.00  0.00    -0.495 OA
ENDBRANCH  20  31
ENDBRANCH  19  24
ENDBRANCH  18  19
ENDBRANCH   1  18
TORSDOF 5
