REMARK  Name = ZINC39630847
REMARK  13 active torsions:
REMARK  status: ('A' for Active; 'I' for Inactive)
REMARK    1  A    between atoms: C_1  and  C_2
REMARK    2  A    between atoms: C_2  and  C_3
REMARK    3  A    between atoms: C_3  and  C_5
REMARK    4  A    between atoms: C_3  and  C_11
REMARK    5  A    between atoms: C_15  and  C_24
REMARK    6  A    between atoms: N_26  and  C_27
REMARK    7  A    between atoms: C_27  and  C_28
REMARK    8  A    between atoms: C_28  and  C_29
REMARK    9  A    between atoms: C_28  and  C_30
REMARK   10  A    between atoms: C_28  and  C_31
REMARK   11  A    between atoms: C_31  and  N_32
REMARK   12  A    between atoms: N_32  and  C_33
REMARK   13  A    between atoms: N_32  and  C_34
REMARK                            x       y       z     vdW  Elec       q    Type
REMARK                         _______ _______ _______ _____ _____    ______ ____
ROOT
ATOM      1  C   UNL     1       1.362  -1.033   1.781  0.00  0.00    +0.223 C 
ATOM      2  O   UNL     1       1.027  -1.652   2.769  0.00  0.00    -0.275 OA
ATOM      3  N   UNL     1       1.893  -1.682   0.727  0.00  0.00    -0.300 N 
ATOM      4  C   UNL     1       2.364  -1.103  -0.554  0.00  0.00    +0.121 C 
ATOM      5  C   UNL     1       3.646  -1.896  -0.893  0.00  0.00    +0.100 C 
ATOM      6  C   UNL     1       3.492  -3.231  -0.144  0.00  0.00    -0.004 C 
ATOM      7  C   UNL     1       2.146  -3.137   0.588  0.00  0.00    +0.115 C 
ATOM      8  C   UNL     1       4.623  -3.404   0.865  0.00  0.00    -0.010 C 
ATOM      9  C   UNL     1       4.480  -4.763   1.556  0.00  0.00    -0.082 C 
ATOM     10  N   UNL     1       4.525  -5.832   0.551  0.00  0.00    +0.379 N 
ATOM     11  C   UNL     1       3.381  -5.712  -0.360  0.00  0.00    -0.082 C 
ATOM     12  C   UNL     1       3.477  -4.393  -1.132  0.00  0.00    -0.010 C 
ATOM     13  H   UNL     1       5.383  -5.760   0.024  0.00  0.00    -0.086 HD
ATOM     14  H   UNL     1       4.492  -6.728   1.014  0.00  0.00    -0.086 HD
ENDROOT
BRANCH   5  15
ATOM     15  C   UNL     1       3.739  -2.133  -2.378  0.00  0.00    +0.218 C 
ATOM     16  O   UNL     1       2.728  -2.229  -3.041  0.00  0.00    -0.275 OA
ATOM     17  N   UNL     1       4.945  -2.238  -2.970  0.00  0.00    -0.315 N 
ATOM     18  H   UNL     1       5.754  -2.162  -2.439  0.00  0.00    +0.149 HD
BRANCH  17  19
ATOM     19  C   UNL     1       5.036  -2.469  -4.414  0.00  0.00    +0.108 C 
BRANCH  19  20
ATOM     20  C   UNL     1       6.507  -2.548  -4.827  0.00  0.00    -0.034 C 
ATOM     21  C   UNL     1       7.207  -1.234  -4.475  0.00  0.00    +0.010 C 
ATOM     22  C   UNL     1       7.184  -3.701  -4.083  0.00  0.00    +0.010 C 
BRANCH  20  23
ATOM     23  C   UNL     1       6.601  -2.788  -6.335  0.00  0.00    -0.072 C 
BRANCH  23  24
ATOM     24  N   UNL     1       8.013  -2.822  -6.738  0.00  0.00    +0.376 N 
ATOM     25  C   UNL     1       8.540  -4.182  -6.565  0.00  0.00    -0.097 C 
ATOM     26  C   UNL     1       8.129  -2.427  -8.148  0.00  0.00    -0.097 C 
ATOM     27  H   UNL     1       8.542  -2.181  -6.165  0.00  0.00    -0.083 HD
ENDBRANCH  23  24
ENDBRANCH  20  23
ENDBRANCH  19  20
ENDBRANCH  17  19
ENDBRANCH   5  15
BRANCH   1  28
ATOM     28  C   UNL     1       1.183   0.463   1.733  0.00  0.00    +0.105 C 
BRANCH  28  29
ATOM     29  C   UNL     1       0.574   0.938   3.027  0.00  0.00    -0.036 A 
ATOM     30  C   UNL     1      -0.661   0.462   3.425  0.00  0.00    +0.004 A 
ATOM     31  C   UNL     1      -1.220   0.897   4.612  0.00  0.00    +0.000 A 
ATOM     32  C   UNL     1      -0.544   1.809   5.401  0.00  0.00    +0.000 A 
ATOM     33  C   UNL     1       0.692   2.284   5.003  0.00  0.00    +0.000 A 
ATOM     34  C   UNL     1       1.253   1.845   3.819  0.00  0.00    +0.004 A 
ENDBRANCH  28  29
BRANCH  28  36
ATOM     35  C   UNL     1       0.177   2.351   0.443  0.00  0.00    +0.005 C 
ATOM     36  C   UNL     1       0.260   0.829   0.570  0.00  0.00    +0.014 C 
ENDBRANCH  28  36
ENDBRANCH   1  28
TORSDOF 8
