REMARK  Name = ZINC20527883
REMARK  7 active torsions:
REMARK  status: ('A' for Active; 'I' for Inactive)
REMARK    1  A    between atoms: C_5  and  N_7
REMARK    2  A    between atoms: C_8  and  C_10
REMARK    3  A    between atoms: C_10  and  S_11
REMARK    4  A    between atoms: S_11  and  C_12
REMARK    5  A    between atoms: N_16  and  N_17
REMARK    6  A    between atoms: N_18  and  N_19
REMARK    7  A    between atoms: C_20  and  C_21
REMARK                            x       y       z     vdW  Elec       q    Type
REMARK                         _______ _______ _______ _____ _____    ______ ____
ROOT
ATOM      1  C   UNL     1       1.827   5.511  -0.025  0.00  0.00    +0.210 A 
ATOM      2  N   UNL     1       0.515   5.493  -0.017  0.00  0.00    -0.119 NA
ATOM      3  N   UNL     1       0.101   4.155  -0.036  0.00  0.00    -0.109 NA
ATOM      4  C   UNL     1       1.172   3.399  -0.047  0.00  0.00    +0.254 A 
ATOM      5  N   UNL     1       2.267   4.218  -0.043  0.00  0.00    -0.211 N 
ATOM      6  N   UNL     1       1.191   2.012  -0.064  0.00  0.00    -0.204 N 
ATOM      7  H   UNL     1       2.151   1.475  -0.078  0.00  0.00    +0.177 HD
ENDROOT
BRANCH   5   8
ATOM      8  N   UNL     1       3.571   3.814  -0.056  0.00  0.00    -0.294 N 
ATOM      9  H   UNL     1       3.815   2.741  -0.071  0.00  0.00    +0.163 HD
ATOM     10  H   UNL     1       4.379   4.561  -0.051  0.00  0.00    +0.163 HD
ENDBRANCH   5   8
BRANCH   6  11
ATOM     11  N   UNL     1      -0.012   1.294  -0.066  0.00  0.00    -0.187 NA
ATOM     12  C   UNL     1       0.006  -0.004  -0.082  0.00  0.00    +0.139 C 
BRANCH  12  13
ATOM     13  C   UNL     1      -1.261  -0.759  -0.084  0.00  0.00    +0.013 A 
ATOM     14  C   UNL     1      -1.245  -2.156  -0.101  0.00  0.00    +0.012 A 
ATOM     15  C   UNL     1      -2.433  -2.856  -0.102  0.00  0.00    +0.021 A 
ATOM     16  C   UNL     1      -3.641  -2.178  -0.087  0.00  0.00    +0.042 A 
ATOM     17  C   UNL     1      -3.664  -0.794  -0.068  0.00  0.00    +0.040 A 
ATOM     18  C   UNL     1      -2.483  -0.080  -0.061  0.00  0.00    +0.051 A 
ATOM     19 CL   UNL     1      -2.514   1.655  -0.032  0.00  0.00    -0.083 Cl
ATOM     20 CL   UNL     1      -5.131  -3.068  -0.089  0.00  0.00    -0.083 Cl
ENDBRANCH  12  13
ENDBRANCH   6  11
BRANCH   1  21
ATOM     21  S   UNL     1       2.842   6.950  -0.014  0.00  0.00    -0.075 S 
BRANCH  21  22
ATOM     22  C   UNL     1       1.657   8.324   0.011  0.00  0.00    +0.173 C 
BRANCH  22  24
ATOM     23  N   UNL     1       1.726  10.796   0.040  0.00  0.00    -0.284 N 
ATOM     24  C   UNL     1       2.405   9.632   0.022  0.00  0.00    +0.228 C 
ATOM     25  O   UNL     1       3.618   9.638   0.013  0.00  0.00    -0.275 OA
ATOM     26  H   UNL     1       0.628  10.793  -0.026  0.00  0.00    +0.155 HD
BRANCH  23  31
ATOM     27  C   UNL     1       4.338  13.354  -0.357  0.00  0.00    +0.002 A 
ATOM     28  C   UNL     1       3.786  14.405   0.352  0.00  0.00    +0.002 A 
ATOM     29  C   UNL     1       2.551  14.262   0.959  0.00  0.00    +0.022 A 
ATOM     30  C   UNL     1       1.865  13.066   0.857  0.00  0.00    +0.062 A 
ATOM     31  C   UNL     1       2.418  12.008   0.145  0.00  0.00    +0.052 A 
ATOM     32  C   UNL     1       3.660  12.155  -0.458  0.00  0.00    +0.025 A 
ATOM     33 CL   UNL     1       0.316  12.886   1.619  0.00  0.00    -0.082 Cl
ENDBRANCH  23  31
ENDBRANCH  22  24
ENDBRANCH  21  22
ENDBRANCH   1  21
TORSDOF 7
