REMARK  Name = ZINC33461793
REMARK  10 active torsions:
REMARK  status: ('A' for Active; 'I' for Inactive)
REMARK    1  A    between atoms: C_1  and  N_2
REMARK    2  A    between atoms: N_2  and  C_3
REMARK    3  A    between atoms: N_2  and  C_10
REMARK    4  A    between atoms: C_6  and  O_9
REMARK    5  A    between atoms: C_10  and  C_12
REMARK    6  A    between atoms: C_10  and  C_14
REMARK    7  A    between atoms: C_12  and  N_13
REMARK    8  A    between atoms: C_16  and  O_22
REMARK    9  A    between atoms: C_17  and  O_21
REMARK   10  A    between atoms: O_22  and  C_23
REMARK                            x       y       z     vdW  Elec       q    Type
REMARK                         _______ _______ _______ _____ _____    ______ ____
ROOT
ATOM      1  C   UNL     1      -0.689   1.509   1.283  0.00  0.00    +0.086 C 
ENDROOT
BRANCH   1   2
ATOM      2  C   UNL     1       0.382   1.380   2.335  0.00  0.00    -0.024 A 
ATOM      3  C   UNL     1       0.252   0.437   3.339  0.00  0.00    +0.055 A 
ATOM      4  C   UNL     1       1.236   0.316   4.307  0.00  0.00    +0.163 A 
ATOM      5  C   UNL     1       2.353   1.145   4.268  0.00  0.00    +0.177 A 
ATOM      6  C   UNL     1       2.477   2.087   3.259  0.00  0.00    +0.086 A 
ATOM      7  C   UNL     1       1.494   2.200   2.292  0.00  0.00    +0.029 A 
ATOM      8 CL   UNL     1       3.869   3.123   3.206  0.00  0.00    -0.080 Cl
BRANCH   5   9
ATOM      9  O   UNL     1       3.321   1.030   5.217  0.00  0.00    -0.502 OA
ATOM     10  H   UNL     1       4.203   1.686   5.184  0.00  0.00    +0.292 HD
ENDBRANCH   5   9
BRANCH   4  11
ATOM     11  O   UNL     1       1.109  -0.611   5.295  0.00  0.00    -0.491 OA
ATOM     12  C   UNL     1      -0.063  -1.427   5.272  0.00  0.00    +0.277 C 
ENDBRANCH   4  11
ENDBRANCH   1   2
BRANCH   1  14
ATOM     13  C   UNL     1      -0.639   3.567  -0.201  0.00  0.00    +0.130 C 
ATOM     14  N   UNL     1      -0.994   2.926   1.068  0.00  0.00    -0.328 N 
BRANCH  14  15
ATOM     15  C   UNL     1      -1.623   3.667   2.074  0.00  0.00    +0.030 A 
ATOM     16  C   UNL     1      -1.883   3.084   3.307  0.00  0.00    +0.027 A 
ATOM     17  C   UNL     1      -2.500   3.817   4.302  0.00  0.00    +0.047 A 
ATOM     18  C   UNL     1      -2.869   5.133   4.065  0.00  0.00    +0.117 A 
ATOM     19  C   UNL     1      -2.615   5.715   2.832  0.00  0.00    +0.047 A 
ATOM     20  C   UNL     1      -1.994   4.984   1.838  0.00  0.00    +0.027 A 
BRANCH  18  21
ATOM     21  O   UNL     1      -3.481   5.853   5.043  0.00  0.00    -0.507 OA
ATOM     22  H   UNL     1      -3.774   6.897   4.856  0.00  0.00    +0.292 HD
ENDBRANCH  18  21
ENDBRANCH  14  15
ENDBRANCH   1  14
BRANCH   1  23
ATOM     23  C   UNL     1      -0.196   0.889  -0.026  0.00  0.00    -0.059 C 
BRANCH  23  24
ATOM     24  N   UNL     1      -1.268   0.943  -1.028  0.00  0.00    +0.380 N 
ATOM     25  H   UNL     1      -0.914   0.497  -1.969  0.00  0.00    -0.090 HD
ATOM     26  H   UNL     1      -1.555   1.990  -1.204  0.00  0.00    -0.090 HD
ATOM     27  H   UNL     1      -2.140   0.381  -0.662  0.00  0.00    -0.090 HD
ENDBRANCH  23  24
ENDBRANCH   1  23
TORSDOF 8
