REMARK  Name = ZINC15535873
REMARK  9 active torsions:
REMARK  status: ('A' for Active; 'I' for Inactive)
REMARK    1  A    between atoms: C_1  and  C_2
REMARK    2  A    between atoms: N_11  and  C_15
REMARK    3  A    between atoms: C_15  and  C_16
REMARK    4  A    between atoms: N_18  and  N_19
REMARK    5  A    between atoms: C_20  and  C_22
REMARK    6  A    between atoms: C_29  and  C_32
REMARK    7  A    between atoms: C_32  and  C_33
REMARK    8  A    between atoms: C_32  and  C_34
REMARK    9  A    between atoms: C_32  and  C_35
REMARK                            x       y       z     vdW  Elec       q    Type
REMARK                         _______ _______ _______ _____ _____    ______ ____
ROOT
ATOM      1  C   UNL     1      -2.970   0.347   5.573  0.00  0.00    +0.247 C 
ATOM      2  O   UNL     1      -1.780   0.379   5.344  0.00  0.00    -0.273 OA
ATOM      3  N   UNL     1      -3.411   0.316   6.846  0.00  0.00    -0.233 N 
ATOM      4  H   UNL     1      -4.363   0.290   7.030  0.00  0.00    +0.173 HD
ENDROOT
BRANCH   3   5
ATOM      5  N   UNL     1      -2.493   0.320   7.905  0.00  0.00    -0.230 N 
ATOM      6  C   UNL     1      -2.934   0.288   9.179  0.00  0.00    +0.267 C 
ATOM      7  O   UNL     1      -4.129   0.256   9.409  0.00  0.00    -0.268 OA
ATOM      8  H   UNL     1      -1.541   0.345   7.722  0.00  0.00    +0.173 HD
BRANCH   6   9
ATOM      9  C   UNL     1      -1.974   0.292  10.287  0.00  0.00    +0.076 A 
ATOM     10  C   UNL     1      -2.214   0.270  11.648  0.00  0.00    +0.024 A 
ATOM     11  C   UNL     1      -1.125   0.276  12.505  0.00  0.00    -0.036 A 
ATOM     12  C   UNL     1       0.112   0.315  11.926  0.00  0.00    -0.006 A 
ATOM     13  S   UNL     1      -0.191   0.336  10.231  0.00  0.00    -0.088 S 
ATOM     14  C   UNL     1       1.436   0.334  12.626  0.00  0.00    +0.043 C 
ATOM     15  C   UNL     1       1.215  -0.071  14.091  0.00  0.00    +0.009 C 
ATOM     16  C   UNL     1       0.038   0.733  14.652  0.00  0.00    -0.001 C 
ATOM     17  C   UNL     1      -1.269   0.249  14.024  0.00  0.00    +0.040 C 
BRANCH  16  18
ATOM     18  C   UNL     1      -0.027   0.546  16.169  0.00  0.00    -0.035 C 
ATOM     19  C   UNL     1       1.276   1.040  16.800  0.00  0.00    +0.011 C 
ATOM     20  C   UNL     1      -1.202   1.348  16.731  0.00  0.00    +0.011 C 
ATOM     21  C   UNL     1      -0.220  -0.937  16.493  0.00  0.00    +0.011 C 
ENDBRANCH  16  18
ENDBRANCH   6   9
ENDBRANCH   3   5
BRANCH   1  22
ATOM     22  C   UNL     1      -3.957   0.343   4.434  0.00  0.00    +0.215 C 
BRANCH  22  32
ATOM     23  C   UNL     1      -0.002   1.056   2.507  0.00  0.00    +0.010 C 
ATOM     24  C   UNL     1      -0.730   1.580   1.267  0.00  0.00    +0.018 C 
ATOM     25  C   UNL     1      -0.013   1.086   0.008  0.00  0.00    +0.006 C 
ATOM     26  C   UNL     1      -0.753   1.593  -1.231  0.00  0.00    +0.000 C 
ATOM     27  C   UNL     1      -2.186   1.056  -1.227  0.00  0.00    +0.003 C 
ATOM     28  C   UNL     1      -2.911   1.550   0.027  0.00  0.00    +0.035 C 
ATOM     29  C   UNL     1      -2.167   1.069   1.268  0.00  0.00    +0.115 C 
ATOM     30  C   UNL     1      -2.885   1.517   2.521  0.00  0.00    +0.247 C 
ATOM     31  O   UNL     1      -3.102   2.655   2.875  0.00  0.00    -0.273 OA
ATOM     32  N   UNL     1      -3.233   0.381   3.161  0.00  0.00    -0.215 N 
ATOM     33  C   UNL     1      -2.836  -0.706   2.489  0.00  0.00    +0.310 C 
ATOM     34  O   UNL     1      -3.035  -1.844   2.866  0.00  0.00    -0.252 OA
ATOM     35  N   UNL     1      -2.191  -0.397   1.347  0.00  0.00    -0.285 N 
ATOM     36  H   UNL     1      -1.817  -1.020   0.705  0.00  0.00    +0.151 HD
ENDBRANCH  22  32
ENDBRANCH   1  22
TORSDOF 5
