REMARK  Name = ZINC25741307
REMARK  4 active torsions:
REMARK  status: ('A' for Active; 'I' for Inactive)
REMARK    1  A    between atoms: C_6  and  S_7
REMARK    2  A    between atoms: S_7  and  N_10
REMARK    3  A    between atoms: N_10  and  N_11
REMARK    4  A    between atoms: N_11  and  C_12
REMARK                            x       y       z     vdW  Elec       q    Type
REMARK                         _______ _______ _______ _____ _____    ______ ____
ROOT
ATOM      1  S   UNL     1       1.144   7.815   0.118  0.00  0.00    +0.074 S 
ATOM      2  O   UNL     1       2.135   8.240  -0.807  0.00  0.00    -0.152 OA
ATOM      3  O   UNL     1      -0.214   8.222   0.020  0.00  0.00    -0.152 OA
ENDROOT
BRANCH   1   9
ATOM      4  C   UNL     1       2.276   5.373  -0.329  0.00  0.00    +0.030 A 
ATOM      5  C   UNL     1       2.281   3.991  -0.358  0.00  0.00    +0.025 A 
ATOM      6  C   UNL     1       1.148   3.287   0.028  0.00  0.00    +0.037 A 
ATOM      7  C   UNL     1       0.014   3.974   0.441  0.00  0.00    -0.024 A 
ATOM      8  C   UNL     1       0.015   5.355   0.467  0.00  0.00    +0.034 A 
ATOM      9  C   UNL     1       1.145   6.053   0.083  0.00  0.00    +0.107 A 
ATOM     10  C   UNL     1      -1.215   3.210   0.860  0.00  0.00    +0.046 C 
ATOM     11  C   UNL     1      -1.333   1.935   0.019  0.00  0.00    +0.101 C 
ATOM     12  C   UNL     1      -0.014   1.209   0.009  0.00  0.00    +0.218 C 
ATOM     13  O   UNL     1       0.002  -0.004   0.002  0.00  0.00    -0.275 OA
ATOM     14  N   UNL     1       1.146   1.889   0.001  0.00  0.00    -0.285 N 
ATOM     15  H   UNL     1       2.098   1.339  -0.026  0.00  0.00    +0.155 HD
ENDBRANCH   1   9
BRANCH   1  16
ATOM     16  N   UNL     1       1.669   8.275   1.620  0.00  0.00    -0.110 NA
ATOM     17  H   UNL     1       1.095   8.808   2.192  0.00  0.00    +0.172 HD
BRANCH  16  18
ATOM     18  N   UNL     1       2.942   7.895   2.064  0.00  0.00    -0.259 N 
ATOM     19  H   UNL     1       3.227   6.833   2.071  0.00  0.00    +0.168 HD
BRANCH  18  20
ATOM     20  C   UNL     1       3.850   8.866   2.498  0.00  0.00    +0.079 A 
ATOM     21  C   UNL     1       3.631  10.206   2.202  0.00  0.00    +0.066 A 
ATOM     22  C   UNL     1       4.528  11.164   2.636  0.00  0.00    +0.042 A 
ATOM     23  C   UNL     1       5.649  10.789   3.356  0.00  0.00    +0.044 A 
ATOM     24  C   UNL     1       5.872   9.455   3.648  0.00  0.00    +0.042 A 
ATOM     25  C   UNL     1       4.976   8.493   3.221  0.00  0.00    +0.066 A 
ATOM     26 CL   UNL     1       5.258   6.819   3.588  0.00  0.00    -0.081 Cl
ATOM     27 CL   UNL     1       6.777  11.994   3.894  0.00  0.00    -0.083 Cl
ATOM     28 CL   UNL     1       2.229  10.677   1.293  0.00  0.00    -0.081 Cl
ENDBRANCH  18  20
ENDBRANCH  16  18
ENDBRANCH   1  16
TORSDOF 4
