REMARK  Name = ZINC38700541
REMARK  6 active torsions:
REMARK  status: ('A' for Active; 'I' for Inactive)
REMARK    1  A    between atoms: C_8  and  C_12
REMARK    2  A    between atoms: C_12  and  O_14
REMARK    3  A    between atoms: O_14  and  C_15
REMARK    4  A    between atoms: C_22  and  N_36
REMARK    5  A    between atoms: C_23  and  C_34
REMARK    6  A    between atoms: C_24  and  C_26
REMARK                            x       y       z     vdW  Elec       q    Type
REMARK                         _______ _______ _______ _____ _____    ______ ____
ROOT
ATOM      1  C   UNL     1       3.804  -6.107   0.467  0.00  0.00    +0.135 A 
ATOM      2  C   UNL     1       2.619  -6.778   0.198  0.00  0.00    +0.047 A 
ATOM      3  C   UNL     1       2.599  -8.159   0.171  0.00  0.00    +0.012 A 
ATOM      4  C   UNL     1       3.756  -8.878   0.411  0.00  0.00    +0.008 A 
ATOM      5  C   UNL     1       4.942  -8.214   0.680  0.00  0.00    +0.138 A 
ATOM      6  C   UNL     1       4.966  -6.825   0.702  0.00  0.00    +0.093 A 
ATOM      7  O   UNL     1       6.086  -8.901   0.917  0.00  0.00    -0.441 OA
ATOM      8  C   UNL     1       6.029 -10.195   1.275  0.00  0.00    +0.199 C 
ATOM      9  C   UNL     1       4.931 -10.954   1.046  0.00  0.00    +0.098 C 
ATOM     10  C   UNL     1       3.712 -10.383   0.376  0.00  0.00    +0.101 C 
ENDROOT
BRANCH  10  11
ATOM     11  C   UNL     1       3.667 -10.848  -1.057  0.00  0.00    +0.002 A 
ATOM     12  C   UNL     1       4.698 -10.527  -1.921  0.00  0.00    +0.046 A 
ATOM     13  C   UNL     1       4.655 -10.954  -3.237  0.00  0.00    +0.020 A 
ATOM     14  C   UNL     1       3.584 -11.702  -3.687  0.00  0.00    +0.003 A 
ATOM     15  C   UNL     1       2.554 -12.024  -2.823  0.00  0.00    +0.020 A 
ATOM     16  C   UNL     1       2.598 -11.602  -1.506  0.00  0.00    +0.046 A 
ATOM     17 CL   UNL     1       1.308 -12.013  -0.419  0.00  0.00    -0.083 Cl
ATOM     18 CL   UNL     1       6.043  -9.586  -1.357  0.00  0.00    -0.083 Cl
ENDBRANCH  10  11
BRANCH   8  19
ATOM     19  N   UNL     1       7.116 -10.765   1.889  0.00  0.00    -0.328 N 
ATOM     20  H   UNL     1       7.910 -10.234   2.060  0.00  0.00    +0.145 HD
ATOM     21  H   UNL     1       7.090 -11.698   2.154  0.00  0.00    +0.145 HD
ENDBRANCH   8  19
BRANCH   9  22
ATOM     22  C   UNL     1       4.931 -12.327   1.451  0.00  0.00    +0.101 C 
ATOM     23  N   UNL     1       4.930 -13.417   1.772  0.00  0.00    -0.191 NA
ENDBRANCH   9  22
BRANCH   1  24
ATOM     24  O   UNL     1       3.826  -4.749   0.493  0.00  0.00    -0.422 OA
BRANCH  24  25
ATOM     25  C   UNL     1       4.341  -4.103  -0.572  0.00  0.00    +0.351 C 
ATOM     26  O   UNL     1       4.849  -4.735  -1.479  0.00  0.00    -0.244 OA
BRANCH  25  34
ATOM     27  C   UNL     1       4.950   1.579  -2.826  0.00  0.00    +0.001 A 
ATOM     28  C   UNL     1       4.535   2.235  -1.676  0.00  0.00    +0.004 A 
ATOM     29  C   UNL     1       4.242   1.526  -0.529  0.00  0.00    +0.047 A 
ATOM     30  C   UNL     1       4.358   0.142  -0.525  0.00  0.00    +0.139 A 
ATOM     31  C   UNL     1       4.752  -0.524  -1.700  0.00  0.00    +0.018 A 
ATOM     32  C   UNL     1       5.066   0.219  -2.848  0.00  0.00    +0.011 A 
ATOM     33  C   UNL     1       4.811  -1.942  -1.723  0.00  0.00    +0.033 A 
ATOM     34  C   UNL     1       4.289  -2.635  -0.638  0.00  0.00    +0.144 A 
ATOM     35  C   UNL     1       3.680  -1.840   0.444  0.00  0.00    +0.351 A 
ATOM     36  O   UNL     1       2.828  -2.315   1.171  0.00  0.00    -0.244 OA
ATOM     37  O   UNL     1       4.101  -0.564   0.603  0.00  0.00    -0.422 OA
ENDBRANCH  25  34
ENDBRANCH  24  25
ENDBRANCH   1  24
TORSDOF 6
