REMARK  Name = ZINC06393167
REMARK  8 active torsions:
REMARK  status: ('A' for Active; 'I' for Inactive)
REMARK    1  A    between atoms: C_1  and  C_2
REMARK    2  A    between atoms: C_2  and  C_19
REMARK    3  A    between atoms: C_5  and  C_10
REMARK    4  A    between atoms: C_7  and  C_8
REMARK    5  A    between atoms: C_7  and  C_9
REMARK    6  A    between atoms: N_21  and  N_22
REMARK    7  A    between atoms: C_23  and  C_24
REMARK    8  A    between atoms: N_27  and  C_29
REMARK                            x       y       z     vdW  Elec       q    Type
REMARK                         _______ _______ _______ _____ _____    ______ ____
ROOT
ATOM      1  C   UNL     1      -0.086   1.351  -0.198  0.00  0.00    +0.021 C 
ATOM      2  C   UNL     1       0.044  -0.170  -0.307  0.00  0.00    +0.052 C 
ATOM      3  C   UNL     1       0.928  -0.540  -1.516  0.00  0.00    +0.017 C 
ATOM      4  C   UNL     1       2.340  -0.735  -0.908  0.00  0.00    +0.013 C 
ATOM      5  C   UNL     1       2.036  -1.421   0.448  0.00  0.00    +0.062 C 
ATOM      6  C   UNL     1       0.748  -0.730   0.941  0.00  0.00    -0.012 C 
ATOM      7  C   UNL     1       1.099   0.409   1.900  0.00  0.00    +0.012 C 
ATOM      8  C   UNL     1      -0.156  -1.746   1.641  0.00  0.00    +0.012 C 
ENDROOT
BRANCH   5   9
ATOM      9  C   UNL     1       3.166  -1.192   1.419  0.00  0.00    +0.112 A 
ATOM     10  N   UNL     1       3.553  -2.042   2.325  0.00  0.00    -0.232 NA
ATOM     11  C   UNL     1       4.592  -1.520   3.026  0.00  0.00    +0.089 A 
ATOM     12  C   UNL     1       5.373  -1.990   4.085  0.00  0.00    +0.030 A 
ATOM     13  C   UNL     1       6.375  -1.210   4.590  0.00  0.00    +0.002 A 
ATOM     14  C   UNL     1       6.628   0.047   4.062  0.00  0.00    +0.002 A 
ATOM     15  C   UNL     1       5.870   0.532   3.017  0.00  0.00    +0.028 A 
ATOM     16  C   UNL     1       4.848  -0.246   2.491  0.00  0.00    +0.066 A 
ATOM     17  N   UNL     1       3.933  -0.070   1.472  0.00  0.00    -0.342 N 
ATOM     18  H   UNL     1       3.850   0.710   0.901  0.00  0.00    +0.167 HD
ENDBRANCH   5   9
BRANCH   2  19
ATOM     19  C   UNL     1      -1.320  -0.795  -0.454  0.00  0.00    +0.239 C 
ATOM     20  O   UNL     1      -1.542  -1.559  -1.370  0.00  0.00    -0.273 OA
ATOM     21  N   UNL     1      -2.293  -0.504   0.431  0.00  0.00    -0.207 N 
ATOM     22  H   UNL     1      -2.137   0.157   1.124  0.00  0.00    +0.177 HD
BRANCH  21  23
ATOM     23  N   UNL     1      -3.531  -1.155   0.351  0.00  0.00    -0.188 NA
ATOM     24  C   UNL     1      -4.468  -0.875   1.203  0.00  0.00    +0.141 C 
BRANCH  24  25
ATOM     25  C   UNL     1      -5.772  -1.562   1.119  0.00  0.00    +0.032 A 
ATOM     26  C   UNL     1      -6.141  -2.544   0.174  0.00  0.00    +0.143 A 
ATOM     27  N   UNL     1      -7.369  -2.907   0.426  0.00  0.00    -0.179 NA
ATOM     28  N   UNL     1      -7.838  -2.184   1.529  0.00  0.00    -0.274 N 
ATOM     29  C   UNL     1      -6.853  -1.367   1.951  0.00  0.00    +0.117 A 
ATOM     30  C   UNL     1      -9.171  -2.299   2.126  0.00  0.00    +0.172 C 
ENDBRANCH  24  25
ENDBRANCH  21  23
ENDBRANCH   2  19
TORSDOF 4
