REMARK  Name = ZINC44241190
REMARK  7 active torsions:
REMARK  status: ('A' for Active; 'I' for Inactive)
REMARK    1  A    between atoms: C_1  and  C_2
REMARK    2  A    between atoms: C_2  and  C_3
REMARK    3  A    between atoms: C_2  and  O_4
REMARK    4  A    between atoms: O_4  and  C_5
REMARK    5  A    between atoms: N_7  and  C_8
REMARK    6  A    between atoms: C_8  and  C_16
REMARK    7  A    between atoms: N_17  and  O_18
REMARK                            x       y       z     vdW  Elec       q    Type
REMARK                         _______ _______ _______ _____ _____    ______ ____
ROOT
ATOM      1  C   UNL     1      -0.188  -1.466   4.621  0.00  0.00    +0.096 C 
ATOM      2  C   UNL     1      -1.370  -2.386   4.458  0.00  0.00    +0.033 C 
ATOM      3  C   UNL     1      -1.133  -3.861   4.197  0.00  0.00    +0.002 C 
ATOM      4  C   UNL     1      -0.181  -4.115   3.025  0.00  0.00    +0.000 C 
ATOM      5  C   UNL     1       1.128  -4.711   3.575  0.00  0.00    +0.000 C 
ATOM      6  C   UNL     1       1.959  -3.624   4.255  0.00  0.00    +0.000 C 
ATOM      7  C   UNL     1       1.334  -3.290   5.608  0.00  0.00    +0.002 C 
ATOM      8  C   UNL     1       0.821  -1.869   5.676  0.00  0.00    +0.033 C 
ENDROOT
BRANCH   1   9
ATOM      9  C   UNL     1      -0.763  -0.118   5.092  0.00  0.00    +0.155 C 
ATOM     10  N   UNL     1      -0.362   0.402   6.204  0.00  0.00    -0.075 NA
ATOM     11  N   UNL     1      -1.705   0.533   4.327  0.00  0.00    -0.342 N 
ATOM     12  H   UNL     1      -1.952   0.181   3.457  0.00  0.00    +0.144 HD
ATOM     13  H   UNL     1      -2.122   1.344   4.658  0.00  0.00    +0.144 HD
BRANCH  10  14
ATOM     14  O   UNL     1      -0.891   1.642   6.637  0.00  0.00    -0.408 OA
ATOM     15  H   UNL     1      -0.531   1.951   7.480  0.00  0.00    +0.328 HD
ENDBRANCH  10  14
ENDBRANCH   1   9
BRANCH   1  18
ATOM     16  C   UNL     1       1.454  -0.259   3.283  0.00  0.00    +0.401 C 
ATOM     17  O   UNL     1       1.754   0.377   4.274  0.00  0.00    -0.226 OA
ATOM     18  N   UNL     1       0.459  -1.167   3.340  0.00  0.00    -0.269 N 
ATOM     19  H   UNL     1       0.170  -1.621   2.534  0.00  0.00    +0.153 HD
BRANCH  16  20
ATOM     20  O   UNL     1       2.116  -0.058   2.128  0.00  0.00    -0.448 OA
BRANCH  20  22
ATOM     21  C   UNL     1       4.482   0.247   2.511  0.00  0.00    +0.052 C 
ATOM     22  C   UNL     1       3.159   0.918   2.140  0.00  0.00    +0.172 C 
ATOM     23  C   UNL     1       3.280   1.552   0.752  0.00  0.00    +0.052 C 
ENDBRANCH  20  22
ENDBRANCH  16  20
ENDBRANCH   1  18
TORSDOF 5
