REMARK  Name = ZINC40703329
REMARK  5 active torsions:
REMARK  status: ('A' for Active; 'I' for Inactive)
REMARK    1  A    between atoms: C_1  and  C_2
REMARK    2  A    between atoms: C_13  and  N_27
REMARK    3  A    between atoms: C_14  and  N_18
REMARK    4  A    between atoms: N_18  and  C_19
REMARK    5  A    between atoms: C_24  and  C_25
REMARK                            x       y       z     vdW  Elec       q    Type
REMARK                         _______ _______ _______ _____ _____    ______ ____
ROOT
ATOM      1  C   UNL     1      -0.110   1.501   0.016  0.00  0.00    +0.044 C 
ATOM      2  C   UNL     1      -0.078  -0.005   0.007  0.00  0.00    -0.049 A 
ATOM      3  C   UNL     1      -0.053  -0.699  -1.195  0.00  0.00    +0.005 A 
ATOM      4  C   UNL     1      -0.025  -2.068  -1.230  0.00  0.00    +0.029 A 
ATOM      5  C   UNL     1      -0.019  -2.823  -0.034  0.00  0.00    +0.080 A 
ATOM      6  C   UNL     1      -0.044  -2.083   1.170  0.00  0.00    +0.041 A 
ATOM      7  C   UNL     1      -0.067  -0.711   1.196  0.00  0.00    +0.020 A 
ATOM      8  S   UNL     1      -0.027  -3.364   2.401  0.00  0.00    -0.052 S 
ATOM      9  C   UNL     1       0.011  -4.754   1.279  0.00  0.00    +0.165 A 
ATOM     10  N   UNL     1       0.008  -4.166   0.104  0.00  0.00    -0.225 NA
ATOM     11  N   UNL     1       0.038  -6.104   1.572  0.00  0.00    -0.277 N 
ATOM     12  C   UNL     1       0.066  -7.039   0.542  0.00  0.00    +0.150 A 
ATOM     13  C   UNL     1       0.087  -8.406   0.826  0.00  0.00    +0.106 A 
ATOM     14  C   UNL     1       0.114  -9.302  -0.245  0.00  0.00    +0.149 A 
ATOM     15  N   UNL     1       0.118  -8.822  -1.486  0.00  0.00    -0.219 NA
ATOM     16  C   UNL     1       0.098  -7.524  -1.710  0.00  0.00    +0.225 A 
ATOM     17  N   UNL     1       0.067  -6.645  -0.729  0.00  0.00    -0.219 NA
ATOM     18  H   UNL     1       0.037  -6.400   2.496  0.00  0.00    +0.156 HD
ENDROOT
BRANCH  13  19
ATOM     19  N   UNL     1       0.082  -8.867   2.152  0.00  0.00    -0.353 N 
ATOM     20  H   UNL     1       0.063  -8.233   2.886  0.00  0.00    +0.143 HD
ATOM     21  H   UNL     1       0.097  -9.820   2.334  0.00  0.00    +0.143 HD
ENDBRANCH  13  19
BRANCH  14  22
ATOM     22  N   UNL     1       0.136 -10.673  -0.018  0.00  0.00    -0.298 N 
ATOM     23  H   UNL     1       0.221 -11.014   0.886  0.00  0.00    +0.154 HD
BRANCH  22  24
ATOM     24  C   UNL     1       0.037 -11.561  -1.093  0.00  0.00    +0.035 A 
ATOM     25  C   UNL     1      -0.577 -11.160  -2.273  0.00  0.00    +0.025 A 
ATOM     26  C   UNL     1      -0.673 -12.039  -3.333  0.00  0.00    +0.022 A 
ATOM     27  C   UNL     1      -0.159 -13.319  -3.222  0.00  0.00    +0.041 A 
ATOM     28  C   UNL     1       0.453 -13.722  -2.048  0.00  0.00    +0.025 A 
ATOM     29  C   UNL     1       0.557 -12.845  -0.986  0.00  0.00    -0.028 A 
ATOM     30  C   UNL     1       1.229 -13.282   0.290  0.00  0.00    +0.046 C 
ATOM     31 CL   UNL     1      -0.282 -14.422  -4.557  0.00  0.00    -0.084 Cl
ENDBRANCH  22  24
ENDBRANCH  14  22
TORSDOF 3
