REMARK  Name = ZINC19500648
REMARK  13 active torsions:
REMARK  status: ('A' for Active; 'I' for Inactive)
REMARK    1  A    between atoms: C_1  and  C_2
REMARK    2  A    between atoms: C_2  and  C_3
REMARK    3  A    between atoms: C_3  and  C_5
REMARK    4  A    between atoms: C_3  and  N_18
REMARK    5  A    between atoms: N_9  and  C_10
REMARK    6  A    between atoms: C_10  and  C_11
REMARK    7  A    between atoms: C_11  and  C_12
REMARK    8  A    between atoms: N_18  and  C_19
REMARK    9  A    between atoms: N_18  and  C_25
REMARK   10  A    between atoms: C_19  and  C_20
REMARK   11  A    between atoms: C_25  and  C_26
REMARK   12  A    between atoms: C_29  and  C_39
REMARK   13  A    between atoms: C_32  and  C_38
REMARK                            x       y       z     vdW  Elec       q    Type
REMARK                         _______ _______ _______ _____ _____    ______ ____
ROOT
ATOM      1  N   UNL     1      -2.078  -0.097   1.401  0.00  0.00    +0.394 N 
ATOM      2  H   UNL     1      -1.380  -0.522   1.992  0.00  0.00    -0.080 HD
ENDROOT
BRANCH   1   3
ATOM      3  C   UNL     1      -1.740  -0.338  -0.008  0.00  0.00    +0.003 C 
BRANCH   3   4
ATOM      4  C   UNL     1      -2.757   0.339  -0.891  0.00  0.00    +0.138 A 
ATOM      5  N   UNL     1      -4.053   0.378  -0.704  0.00  0.00    -0.115 NA
ATOM      6  N   UNL     1      -4.575   1.049  -1.672  0.00  0.00    -0.023 NA
ATOM      7  N   UNL     1      -3.645   1.439  -2.472  0.00  0.00    -0.044 NA
ATOM      8  N   UNL     1      -2.509   1.025  -2.022  0.00  0.00    -0.231 N 
BRANCH   8   9
ATOM      9  C   UNL     1      -1.196   1.256  -2.630  0.00  0.00    +0.152 C 
BRANCH   9  10
ATOM     10  C   UNL     1      -0.940   0.200  -3.707  0.00  0.00    +0.058 C 
BRANCH  10  11
ATOM     11  C   UNL     1       0.411   0.438  -4.332  0.00  0.00    -0.046 A 
ATOM     12  C   UNL     1       0.527   1.264  -5.434  0.00  0.00    +0.004 A 
ATOM     13  C   UNL     1       1.766   1.482  -6.007  0.00  0.00    +0.000 A 
ATOM     14  C   UNL     1       2.889   0.874  -5.478  0.00  0.00    +0.000 A 
ATOM     15  C   UNL     1       2.773   0.048  -4.376  0.00  0.00    +0.000 A 
ATOM     16  C   UNL     1       1.535  -0.166  -3.800  0.00  0.00    +0.004 A 
ENDBRANCH  10  11
ENDBRANCH   9  10
ENDBRANCH   8   9
ENDBRANCH   3   4
BRANCH   3  18
ATOM     17  C   UNL     1      -0.667  -2.521   0.562  0.00  0.00    +0.002 C 
ATOM     18  C   UNL     1      -1.747  -1.843  -0.284  0.00  0.00    -0.011 C 
ENDBRANCH   3  18
ENDBRANCH   1   3
BRANCH   1  19
ATOM     19  C   UNL     1      -2.118   1.350   1.654  0.00  0.00    -0.002 C 
BRANCH  19  20
ATOM     20  C   UNL     1      -0.735   1.926   1.493  0.00  0.00    +0.089 A 
ATOM     21  C   UNL     1      -0.250   2.509   0.382  0.00  0.00    +0.042 A 
ATOM     22  C   UNL     1       1.077   2.902   0.671  0.00  0.00    +0.041 A 
ATOM     23  C   UNL     1       1.323   2.536   1.942  0.00  0.00    +0.195 A 
ATOM     24  O   UNL     1       0.221   1.951   2.436  0.00  0.00    -0.470 OA
ENDBRANCH  19  20
ENDBRANCH   1  19
BRANCH   1  25
ATOM     25  C   UNL     1      -3.393  -0.682   1.696  0.00  0.00    -0.036 C 
BRANCH  25  26
ATOM     26  C   UNL     1      -3.675  -0.563   3.172  0.00  0.00    +0.001 A 
ATOM     27  C   UNL     1      -4.419   0.472   3.635  0.00  0.00    +0.017 A 
ATOM     28  C   UNL     1      -4.676   0.559   5.074  0.00  0.00    +0.002 A 
ATOM     29  C   UNL     1      -5.437   1.602   5.612  0.00  0.00    -0.041 A 
ATOM     30  C   UNL     1      -5.659   1.655   6.958  0.00  0.00    +0.004 A 
ATOM     31  C   UNL     1      -5.136   0.682   7.799  0.00  0.00    +0.005 A 
ATOM     32  C   UNL     1      -4.383  -0.355   7.292  0.00  0.00    -0.026 A 
ATOM     33  C   UNL     1      -4.144  -0.430   5.923  0.00  0.00    +0.052 A 
ATOM     34  N   UNL     1      -3.396  -1.457   5.389  0.00  0.00    -0.322 N 
ATOM     35  H   UNL     1      -3.030  -2.137   5.975  0.00  0.00    +0.169 HD
ATOM     36  C   UNL     1      -3.170  -1.531   4.066  0.00  0.00    +0.251 A 
ATOM     37  O   UNL     1      -2.507  -2.456   3.627  0.00  0.00    -0.268 OA
ATOM     38  C   UNL     1      -3.820  -1.404   8.216  0.00  0.00    +0.046 C 
ATOM     39  C   UNL     1      -6.009   2.664   4.708  0.00  0.00    +0.044 C 
ENDBRANCH  25  26
ENDBRANCH   1  25
TORSDOF 10
