REMARK  Name = ZINC60377478
REMARK  13 active torsions:
REMARK  status: ('A' for Active; 'I' for Inactive)
REMARK    1  A    between atoms: C_1  and  C_2
REMARK    2  A    between atoms: C_2  and  C_4
REMARK    3  A    between atoms: C_2  and  N_19
REMARK    4  A    between atoms: N_6  and  C_7
REMARK    5  A    between atoms: C_7  and  C_8
REMARK    6  A    between atoms: C_8  and  C_9
REMARK    7  A    between atoms: C_12  and  S_15
REMARK    8  A    between atoms: S_15  and  N_18
REMARK    9  A    between atoms: C_22  and  C_25
REMARK   10  A    between atoms: C_25  and  N_26
REMARK   11  A    between atoms: N_26  and  C_27
REMARK   12  A    between atoms: N_26  and  C_28
REMARK   13  A    between atoms: C_28  and  C_29
REMARK                            x       y       z     vdW  Elec       q    Type
REMARK                         _______ _______ _______ _____ _____    ______ ____
ROOT
ATOM      1  C   UNL     1      -0.192   1.045   0.184  0.00  0.00    -0.004 C 
ATOM      2  C   UNL     1      -0.349  -0.476   0.152  0.00  0.00    +0.016 C 
ENDROOT
BRANCH   2   3
ATOM      3  N   UNL     1       0.077  -1.040   1.440  0.00  0.00    +0.387 N 
ATOM      4  C   UNL     1      -0.170  -2.487   1.445  0.00  0.00    -0.078 C 
ATOM      5  C   UNL     1       0.348  -3.092   2.752  0.00  0.00    -0.017 C 
ATOM      6  C   UNL     1      -0.382  -2.444   3.932  0.00  0.00    -0.031 C 
ATOM      7  C   UNL     1      -0.179  -0.927   3.874  0.00  0.00    -0.017 C 
ATOM      8  C   UNL     1      -0.676  -0.402   2.526  0.00  0.00    -0.078 C 
ATOM      9  H   UNL     1       1.063  -0.869   1.571  0.00  0.00    -0.081 HD
BRANCH   6  10
ATOM     10  C   UNL     1       0.186  -2.986   5.245  0.00  0.00    -0.075 C 
BRANCH  10  11
ATOM     11  N   UNL     1      -0.111  -4.421   5.351  0.00  0.00    +0.381 N 
ATOM     12  C   UNL     1      -1.559  -4.612   5.502  0.00  0.00    -0.096 C 
ATOM     13  H   UNL     1       0.205  -4.892   4.516  0.00  0.00    -0.082 HD
BRANCH  11  14
ATOM     14  C   UNL     1       0.582  -4.979   6.520  0.00  0.00    -0.043 C 
BRANCH  14  15
ATOM     15  C   UNL     1       0.378  -6.472   6.559  0.00  0.00    -0.064 A 
ATOM     16  C   UNL     1      -0.707  -7.004   7.230  0.00  0.00    +0.002 A 
ATOM     17  C   UNL     1      -0.893  -8.374   7.266  0.00  0.00    +0.000 A 
ATOM     18  C   UNL     1       0.005  -9.210   6.630  0.00  0.00    +0.000 A 
ATOM     19  C   UNL     1       1.089  -8.678   5.959  0.00  0.00    +0.000 A 
ATOM     20  C   UNL     1       1.274  -7.309   5.919  0.00  0.00    +0.002 A 
ENDBRANCH  14  15
ENDBRANCH  11  14
ENDBRANCH  10  11
ENDBRANCH   6  10
ENDBRANCH   2   3
BRANCH   2  21
ATOM     21  C   UNL     1       0.502  -1.047  -0.953  0.00  0.00    +0.199 C 
ATOM     22  O   UNL     1       1.581  -1.537  -0.695  0.00  0.00    -0.278 OA
ATOM     23  N   UNL     1       0.064  -1.012  -2.227  0.00  0.00    -0.316 N 
ATOM     24  H   UNL     1      -0.799  -0.620  -2.432  0.00  0.00    +0.149 HD
BRANCH  23  25
ATOM     25  C   UNL     1       0.891  -1.567  -3.301  0.00  0.00    +0.109 C 
BRANCH  25  26
ATOM     26  C   UNL     1       0.167  -1.402  -4.639  0.00  0.00    +0.054 C 
BRANCH  26  27
ATOM     27  C   UNL     1       1.018  -1.972  -5.744  0.00  0.00    -0.046 A 
ATOM     28  C   UNL     1       1.933  -1.168  -6.397  0.00  0.00    +0.005 A 
ATOM     29  C   UNL     1       2.714  -1.691  -7.411  0.00  0.00    +0.029 A 
ATOM     30  C   UNL     1       2.580  -3.019  -7.771  0.00  0.00    +0.105 A 
ATOM     31  C   UNL     1       1.666  -3.823  -7.117  0.00  0.00    +0.029 A 
ATOM     32  C   UNL     1       0.888  -3.301  -6.101  0.00  0.00    +0.005 A 
BRANCH  30  33
ATOM     33  S   UNL     1       3.575  -3.685  -9.064  0.00  0.00    +0.056 S 
ATOM     34  O   UNL     1       2.873  -4.809  -9.577  0.00  0.00    -0.153 OA
ATOM     35  O   UNL     1       3.963  -2.591  -9.883  0.00  0.00    -0.153 OA
BRANCH  33  36
ATOM     36  N   UNL     1       4.958  -4.269  -8.366  0.00  0.00    -0.204 NA
ATOM     37  H   UNL     1       5.421  -5.023  -8.764  0.00  0.00    +0.144 HD
ATOM     38  H   UNL     1       5.306  -3.857  -7.560  0.00  0.00    +0.144 HD
ENDBRANCH  33  36
ENDBRANCH  30  33
ENDBRANCH  26  27
ENDBRANCH  25  26
ENDBRANCH  23  25
ENDBRANCH   2  21
TORSDOF 11
