REMARK  Name = ZINC35198538
REMARK  12 active torsions:
REMARK  status: ('A' for Active; 'I' for Inactive)
REMARK    1  A    between atoms: C_1  and  C_2
REMARK    2  A    between atoms: C_2  and  C_3
REMARK    3  A    between atoms: C_3  and  C_5
REMARK    4  A    between atoms: C_3  and  C_11
REMARK    5  A    between atoms: N_13  and  C_14
REMARK    6  A    between atoms: C_14  and  C_16
REMARK    7  A    between atoms: C_14  and  C_17
REMARK    8  A    between atoms: C_20  and  S_31
REMARK    9  A    between atoms: N_21  and  C_22
REMARK   10  A    between atoms: C_25  and  N_28
REMARK   11  A    between atoms: S_31  and  C_32
REMARK   12  A    between atoms: C_32  and  C_33
REMARK                            x       y       z     vdW  Elec       q    Type
REMARK                         _______ _______ _______ _____ _____    ______ ____
ROOT
ATOM      1  C   UNL     1       4.179   2.600  -0.049  0.00  0.00    +0.159 A 
ATOM      2  N   UNL     1       3.534   3.696  -0.333  0.00  0.00    -0.131 NA
ATOM      3  N   UNL     1       3.893   4.640   0.462  0.00  0.00    -0.122 NA
ATOM      4  C   UNL     1       4.795   4.195   1.306  0.00  0.00    +0.196 A 
ATOM      5  N   UNL     1       5.002   2.875   1.011  0.00  0.00    -0.273 N 
ENDROOT
BRANCH   5   6
ATOM      6  C   UNL     1       5.878   1.990   1.656  0.00  0.00    +0.050 A 
ATOM      7  C   UNL     1       5.376   0.894   2.346  0.00  0.00    +0.028 A 
ATOM      8  C   UNL     1       6.240   0.024   2.980  0.00  0.00    +0.035 A 
ATOM      9  C   UNL     1       7.605   0.243   2.929  0.00  0.00    +0.126 A 
ATOM     10  C   UNL     1       8.108   1.333   2.243  0.00  0.00    +0.035 A 
ATOM     11  C   UNL     1       7.248   2.204   1.602  0.00  0.00    +0.028 A 
BRANCH   9  12
ATOM     12  N   UNL     1       8.529  -0.691   3.611  0.00  0.00    +0.056 N 
ATOM     13  O   UNL     1       8.090  -1.645   4.211  0.00  0.00    -0.126 OA
ATOM     14  O   UNL     1       9.722  -0.501   3.567  0.00  0.00    -0.126 OA
ENDBRANCH   9  12
ENDBRANCH   5   6
BRANCH   1  15
ATOM     15  C   UNL     1       4.040   1.274  -0.751  0.00  0.00    +0.138 C 
ATOM     16  C   UNL     1       4.755   1.335  -2.102  0.00  0.00    +0.036 C 
BRANCH  15  19
ATOM     17  C   UNL     1       2.208  -0.296  -1.092  0.00  0.00    +0.221 C 
ATOM     18  O   UNL     1       3.022  -1.194  -1.149  0.00  0.00    -0.275 OA
ATOM     19  N   UNL     1       2.620   0.980  -0.963  0.00  0.00    -0.305 N 
ATOM     20  H   UNL     1       1.977   1.704  -1.010  0.00  0.00    +0.149 HD
BRANCH  17  21
ATOM     21  C   UNL     1       0.736  -0.609  -1.167  0.00  0.00    +0.105 C 
BRANCH  21  22
ATOM     22  C   UNL     1       0.538  -1.930  -1.866  0.00  0.00    -0.036 A 
ATOM     23  C   UNL     1       1.092  -3.081  -1.339  0.00  0.00    +0.004 A 
ATOM     24  C   UNL     1       0.911  -4.292  -1.980  0.00  0.00    +0.000 A 
ATOM     25  C   UNL     1       0.174  -4.352  -3.148  0.00  0.00    +0.000 A 
ATOM     26  C   UNL     1      -0.382  -3.201  -3.675  0.00  0.00    +0.000 A 
ATOM     27  C   UNL     1      -0.204  -1.990  -3.031  0.00  0.00    +0.004 A 
ENDBRANCH  21  22
BRANCH  21  29
ATOM     28  C   UNL     1      -1.359  -0.871   0.170  0.00  0.00    +0.005 C 
ATOM     29  C   UNL     1       0.159  -0.689   0.247  0.00  0.00    +0.014 C 
ENDBRANCH  21  29
ENDBRANCH  17  21
ENDBRANCH  15  19
ENDBRANCH   1  15
BRANCH   4  30
ATOM     30  S   UNL     1       5.583   5.120   2.582  0.00  0.00    -0.081 S 
BRANCH  30  31
ATOM     31  C   UNL     1       4.857   6.776   2.436  0.00  0.00    +0.112 C 
BRANCH  31  32
ATOM     32  C   UNL     1       5.452   7.679   3.485  0.00  0.00    -0.037 A 
ATOM     33  C   UNL     1       4.860   7.776   4.730  0.00  0.00    +0.007 A 
ATOM     34  C   UNL     1       5.406   8.604   5.693  0.00  0.00    +0.038 A 
ATOM     35  C   UNL     1       6.546   9.337   5.409  0.00  0.00    +0.123 A 
ATOM     36  C   UNL     1       7.138   9.240   4.161  0.00  0.00    +0.038 A 
ATOM     37  C   UNL     1       6.594   8.407   3.202  0.00  0.00    +0.007 A 
ATOM     38  F   UNL     1       7.080  10.148   6.349  0.00  0.00    -0.205 F 
ENDBRANCH  31  32
ENDBRANCH  30  31
ENDBRANCH   4  30
TORSDOF 10
