REMARK  Name = ZINC39603976
REMARK  9 active torsions:
REMARK  status: ('A' for Active; 'I' for Inactive)
REMARK    1  A    between atoms: C_1  and  C_2
REMARK    2  A    between atoms: C_2  and  O_3
REMARK    3  A    between atoms: O_3  and  C_4
REMARK    4  A    between atoms: C_4  and  C_6
REMARK    5  A    between atoms: C_6  and  C_7
REMARK    6  A    between atoms: C_7  and  N_8
REMARK    7  A    between atoms: C_9  and  C_11
REMARK    8  A    between atoms: C_22  and  C_24
REMARK    9  A    between atoms: C_27  and  C_31
REMARK                            x       y       z     vdW  Elec       q    Type
REMARK                         _______ _______ _______ _____ _____    ______ ____
ROOT
ATOM      1  C   UNL     1       2.730  -6.441  -4.489  0.00  0.00    +0.100 C 
ATOM      2  C   UNL     1       4.124  -5.838  -4.772  0.00  0.00    +0.121 C 
ATOM      3  N   UNL     1       5.080  -6.874  -4.316  0.00  0.00    -0.296 N 
ATOM      4  C   UNL     1       4.461  -8.155  -4.733  0.00  0.00    +0.115 C 
ATOM      5  C   UNL     1       2.954  -7.962  -4.467  0.00  0.00    -0.004 C 
ATOM      6  C   UNL     1       2.583  -8.532  -3.102  0.00  0.00    -0.010 C 
ATOM      7  C   UNL     1       2.761 -10.053  -3.123  0.00  0.00    -0.082 C 
ATOM      8  N   UNL     1       1.907 -10.632  -4.166  0.00  0.00    +0.379 N 
ATOM      9  C   UNL     1       2.330 -10.150  -5.486  0.00  0.00    -0.082 C 
ATOM     10  C   UNL     1       2.134  -8.633  -5.565  0.00  0.00    -0.010 C 
ATOM     11  C   UNL     1       6.248  -6.693  -3.669  0.00  0.00    +0.249 C 
ATOM     12  O   UNL     1       6.971  -7.644  -3.443  0.00  0.00    -0.270 OA
ATOM     13  H   UNL     1       1.979 -11.638  -4.138  0.00  0.00    -0.086 HD
ATOM     14  H   UNL     1       0.948 -10.362  -4.003  0.00  0.00    -0.086 HD
ENDROOT
BRANCH  11  15
ATOM     15  C   UNL     1       6.650  -5.340  -3.235  0.00  0.00    +0.072 A 
ATOM     16  C   UNL     1       6.325  -4.227  -4.014  0.00  0.00    +0.016 A 
ATOM     17  C   UNL     1       6.702  -2.967  -3.602  0.00  0.00    +0.013 A 
ATOM     18  C   UNL     1       7.403  -2.801  -2.420  0.00  0.00    +0.058 A 
ATOM     19  C   UNL     1       7.729  -3.895  -1.642  0.00  0.00    +0.051 A 
ATOM     20  C   UNL     1       7.352  -5.166  -2.038  0.00  0.00    +0.136 A 
ATOM     21  F   UNL     1       7.667  -6.235  -1.275  0.00  0.00    -0.205 F 
BRANCH  18  22
ATOM     22  C   UNL     1       7.811  -1.419  -1.978  0.00  0.00    +0.418 C 
ATOM     23  F   UNL     1       6.800  -0.864  -1.186  0.00  0.00    -0.166 F 
ATOM     24  F   UNL     1       8.995  -1.497  -1.236  0.00  0.00    -0.166 F 
ATOM     25  F   UNL     1       8.018  -0.613  -3.103  0.00  0.00    -0.166 F 
ENDBRANCH  18  22
ENDBRANCH  11  15
BRANCH   1  27
ATOM     26  N   UNL     1       0.887  -5.886  -2.934  0.00  0.00    -0.314 N 
ATOM     27  C   UNL     1       2.215  -5.968  -3.154  0.00  0.00    +0.218 C 
ATOM     28  O   UNL     1       2.994  -5.660  -2.277  0.00  0.00    -0.275 OA
ATOM     29  H   UNL     1       0.264  -6.133  -3.635  0.00  0.00    +0.149 HD
BRANCH  26  30
ATOM     30  C   UNL     1       0.386  -5.427  -1.636  0.00  0.00    +0.115 C 
BRANCH  30  31
ATOM     31  C   UNL     1      -1.143  -5.428  -1.651  0.00  0.00    +0.139 C 
BRANCH  31  32
ATOM     32  C   UNL     1      -1.659  -4.955  -0.316  0.00  0.00    +0.309 C 
ATOM     33  O   UNL     1      -0.882  -4.648   0.557  0.00  0.00    -0.251 OA
BRANCH  32  34
ATOM     34  O   UNL     1      -2.981  -4.874  -0.097  0.00  0.00    -0.465 OA
BRANCH  34  36
ATOM     35  C   UNL     1      -4.927  -4.392   1.252  0.00  0.00    +0.048 C 
ATOM     36  C   UNL     1      -3.398  -4.417   1.191  0.00  0.00    +0.229 C 
ENDBRANCH  34  36
ENDBRANCH  32  34
ENDBRANCH  31  32
ENDBRANCH  30  31
ENDBRANCH  26  30
ENDBRANCH   1  27
TORSDOF 8
