REMARK  Name = ZINC02658471
REMARK  9 active torsions:
REMARK  status: ('A' for Active; 'I' for Inactive)
REMARK    1  A    between atoms: C_1  and  O_2
REMARK    2  A    between atoms: O_2  and  C_3
REMARK    3  A    between atoms: C_6  and  C_9
REMARK    4  A    between atoms: C_18  and  C_20
REMARK    5  A    between atoms: C_23  and  O_26
REMARK    6  A    between atoms: O_26  and  C_27
REMARK    7  A    between atoms: C_28  and  C_30
REMARK    8  A    between atoms: C_30  and  S_31
REMARK    9  A    between atoms: S_31  and  C_32
REMARK                            x       y       z     vdW  Elec       q    Type
REMARK                         _______ _______ _______ _____ _____    ______ ____
ROOT
ATOM      1  C   UNL     1      -7.322  -1.349   0.731  0.00  0.00    +0.013 C 
ATOM      2  C   UNL     1      -6.888  -2.491   0.169  0.00  0.00    -0.024 C 
ATOM      3  C   UNL     1      -7.676  -3.787   0.253  0.00  0.00    +0.037 C 
ATOM      4  C   UNL     1      -6.696  -4.928   0.550  0.00  0.00    +0.009 C 
ATOM      5  C   UNL     1      -5.708  -5.090  -0.610  0.00  0.00    +0.035 C 
ATOM      6  C   UNL     1      -5.082  -3.758  -0.924  0.00  0.00    -0.021 C 
ATOM      7  C   UNL     1      -5.608  -2.569  -0.574  0.00  0.00    +0.049 C 
ATOM      8  N   UNL     1      -4.807  -1.524  -0.998  0.00  0.00    -0.261 N 
ATOM      9  N   UNL     1      -3.678  -2.015  -1.672  0.00  0.00    -0.210 N 
ATOM     10  C   UNL     1      -3.800  -3.484  -1.664  0.00  0.00    +0.155 C 
ATOM     11  C   UNL     1      -2.685  -1.289  -2.221  0.00  0.00    +0.243 C 
ATOM     12  O   UNL     1      -1.714  -1.846  -2.688  0.00  0.00    -0.273 OA
ATOM     13  H   UNL     1      -4.999  -0.584  -0.851  0.00  0.00    +0.170 HD
ENDROOT
BRANCH   1  17
ATOM     14  C   UNL     1      -4.720   1.990   1.033  0.00  0.00    +0.120 A 
ATOM     15  C   UNL     1      -4.246   0.715   1.313  0.00  0.00    +0.046 A 
ATOM     16  C   UNL     1      -5.086  -0.372   1.216  0.00  0.00    +0.011 A 
ATOM     17  C   UNL     1      -6.420  -0.190   0.836  0.00  0.00    -0.024 A 
ATOM     18  C   UNL     1      -6.891   1.095   0.550  0.00  0.00    +0.011 A 
ATOM     19  C   UNL     1      -6.044   2.176   0.655  0.00  0.00    +0.046 A 
BRANCH  14  21
ATOM     20  C   UNL     1      -4.465   4.352   0.935  0.00  0.00    +0.277 C 
ATOM     21  O   UNL     1      -3.888   3.059   1.129  0.00  0.00    -0.495 OA
ENDBRANCH  14  21
ENDBRANCH   1  17
BRANCH  10  22
ATOM     22  C   UNL     1      -3.882  -4.011  -3.073  0.00  0.00    -0.021 A 
ATOM     23  C   UNL     1      -4.604  -3.320  -4.028  0.00  0.00    +0.009 A 
ATOM     24  C   UNL     1      -4.675  -3.799  -5.322  0.00  0.00    +0.046 A 
ATOM     25  C   UNL     1      -4.032  -4.980  -5.660  0.00  0.00    +0.120 A 
ATOM     26  C   UNL     1      -3.312  -5.675  -4.698  0.00  0.00    +0.046 A 
ATOM     27  C   UNL     1      -3.239  -5.189  -3.407  0.00  0.00    +0.009 A 
BRANCH  25  28
ATOM     28  O   UNL     1      -4.105  -5.455  -6.931  0.00  0.00    -0.495 OA
ATOM     29  C   UNL     1      -4.862  -4.688  -7.868  0.00  0.00    +0.277 C 
ENDBRANCH  25  28
ENDBRANCH  10  22
BRANCH  11  30
ATOM     30  C   UNL     1      -2.780   0.215  -2.254  0.00  0.00    +0.174 C 
BRANCH  30  31
ATOM     31  S   UNL     1      -1.377   0.889  -3.187  0.00  0.00    -0.077 S 
BRANCH  31  32
ATOM     32  C   UNL     1      -1.549   2.634  -3.012  0.00  0.00    +0.191 A 
ATOM     33  N   UNL     1      -0.668   3.577  -3.463  0.00  0.00    -0.305 N 
ATOM     34  H   UNL     1       0.162   3.403  -3.935  0.00  0.00    +0.171 HD
ATOM     35  C   UNL     1      -1.161   4.807  -3.132  0.00  0.00    +0.212 A 
ATOM     36  N   UNL     1      -2.298   4.633  -2.505  0.00  0.00    -0.113 NA
ATOM     37  N   UNL     1      -2.546   3.256  -2.433  0.00  0.00    -0.121 NA
ATOM     38  N   UNL     1      -0.562   6.029  -3.413  0.00  0.00    -0.328 N 
ATOM     39  H   UNL     1       0.285   6.056  -3.885  0.00  0.00    +0.145 HD
ATOM     40  H   UNL     1      -0.991   6.854  -3.136  0.00  0.00    +0.145 HD
ENDBRANCH  31  32
ENDBRANCH  30  31
ENDBRANCH  11  30
TORSDOF 7
