REMARK  Name = ZINC07091490
REMARK  6 active torsions:
REMARK  status: ('A' for Active; 'I' for Inactive)
REMARK    1  A    between atoms: C_1  and  C_2
REMARK    2  A    between atoms: C_2  and  C_4
REMARK    3  A    between atoms: C_2  and  N_47
REMARK    4  A    between atoms: C_10  and  C_12
REMARK    5  A    between atoms: C_10  and  C_13
REMARK    6  A    between atoms: C_10  and  N_47
REMARK                            x       y       z     vdW  Elec       q    Type
REMARK                         _______ _______ _______ _____ _____    ______ ____
ROOT
ATOM      1  N   UNL     1      -2.166   1.535  -3.708  0.00  0.00    +0.388 N 
ATOM      2  H   UNL     1      -2.173   0.593  -3.299  0.00  0.00    -0.084 HD
ATOM      3  H   UNL     1      -2.750   2.159  -3.139  0.00  0.00    -0.084 HD
ENDROOT
BRANCH   1   5
ATOM      4  C   UNL     1      -2.297   0.155  -5.734  0.00  0.00    -0.004 C 
ATOM      5  C   UNL     1      -2.709   1.475  -5.078  0.00  0.00    +0.014 C 
BRANCH   5   6
ATOM      6  C   UNL     1      -4.213   1.558  -5.019  0.00  0.00    +0.206 C 
ATOM      7  O   UNL     1      -4.772   1.659  -3.948  0.00  0.00    -0.277 OA
ATOM      8  N   UNL     1      -4.935   1.520  -6.156  0.00  0.00    -0.242 N 
ATOM      9  C   UNL     1      -6.280   1.594  -6.102  0.00  0.00    +0.303 C 
ATOM     10  O   UNL     1      -6.841   1.696  -5.029  0.00  0.00    -0.253 OA
ATOM     11  N   UNL     1      -7.003   1.555  -7.239  0.00  0.00    -0.313 N 
ATOM     12  H   UNL     1      -4.487   1.438  -7.012  0.00  0.00    +0.159 HD
ATOM     13  H   UNL     1      -6.555   1.474  -8.096  0.00  0.00    +0.146 HD
ATOM     14  H   UNL     1      -7.970   1.609  -7.201  0.00  0.00    +0.146 HD
ENDBRANCH   5   6
ENDBRANCH   1   5
BRANCH   1  15
ATOM     15  C   UNL     1      -0.782   2.046  -3.727  0.00  0.00    -0.068 C 
ATOM     16  C   UNL     1      -0.803   3.576  -3.719  0.00  0.00    -0.013 C 
BRANCH  15  17
ATOM     17  C   UNL     1      -0.043   1.539  -2.488  0.00  0.00    -0.041 C 
ATOM     18  C   UNL     1      -0.759   2.033  -1.229  0.00  0.00    +0.009 C 
ATOM     19  C   UNL     1      -0.019   1.526   0.010  0.00  0.00    -0.010 C 
ATOM     20  C   UNL     1       1.417   2.055  -0.000  0.00  0.00    +0.007 C 
ATOM     21  C   UNL     1       2.133   1.562  -1.259  0.00  0.00    -0.010 C 
ATOM     22  C   UNL     1       1.393   2.069  -2.499  0.00  0.00    +0.009 C 
ATOM     23  C   UNL     1       2.154   0.032  -1.268  0.00  0.00    +0.007 C 
ATOM     24  C   UNL     1       0.718  -0.497  -1.257  0.00  0.00    -0.010 C 
ATOM     25  C   UNL     1       0.002  -0.004   0.002  0.00  0.00    +0.007 C 
ATOM     26  C   UNL     1      -0.022   0.009  -2.496  0.00  0.00    +0.009 C 
ENDBRANCH  15  17
ENDBRANCH   1  15
TORSDOF 4
