REMARK  Name = ZINC16037057
REMARK  10 active torsions:
REMARK  status: ('A' for Active; 'I' for Inactive)
REMARK    1  A    between atoms: C_1  and  C_2
REMARK    2  A    between atoms: C_8  and  C_37
REMARK    3  A    between atoms: C_9  and  O_36
REMARK    4  A    between atoms: C_19  and  C_21
REMARK    5  A    between atoms: C_21  and  N_65
REMARK    6  A    between atoms: C_22  and  C_23
REMARK    7  A    between atoms: C_22  and  N_65
REMARK    8  A    between atoms: C_23  and  C_24
REMARK    9  A    between atoms: C_31  and  O_34
REMARK   10  A    between atoms: O_34  and  C_35
REMARK                            x       y       z     vdW  Elec       q    Type
REMARK                         _______ _______ _______ _____ _____    ______ ____
ROOT
ATOM      1  C   UNL     1      -2.719   4.699  -2.228  0.00  0.00    +0.008 C 
ATOM      2  C   UNL     1      -2.083   3.328  -2.402  0.00  0.00    -0.001 C 
ATOM      3  C   UNL     1      -3.178   2.270  -2.534  0.00  0.00    +0.008 C 
ATOM      4  C   UNL     1      -2.499   0.955  -2.946  0.00  0.00    +0.027 C 
ATOM      5  C   UNL     1      -1.517   0.604  -1.861  0.00  0.00    -0.027 C 
ATOM      6  C   UNL     1      -0.928   1.507  -1.137  0.00  0.00    -0.061 C 
ATOM      7  C   UNL     1      -1.108   2.994  -1.286  0.00  0.00    +0.018 C 
ATOM      8  C   UNL     1      -1.506   3.595   0.051  0.00  0.00    +0.132 C 
ATOM      9  C   UNL     1      -0.900   2.995   1.286  0.00  0.00    +0.071 C 
ATOM     10  C   UNL     1      -0.604   1.494   1.293  0.00  0.00    +0.187 C 
ATOM     11  C   UNL     1       0.012   1.045  -0.041  0.00  0.00    +0.076 C 
ATOM     12  O   UNL     1       0.454   1.336   2.298  0.00  0.00    -0.460 OA
ATOM     13  C   UNL     1       1.104   2.489   2.503  0.00  0.00    +0.309 C 
ATOM     14  O   UNL     1       2.082   2.628   3.208  0.00  0.00    -0.251 OA
ATOM     15  C   UNL     1       0.438   3.611   1.721  0.00  0.00    +0.090 C 
ATOM     16  C   UNL     1       0.248   3.590  -1.704  0.00  0.00    +0.018 C 
ENDROOT
BRANCH   8  17
ATOM     17  O   UNL     1      -1.163   4.993   0.049  0.00  0.00    -0.391 OA
ATOM     18  H   UNL     1      -1.492   5.479   0.818  0.00  0.00    +0.210 HD
ENDBRANCH   8  17
BRANCH  15  19
ATOM     19  C   UNL     1       0.208   4.811   2.650  0.00  0.00    -0.067 C 
BRANCH  19  20
ATOM     20  N   UNL     1       1.505   5.447   2.947  0.00  0.00    +0.380 N 
ATOM     21  H   UNL     1       1.936   5.763   2.070  0.00  0.00    -0.086 HD
ATOM     22  H   UNL     1       2.121   4.764   3.405  0.00  0.00    -0.086 HD
BRANCH  20  23
ATOM     23  C   UNL     1       1.315   6.606   3.840  0.00  0.00    -0.078 C 
BRANCH  23  24
ATOM     24  C   UNL     1       2.675   7.244   4.129  0.00  0.00    +0.018 C 
BRANCH  24  25
ATOM     25  C   UNL     1       2.489   8.430   5.041  0.00  0.00    -0.024 A 
ATOM     26  C   UNL     1       2.365   9.713   4.667  0.00  0.00    +0.087 A 
ATOM     27  N   UNL     1       2.213  10.508   5.770  0.00  0.00    -0.360 N 
ATOM     28  H   UNL     1       2.105  11.472   5.752  0.00  0.00    +0.165 HD
ATOM     29  C   UNL     1       2.236   9.734   6.912  0.00  0.00    +0.047 A 
ATOM     30  C   UNL     1       2.404   8.399   6.503  0.00  0.00    +0.006 A 
ATOM     31  C   UNL     1       2.471   7.381   7.457  0.00  0.00    +0.056 A 
ATOM     32  C   UNL     1       2.361   7.693   8.797  0.00  0.00    +0.121 A 
ATOM     33  C   UNL     1       2.188   9.015   9.198  0.00  0.00    +0.047 A 
ATOM     34  C   UNL     1       2.126  10.028   8.266  0.00  0.00    +0.030 A 
BRANCH  32  35
ATOM     35  O   UNL     1       2.420   6.705   9.730  0.00  0.00    -0.495 OA
ATOM     36  C   UNL     1       2.298   7.097  11.099  0.00  0.00    +0.277 C 
ENDBRANCH  32  35
ENDBRANCH  24  25
ENDBRANCH  23  24
ENDBRANCH  20  23
ENDBRANCH  19  20
ENDBRANCH  15  19
TORSDOF 7
