REMARK  Name = ZINC08965669
REMARK  7 active torsions:
REMARK  status: ('A' for Active; 'I' for Inactive)
REMARK    1  A    between atoms: C_1  and  C_2
REMARK    2  A    between atoms: C_9  and  S_13
REMARK    3  A    between atoms: C_11  and  C_12
REMARK    4  A    between atoms: S_13  and  C_14
REMARK    5  A    between atoms: C_14  and  C_15
REMARK    6  A    between atoms: N_17  and  N_18
REMARK    7  A    between atoms: C_24  and  C_27
REMARK                            x       y       z     vdW  Elec       q    Type
REMARK                         _______ _______ _______ _____ _____    ______ ____
ROOT
ATOM      1  C   UNL     1      -1.187   1.624   0.017  0.00  0.00    +0.240 C 
ATOM      2  O   UNL     1      -1.204   2.837   0.023  0.00  0.00    -0.273 OA
ATOM      3  N   UNL     1      -0.011   0.966   0.007  0.00  0.00    -0.223 N 
ATOM      4  H   UNL     1       0.002  -0.004   0.002  0.00  0.00    +0.174 HD
ENDROOT
BRANCH   3   5
ATOM      5  N   UNL     1       1.193   1.683  -0.000  0.00  0.00    -0.137 N 
ATOM      6  C   UNL     1       2.002   1.817   1.071  0.00  0.00    +0.263 C 
ATOM      7  O   UNL     1       1.834   1.358   2.180  0.00  0.00    -0.271 OA
ATOM      8  C   UNL     1       3.164   2.659   0.596  0.00  0.00    +0.114 C 
ATOM      9  C   UNL     1       4.469   1.881   0.716  0.00  0.00    +0.035 C 
ATOM     10  C   UNL     1       5.628   2.740   0.204  0.00  0.00    +0.006 C 
ATOM     11  C   UNL     1       5.707   4.029   1.024  0.00  0.00    -0.014 C 
ATOM     12  C   UNL     1       4.400   4.811   0.874  0.00  0.00    +0.006 C 
ATOM     13  C   UNL     1       3.236   3.960   1.388  0.00  0.00    +0.035 C 
ATOM     14  C   UNL     1       6.872   4.883   0.522  0.00  0.00    +0.007 C 
ATOM     15  N   UNL     1       2.854   2.931  -0.814  0.00  0.00    -0.284 N 
ATOM     16  C   UNL     1       1.685   2.315  -1.073  0.00  0.00    +0.326 C 
ATOM     17  O   UNL     1       1.137   2.333  -2.157  0.00  0.00    -0.251 OA
ATOM     18  H   UNL     1       3.388   3.449  -1.437  0.00  0.00    +0.151 HD
ENDBRANCH   3   5
BRANCH   1  19
ATOM     19  C   UNL     1      -2.482   0.853   0.018  0.00  0.00    +0.173 C 
BRANCH  19  20
ATOM     20  S   UNL     1      -3.874   2.010   0.031  0.00  0.00    -0.096 S 
BRANCH  20  29
ATOM     21  C   UNL     1      -4.256  -3.186   0.005  0.00  0.00    +0.046 C 
ATOM     22  C   UNL     1      -5.682  -2.700   0.015  0.00  0.00    -0.024 A 
ATOM     23  C   UNL     1      -6.710  -3.594   0.016  0.00  0.00    +0.005 A 
ATOM     24  C   UNL     1      -8.034  -3.165   0.025  0.00  0.00    +0.001 A 
ATOM     25  C   UNL     1      -8.339  -1.837   0.033  0.00  0.00    +0.010 A 
ATOM     26  C   UNL     1      -7.305  -0.888   0.033  0.00  0.00    +0.004 A 
ATOM     27  C   UNL     1      -5.957  -1.322   0.024  0.00  0.00    +0.075 A 
ATOM     28  N   UNL     1      -4.967  -0.422   0.023  0.00  0.00    -0.240 NA
ATOM     29  C   UNL     1      -5.218   0.872   0.032  0.00  0.00    +0.098 A 
ATOM     30  C   UNL     1      -6.532   1.363   0.046  0.00  0.00    +0.038 A 
ATOM     31  C   UNL     1      -7.582   0.495   0.041  0.00  0.00    -0.039 A 
ATOM     32  C   UNL     1      -9.002   1.000   0.051  0.00  0.00    +0.044 C 
ENDBRANCH  20  29
ENDBRANCH  19  20
ENDBRANCH   1  19
TORSDOF 4
