REMARK  Name = ZINC38847429
REMARK  11 active torsions:
REMARK  status: ('A' for Active; 'I' for Inactive)
REMARK    1  A    between atoms: C_1  and  C_2
REMARK    2  A    between atoms: N_11  and  C_12
REMARK    3  A    between atoms: C_12  and  C_13
REMARK    4  A    between atoms: C_13  and  N_14
REMARK    5  A    between atoms: N_14  and  C_15
REMARK    6  A    between atoms: N_14  and  C_16
REMARK    7  A    between atoms: C_17  and  C_19
REMARK    8  A    between atoms: N_22  and  S_25
REMARK    9  A    between atoms: S_25  and  C_28
REMARK   10  A    between atoms: C_31  and  O_34
REMARK   11  A    between atoms: O_34  and  C_35
REMARK                            x       y       z     vdW  Elec       q    Type
REMARK                         _______ _______ _______ _____ _____    ______ ____
ROOT
ATOM      1  C   UNL     1       1.910 -11.236  -3.958  0.00  0.00    +0.044 C 
ATOM      2  C   UNL     1       1.737 -10.027  -3.075  0.00  0.00    -0.049 A 
ATOM      3  C   UNL     1       2.053  -8.762  -3.550  0.00  0.00    +0.005 A 
ATOM      4  C   UNL     1       1.905  -7.646  -2.768  0.00  0.00    +0.029 A 
ATOM      5  C   UNL     1       1.423  -7.751  -1.443  0.00  0.00    +0.080 A 
ATOM      6  C   UNL     1       1.113  -9.055  -0.993  0.00  0.00    +0.041 A 
ATOM      7  C   UNL     1       1.258 -10.166  -1.786  0.00  0.00    +0.020 A 
ATOM      8  S   UNL     1       0.557  -8.759   0.668  0.00  0.00    -0.052 S 
ATOM      9  C   UNL     1       0.766  -6.984   0.662  0.00  0.00    +0.168 A 
ATOM     10  N   UNL     1       1.221  -6.760  -0.548  0.00  0.00    -0.224 NA
ATOM     11  N   UNL     1       0.511  -6.076   1.677  0.00  0.00    -0.252 N 
ATOM     12  C   UNL     1       0.174  -6.516   2.906  0.00  0.00    +0.224 C 
ATOM     13  O   UNL     1      -0.151  -5.724   3.765  0.00  0.00    -0.275 OA
ENDROOT
BRANCH  12  14
ATOM     14  C   UNL     1       0.202  -7.991   3.212  0.00  0.00    +0.078 C 
ATOM     15  C   UNL     1      -1.134  -8.620   2.812  0.00  0.00    +0.030 C 
ATOM     16  C   UNL     1      -1.090 -10.125   3.093  0.00  0.00    +0.110 C 
ATOM     17  N   UNL     1      -0.723 -10.333   4.500  0.00  0.00    -0.177 NA
ATOM     18  C   UNL     1       0.497  -9.697   5.013  0.00  0.00    +0.110 C 
ATOM     19  C   UNL     1       0.435  -8.196   4.711  0.00  0.00    +0.030 C 
BRANCH  17  20
ATOM     20  S   UNL     1      -1.668 -11.267   5.489  0.00  0.00    +0.061 S 
ATOM     21  O   UNL     1      -1.409 -10.840   6.819  0.00  0.00    -0.153 OA
ATOM     22  O   UNL     1      -2.973 -11.262   4.928  0.00  0.00    -0.153 OA
BRANCH  20  23
ATOM     23  C   UNL     1      -1.074 -12.921   5.367  0.00  0.00    +0.106 A 
ATOM     24  C   UNL     1      -1.589 -13.770   4.405  0.00  0.00    +0.032 A 
ATOM     25  C   UNL     1      -1.126 -15.068   4.308  0.00  0.00    +0.047 A 
ATOM     26  C   UNL     1      -0.141 -15.519   5.175  0.00  0.00    +0.120 A 
ATOM     27  C   UNL     1       0.375 -14.665   6.139  0.00  0.00    +0.047 A 
ATOM     28  C   UNL     1      -0.088 -13.366   6.229  0.00  0.00    +0.032 A 
BRANCH  26  29
ATOM     29  O   UNL     1       0.316 -16.795   5.081  0.00  0.00    -0.495 OA
ATOM     30  C   UNL     1       1.330 -17.190   6.007  0.00  0.00    +0.277 C 
ENDBRANCH  26  29
ENDBRANCH  20  23
ENDBRANCH  17  20
ENDBRANCH  12  14
BRANCH  11  31
ATOM     31  C   UNL     1       0.609  -4.638   1.415  0.00  0.00    +0.097 C 
BRANCH  31  32
ATOM     32  C   UNL     1      -0.723  -4.129   0.860  0.00  0.00    -0.060 C 
BRANCH  32  33
ATOM     33  N   UNL     1      -0.625  -2.688   0.597  0.00  0.00    +0.377 N 
ATOM     34  C   UNL     1       0.357  -2.450  -0.470  0.00  0.00    -0.097 C 
ATOM     35  C   UNL     1      -1.937  -2.176   0.177  0.00  0.00    -0.097 C 
ATOM     36  H   UNL     1      -0.331  -2.212   1.436  0.00  0.00    -0.083 HD
ENDBRANCH  32  33
ENDBRANCH  31  32
ENDBRANCH  11  31
TORSDOF 7
