REMARK  Name = ZINC36544128
REMARK  12 active torsions:
REMARK  status: ('A' for Active; 'I' for Inactive)
REMARK    1  A    between atoms: C_1  and  C_2
REMARK    2  A    between atoms: C_2  and  C_3
REMARK    3  A    between atoms: C_2  and  C_4
REMARK    4  A    between atoms: C_2  and  N_5
REMARK    5  A    between atoms: C_6  and  C_8
REMARK    6  A    between atoms: C_8  and  C_10
REMARK    7  A    between atoms: C_8  and  N_19
REMARK    8  A    between atoms: C_13  and  O_18
REMARK    9  A    between atoms: C_14  and  O_16
REMARK   10  A    between atoms: O_16  and  C_17
REMARK   11  A    between atoms: N_19  and  C_20
REMARK   12  A    between atoms: C_27  and  C_29
REMARK                            x       y       z     vdW  Elec       q    Type
REMARK                         _______ _______ _______ _____ _____    ______ ____
ROOT
ATOM      1  C   UNL     1       3.072  -0.489  -2.582  0.00  0.00    +0.198 C 
ENDROOT
BRANCH   1   2
ATOM      2  C   UNL     1       2.654   0.232  -3.838  0.00  0.00    -0.014 A 
ATOM      3  C   UNL     1       2.989   1.562  -4.013  0.00  0.00    +0.010 A 
ATOM      4  C   UNL     1       2.608   2.228  -5.163  0.00  0.00    +0.049 A 
ATOM      5  C   UNL     1       1.889   1.562  -6.143  0.00  0.00    +0.158 A 
ATOM      6  C   UNL     1       1.552   0.224  -5.966  0.00  0.00    +0.162 A 
ATOM      7  C   UNL     1       1.942  -0.439  -4.814  0.00  0.00    +0.055 A 
BRANCH   6   8
ATOM      8  O   UNL     1       0.847  -0.434  -6.925  0.00  0.00    -0.491 OA
ATOM      9  C   UNL     1       0.537  -1.806  -6.676  0.00  0.00    +0.277 C 
ENDBRANCH   6   8
BRANCH   5  10
ATOM     10  O   UNL     1       1.512   2.216  -7.275  0.00  0.00    -0.503 OA
ATOM     11  H   UNL     1       2.159   2.164  -7.992  0.00  0.00    +0.292 HD
ENDBRANCH   5  10
ENDBRANCH   1   2
BRANCH   1  13
ATOM     12  N   UNL     1       1.154   0.338  -1.257  0.00  0.00    -0.309 N 
ATOM     13  C   UNL     1       2.490   0.213  -1.382  0.00  0.00    +0.239 C 
ATOM     14  O   UNL     1       3.224   0.666  -0.530  0.00  0.00    -0.273 OA
ATOM     15  H   UNL     1       0.567  -0.025  -1.938  0.00  0.00    +0.149 HD
BRANCH  12  17
ATOM     16  C   UNL     1       1.100   2.461  -0.045  0.00  0.00    +0.031 C 
ATOM     17  C   UNL     1       0.589   1.020  -0.090  0.00  0.00    +0.026 C 
ATOM     18  C   UNL     1       1.013   0.288   1.185  0.00  0.00    +0.031 C 
ATOM     19  C   UNL     1      -0.938   1.023  -0.192  0.00  0.00    +0.031 C 
ENDBRANCH  12  17
ENDBRANCH   1  13
BRANCH   1  20
ATOM     20  N   UNL     1       4.534  -0.492  -2.485  0.00  0.00    -0.247 N 
ATOM     21  C   UNL     1       5.144  -1.225  -1.532  0.00  0.00    +0.287 C 
ATOM     22  O   UNL     1       6.360  -1.277  -1.490  0.00  0.00    -0.266 OA
BRANCH  20  23
ATOM     23  C   UNL     1       5.296   0.266  -3.380  0.00  0.00    +0.056 A 
ATOM     24  C   UNL     1       5.738   1.532  -3.019  0.00  0.00    +0.025 A 
ATOM     25  C   UNL     1       6.491   2.278  -3.905  0.00  0.00    +0.002 A 
ATOM     26  C   UNL     1       6.804   1.766  -5.151  0.00  0.00    +0.002 A 
ATOM     27  C   UNL     1       6.366   0.506  -5.514  0.00  0.00    +0.022 A 
ATOM     28  C   UNL     1       5.618  -0.249  -4.630  0.00  0.00    +0.062 A 
ATOM     29 CL   UNL     1       5.074  -1.834  -5.084  0.00  0.00    -0.082 Cl
ENDBRANCH  20  23
BRANCH  21  30
ATOM     30  C   UNL     1       4.345  -1.959  -0.547  0.00  0.00    +0.190 A 
ATOM     31  C   UNL     1       4.828  -2.634   0.537  0.00  0.00    +0.054 A 
ATOM     32  C   UNL     1       3.719  -3.183   1.199  0.00  0.00    +0.042 A 
ATOM     33  C   UNL     1       2.620  -2.824   0.498  0.00  0.00    +0.196 A 
ATOM     34  O   UNL     1       3.001  -2.081  -0.550  0.00  0.00    -0.458 OA
ENDBRANCH  21  30
ENDBRANCH   1  20
TORSDOF 8
