REMARK  Name = ZINC67266836
REMARK  3 active torsions:
REMARK  status: ('A' for Active; 'I' for Inactive)
REMARK    1  A    between atoms: C_3  and  N_9
REMARK    2  A    between atoms: C_4  and  O_8
REMARK    3  A    between atoms: C_10  and  C_12
REMARK                            x       y       z     vdW  Elec       q    Type
REMARK                         _______ _______ _______ _____ _____    ______ ____
ROOT
ATOM      1  C   UNL     1       4.858   4.243  -0.238  0.00  0.00    +0.075 C 
ATOM      2  C   UNL     1       5.730   3.971   0.989  0.00  0.00    +0.015 C 
ATOM      3  C   UNL     1       7.048   4.738   0.858  0.00  0.00    +0.036 C 
ATOM      4  C   UNL     1       6.761   6.231   0.740  0.00  0.00    +0.112 C 
ATOM      5  C   UNL     1       5.872   6.516  -0.466  0.00  0.00    +0.036 C 
ATOM      6  C   UNL     1       4.558   5.741  -0.329  0.00  0.00    +0.015 C 
ATOM      7  C   UNL     1       6.116   6.747   2.005  0.00  0.00    +0.244 C 
ATOM      8  O   UNL     1       5.056   6.401   2.482  0.00  0.00    -0.273 OA
ATOM      9  N   UNL     1       6.967   7.673   2.492  0.00  0.00    -0.238 N 
ATOM     10  C   UNL     1       8.047   7.808   1.713  0.00  0.00    +0.307 C 
ATOM     11  O   UNL     1       8.956   8.582   1.944  0.00  0.00    -0.252 OA
ATOM     12  N   UNL     1       8.015   6.990   0.643  0.00  0.00    -0.285 N 
ATOM     13  H   UNL     1       6.816   8.180   3.305  0.00  0.00    +0.159 HD
ATOM     14  H   UNL     1       8.687   6.916  -0.052  0.00  0.00    +0.151 HD
ENDROOT
BRANCH   1  16
ATOM     15  N   UNL     1       3.584   2.134  -0.021  0.00  0.00    -0.282 N 
ATOM     16  C   UNL     1       3.566   3.479  -0.116  0.00  0.00    +0.220 C 
ATOM     17  O   UNL     1       2.508   4.073  -0.103  0.00  0.00    -0.275 OA
ATOM     18  H   UNL     1       4.430   1.665   0.049  0.00  0.00    +0.155 HD
BRANCH  15  21
ATOM     19  C   UNL     1       0.065   1.244  -0.620  0.00  0.00    +0.017 A 
ATOM     20  C   UNL     1       1.250   1.955  -0.617  0.00  0.00    +0.028 A 
ATOM     21  C   UNL     1       2.381   1.415  -0.024  0.00  0.00    +0.075 A 
ATOM     22  C   UNL     1       2.320   0.155   0.568  0.00  0.00    +0.139 A 
ATOM     23  C   UNL     1       1.129  -0.552   0.562  0.00  0.00    +0.062 A 
ATOM     24  C   UNL     1       0.004  -0.007  -0.032  0.00  0.00    +0.021 A 
ATOM     25 BR   UNL     1      -1.621  -0.974  -0.039  0.00  0.00    -0.050 Br
BRANCH  22  26
ATOM     26  O   UNL     1       3.426  -0.379   1.151  0.00  0.00    -0.505 OA
ATOM     27  H   UNL     1       3.521  -0.161   2.088  0.00  0.00    +0.292 HD
ENDBRANCH  22  26
ENDBRANCH  15  21
ENDBRANCH   1  16
TORSDOF 3
