REMARK  Name = ZINC09971502
REMARK  5 active torsions:
REMARK  status: ('A' for Active; 'I' for Inactive)
REMARK    1  A    between atoms: C_4  and  O_21
REMARK    2  A    between atoms: C_5  and  C_7
REMARK    3  A    between atoms: N_9  and  N_10
REMARK    4  A    between atoms: C_11  and  C_12
REMARK    5  A    between atoms: C_15  and  O_19
REMARK                            x       y       z     vdW  Elec       q    Type
REMARK                         _______ _______ _______ _____ _____    ______ ____
ROOT
ATOM      1  C   UNL     1       0.026   0.008   2.496  0.00  0.00    +0.267 C 
ATOM      2  O   UNL     1       0.011   1.224   2.510  0.00  0.00    -0.268 OA
ATOM      3  N   UNL     1       0.047  -0.679   3.655  0.00  0.00    -0.203 N 
ATOM      4  H   UNL     1       0.059  -1.649   3.644  0.00  0.00    +0.178 HD
ENDROOT
BRANCH   1   9
ATOM      5  C   UNL     1       0.039  -2.781  -0.015  0.00  0.00    +0.001 A 
ATOM      6  C   UNL     1       0.018  -2.075  -1.207  0.00  0.00    +0.004 A 
ATOM      7  C   UNL     1      -0.006  -0.694  -1.201  0.00  0.00    +0.046 A 
ATOM      8  C   UNL     1       0.002  -0.004   0.002  0.00  0.00    +0.129 A 
ATOM      9  C   UNL     1       0.023  -0.715   1.210  0.00  0.00    +0.080 A 
ATOM     10  C   UNL     1       0.042  -2.111   1.189  0.00  0.00    +0.017 A 
BRANCH   8  11
ATOM     11  O   UNL     1      -0.016   1.352   0.009  0.00  0.00    -0.506 OA
ATOM     12  H   UNL     1       0.862   1.758   0.003  0.00  0.00    +0.292 HD
ENDBRANCH   8  11
ENDBRANCH   1   9
BRANCH   3  13
ATOM     13  N   UNL     1       0.050   0.008   4.876  0.00  0.00    -0.187 NA
ATOM     14  C   UNL     1       0.070  -0.654   5.993  0.00  0.00    +0.138 C 
BRANCH  14  15
ATOM     15  C   UNL     1       0.073   0.069   7.278  0.00  0.00    -0.003 A 
ATOM     16  C   UNL     1       0.061   1.466   7.296  0.00  0.00    +0.028 A 
ATOM     17  C   UNL     1       0.060   2.138   8.500  0.00  0.00    +0.061 A 
ATOM     18  C   UNL     1       0.081   1.427   9.694  0.00  0.00    +0.145 A 
ATOM     19  C   UNL     1       0.098   0.038   9.681  0.00  0.00    +0.061 A 
ATOM     20  C   UNL     1       0.094  -0.642   8.481  0.00  0.00    +0.028 A 
ATOM     21 BR   UNL     1       0.126  -0.922  11.310  0.00  0.00    -0.046 Br
ATOM     22 BR   UNL     1       0.038   4.028   8.527  0.00  0.00    -0.046 Br
BRANCH  18  23
ATOM     23  O   UNL     1       0.085   2.093  10.879  0.00  0.00    -0.505 OA
ATOM     24  H   UNL     1       0.969   2.297  11.213  0.00  0.00    +0.292 HD
ENDBRANCH  18  23
ENDBRANCH  14  15
ENDBRANCH   3  13
TORSDOF 5
