REMARK  Name = ZINC20248955
REMARK  15 active torsions:
REMARK  status: ('A' for Active; 'I' for Inactive)
REMARK    1  A    between atoms: C_1  and  O_2
REMARK    2  A    between atoms: O_2  and  C_3
REMARK    3  A    between atoms: C_6  and  N_9
REMARK    4  A    between atoms: C_13  and  N_17
REMARK    5  A    between atoms: N_17  and  C_18
REMARK    6  A    between atoms: C_18  and  C_19
REMARK    7  A    between atoms: C_19  and  C_20
REMARK    8  A    between atoms: C_20  and  C_21
REMARK    9  A    between atoms: C_21  and  C_22
REMARK   10  A    between atoms: C_22  and  C_23
REMARK   11  A    between atoms: C_23  and  N_24
REMARK   12  A    between atoms: N_24  and  C_25
REMARK   13  A    between atoms: N_30  and  C_33
REMARK   14  A    between atoms: C_36  and  O_39
REMARK   15  A    between atoms: O_39  and  C_40
REMARK                            x       y       z     vdW  Elec       q    Type
REMARK                         _______ _______ _______ _____ _____    ______ ____
ROOT
ATOM      1  C   UNL     1       4.528  -8.688   4.008  0.00  0.00    -0.002 C 
ENDROOT
BRANCH   1   2
ATOM      2  C   UNL     1       4.921  -7.264   4.405  0.00  0.00    -0.019 C 
BRANCH   2   3
ATOM      3  C   UNL     1       3.661  -6.456   4.723  0.00  0.00    -0.082 C 
BRANCH   3   4
ATOM      4  N   UNL     1       4.039  -5.089   5.104  0.00  0.00    +0.387 N 
ATOM      5  H   UNL     1       4.534  -4.652   4.341  0.00  0.00    -0.085 HD
ATOM      6  H   UNL     1       4.634  -5.119   5.918  0.00  0.00    -0.085 HD
BRANCH   4  11
ATOM      7  N   UNL     1       1.971  -2.701   3.968  0.00  0.00    -0.212 N 
ATOM      8  C   UNL     1       2.587  -1.978   4.912  0.00  0.00    +0.225 C 
ATOM      9  O   UNL     1       2.643  -0.767   4.944  0.00  0.00    -0.275 OA
ATOM     10  C   UNL     1       3.201  -2.911   5.933  0.00  0.00    +0.090 C 
ATOM     11  C   UNL     1       2.829  -4.314   5.410  0.00  0.00    +0.026 C 
ATOM     12  C   UNL     1       2.040  -4.025   4.151  0.00  0.00    +0.213 C 
ATOM     13  O   UNL     1       1.549  -4.861   3.423  0.00  0.00    -0.277 OA
BRANCH   7  17
ATOM     14  C   UNL     1      -0.011  -0.968   0.732  0.00  0.00    +0.120 A 
ATOM     15  C   UNL     1      -0.734  -1.632   1.713  0.00  0.00    +0.047 A 
ATOM     16  C   UNL     1      -0.078  -2.205   2.784  0.00  0.00    +0.027 A 
ATOM     17  C   UNL     1       1.304  -2.118   2.879  0.00  0.00    +0.044 A 
ATOM     18  C   UNL     1       2.027  -1.454   1.897  0.00  0.00    +0.027 A 
ATOM     19  C   UNL     1       1.370  -0.885   0.824  0.00  0.00    +0.047 A 
BRANCH  14  21
ATOM     20  C   UNL     1      -2.081  -0.526  -0.352  0.00  0.00    +0.277 C 
ATOM     21  O   UNL     1      -0.658  -0.403  -0.322  0.00  0.00    -0.495 OA
ENDBRANCH  14  21
ENDBRANCH   7  17
ENDBRANCH   4  11
ENDBRANCH   3   4
ENDBRANCH   2   3
ENDBRANCH   1   2
BRANCH   1  22
ATOM     22  C   UNL     1       5.788  -9.495   3.690  0.00  0.00    -0.002 C 
BRANCH  22  23
ATOM     23  C   UNL     1       5.394 -10.920   3.294  0.00  0.00    -0.019 C 
BRANCH  23  24
ATOM     24  C   UNL     1       6.654 -11.727   2.975  0.00  0.00    -0.082 C 
BRANCH  24  25
ATOM     25  N   UNL     1       6.277 -13.095   2.595  0.00  0.00    +0.387 N 
ATOM     26  H   UNL     1       5.781 -13.531   3.357  0.00  0.00    -0.085 HD
ATOM     27  H   UNL     1       5.682 -13.065   1.780  0.00  0.00    -0.085 HD
BRANCH  25  28
ATOM     28  C   UNL     1       7.487 -13.870   2.289  0.00  0.00    +0.026 C 
ATOM     29  C   UNL     1       7.125 -15.331   1.954  0.00  0.00    +0.090 C 
ATOM     30  C   UNL     1       7.607 -15.499   0.530  0.00  0.00    +0.225 C 
ATOM     31  O   UNL     1       7.516 -16.514  -0.127  0.00  0.00    -0.275 OA
ATOM     32  N   UNL     1       8.150 -14.349   0.111  0.00  0.00    -0.212 N 
ATOM     33  C   UNL     1       8.138 -13.363   1.021  0.00  0.00    +0.213 C 
ATOM     34  O   UNL     1       8.576 -12.244   0.855  0.00  0.00    -0.277 OA
BRANCH  32  35
ATOM     35  C   UNL     1       8.690 -14.188  -1.175  0.00  0.00    +0.044 A 
ATOM     36  C   UNL     1      10.058 -14.019  -1.337  0.00  0.00    +0.027 A 
ATOM     37  C   UNL     1      10.588 -13.861  -2.602  0.00  0.00    +0.047 A 
ATOM     38  C   UNL     1       9.755 -13.872  -3.711  0.00  0.00    +0.120 A 
ATOM     39  C   UNL     1       8.387 -14.041  -3.549  0.00  0.00    +0.047 A 
ATOM     40  C   UNL     1       7.856 -14.205  -2.285  0.00  0.00    +0.027 A 
BRANCH  38  41
ATOM     41  O   UNL     1      10.277 -13.717  -4.956  0.00  0.00    -0.495 OA
ATOM     42  C   UNL     1       9.361 -13.738  -6.052  0.00  0.00    +0.277 C 
ENDBRANCH  38  41
ENDBRANCH  32  35
ENDBRANCH  25  28
ENDBRANCH  24  25
ENDBRANCH  23  24
ENDBRANCH  22  23
ENDBRANCH   1  22
TORSDOF 13
