REMARK  Name = ZINC06195572
REMARK  14 active torsions:
REMARK  status: ('A' for Active; 'I' for Inactive)
REMARK    1  A    between atoms: C_1  and  C_2
REMARK    2  A    between atoms: C_5  and  C_38
REMARK    3  A    between atoms: C_6  and  N_8
REMARK    4  A    between atoms: N_8  and  C_9
REMARK    5  A    between atoms: C_9  and  C_11
REMARK    6  A    between atoms: C_9  and  C_17
REMARK    7  A    between atoms: N_19  and  C_20
REMARK    8  A    between atoms: C_20  and  C_21
REMARK    9  A    between atoms: C_20  and  C_22
REMARK   10  A    between atoms: C_20  and  C_23
REMARK   11  A    between atoms: C_24  and  C_26
REMARK   12  A    between atoms: C_26  and  N_27
REMARK   13  A    between atoms: C_29  and  C_32
REMARK   14  A    between atoms: C_35  and  C_37
REMARK                            x       y       z     vdW  Elec       q    Type
REMARK                         _______ _______ _______ _____ _____    ______ ____
ROOT
ATOM      1  N   UNL     1      -2.936   3.211  -0.286  0.00  0.00    -0.254 N 
ATOM      2  C   UNL     1      -3.607   3.254  -1.454  0.00  0.00    +0.244 C 
ATOM      3  O   UNL     1      -4.528   4.030  -1.597  0.00  0.00    -0.273 OA
ENDROOT
BRANCH   1   9
ATOM      4  C   UNL     1       1.826   2.140  -0.875  0.00  0.00    +0.044 C 
ATOM      5  C   UNL     1       0.445   1.771  -0.398  0.00  0.00    -0.049 A 
ATOM      6  C   UNL     1       0.227   0.544   0.202  0.00  0.00    +0.004 A 
ATOM      7  C   UNL     1      -1.039   0.201   0.641  0.00  0.00    +0.005 A 
ATOM      8  C   UNL     1      -2.091   1.081   0.476  0.00  0.00    -0.029 A 
ATOM      9  C   UNL     1      -1.874   2.316  -0.122  0.00  0.00    +0.041 A 
ATOM     10  C   UNL     1      -0.601   2.657  -0.562  0.00  0.00    +0.027 A 
ATOM     11  C   UNL     1      -3.471   0.704   0.948  0.00  0.00    +0.045 C 
ENDBRANCH   1   9
BRANCH   1  12
ATOM     12  C   UNL     1      -3.318   4.103   0.811  0.00  0.00    +0.197 C 
BRANCH  12  13
ATOM     13  C   UNL     1      -2.515   3.762   2.039  0.00  0.00    -0.015 A 
ATOM     14  C   UNL     1      -1.131   3.840   2.026  0.00  0.00    +0.025 A 
ATOM     15  C   UNL     1      -0.427   3.522   3.173  0.00  0.00    +0.111 A 
ATOM     16  N   UNL     1      -1.058   3.140   4.267  0.00  0.00    -0.263 NA
ATOM     17  C   UNL     1      -2.373   3.050   4.314  0.00  0.00    +0.111 A 
ATOM     18  C   UNL     1      -3.142   3.356   3.207  0.00  0.00    +0.025 A 
ENDBRANCH  12  13
BRANCH  12  19
ATOM     19  C   UNL     1      -3.047   5.532   0.415  0.00  0.00    +0.239 C 
ATOM     20  O   UNL     1      -2.581   5.780  -0.677  0.00  0.00    -0.273 OA
ATOM     21  N   UNL     1      -3.323   6.533   1.274  0.00  0.00    -0.309 N 
ATOM     22  H   UNL     1      -3.696   6.335   2.147  0.00  0.00    +0.149 HD
BRANCH  21  23
ATOM     23  C   UNL     1      -3.060   7.922   0.889  0.00  0.00    +0.026 C 
ATOM     24  C   UNL     1      -3.876   8.269  -0.358  0.00  0.00    +0.031 C 
ATOM     25  C   UNL     1      -3.459   8.854   2.035  0.00  0.00    +0.031 C 
ATOM     26  C   UNL     1      -1.570   8.094   0.587  0.00  0.00    +0.031 C 
ENDBRANCH  21  23
ENDBRANCH  12  19
ENDBRANCH   1  12
BRANCH   2  27
ATOM     27  C   UNL     1      -3.214   2.336  -2.583  0.00  0.00    +0.264 C 
BRANCH  27  28
ATOM     28  N   UNL     1      -4.089   2.575  -3.734  0.00  0.00    -0.154 N 
ATOM     29  N   UNL     1      -5.201   1.964  -3.963  0.00  0.00    -0.127 NA
ATOM     30  C   UNL     1      -5.702   2.447  -5.085  0.00  0.00    +0.239 A 
ATOM     31  N   UNL     1      -4.835   3.372  -5.525  0.00  0.00    -0.105 NA
ATOM     32  N   UNL     1      -3.865   3.422  -4.676  0.00  0.00    -0.045 NA
BRANCH  30  33
ATOM     33  C   UNL     1      -6.969   2.044  -5.732  0.00  0.00    +0.175 A 
ATOM     34  C   UNL     1      -7.471   2.553  -6.888  0.00  0.00    +0.053 A 
ATOM     35  C   UNL     1      -8.686   1.883  -7.133  0.00  0.00    +0.045 A 
ATOM     36  C   UNL     1      -8.868   1.013  -6.120  0.00  0.00    +0.103 A 
ATOM     37  O   UNL     1      -7.829   1.113  -5.276  0.00  0.00    -0.457 OA
ATOM     38  C   UNL     1     -10.043   0.083  -5.961  0.00  0.00    +0.086 C 
ENDBRANCH  30  33
ENDBRANCH  27  28
ENDBRANCH   2  27
TORSDOF 8
