REMARK  Name = ZINC61963423
REMARK  8 active torsions:
REMARK  status: ('A' for Active; 'I' for Inactive)
REMARK    1  A    between atoms: C_4  and  C_22
REMARK    2  A    between atoms: C_5  and  C_7
REMARK    3  A    between atoms: C_7  and  N_8
REMARK    4  A    between atoms: N_11  and  C_12
REMARK    5  A    between atoms: C_12  and  C_13
REMARK    6  A    between atoms: C_13  and  C_14
REMARK    7  A    between atoms: C_13  and  O_21
REMARK    8  A    between atoms: C_22  and  N_23
REMARK                            x       y       z     vdW  Elec       q    Type
REMARK                         _______ _______ _______ _____ _____    ______ ____
ROOT
ATOM      1  N   UNL     1       1.490  -2.679   1.334  0.00  0.00    -0.295 N 
ATOM      2  C   UNL     1       1.553  -4.004   1.569  0.00  0.00    +0.300 C 
ATOM      3  O   UNL     1       1.394  -4.791   0.656  0.00  0.00    -0.253 OA
ATOM      4  N   UNL     1       1.793  -4.457   2.815  0.00  0.00    -0.297 N 
ATOM      5  H   UNL     1       1.617  -2.051   2.063  0.00  0.00    +0.151 HD
ATOM      6  H   UNL     1       1.920  -3.830   3.543  0.00  0.00    +0.150 HD
ENDROOT
BRANCH   1   7
ATOM      7  C   UNL     1       1.229  -2.186  -0.020  0.00  0.00    +0.141 C 
BRANCH   7  12
ATOM      8  C   UNL     1      -0.017   1.378   0.010  0.00  0.00    +0.000 A 
ATOM      9  C   UNL     1       1.171   2.085   0.002  0.00  0.00    +0.000 A 
ATOM     10  C   UNL     1       2.377   1.411  -0.013  0.00  0.00    +0.002 A 
ATOM     11  C   UNL     1       2.396   0.028  -0.020  0.00  0.00    -0.059 A 
ATOM     12  C   UNL     1       1.209  -0.679  -0.012  0.00  0.00    -0.029 A 
ATOM     13  C   UNL     1       0.002  -0.004   0.002  0.00  0.00    +0.005 A 
BRANCH  11  14
ATOM     14  C   UNL     1       3.711  -0.707  -0.038  0.00  0.00    -0.043 C 
BRANCH  14  15
ATOM     15  N   UNL     1       4.007  -1.149  -1.407  0.00  0.00    +0.382 N 
ATOM     16  C   UNL     1       4.197   0.024  -2.268  0.00  0.00    -0.078 C 
ATOM     17  C   UNL     1       4.425  -0.430  -3.712  0.00  0.00    -0.019 C 
ATOM     18  C   UNL     1       5.672  -1.316  -3.771  0.00  0.00    -0.004 C 
ATOM     19  C   UNL     1       5.493  -2.498  -2.813  0.00  0.00    -0.019 C 
ATOM     20  C   UNL     1       5.226  -1.967  -1.403  0.00  0.00    -0.078 C 
ATOM     21  H   UNL     1       3.236  -1.699  -1.756  0.00  0.00    -0.081 HD
ENDBRANCH  14  15
ENDBRANCH  11  14
ENDBRANCH   7  12
ENDBRANCH   1   7
BRANCH   4  22
ATOM     22  C   UNL     1       1.862  -5.899   3.070  0.00  0.00    +0.142 C 
BRANCH  22  23
ATOM     23  C   UNL     1       2.143  -6.141   4.554  0.00  0.00    +0.164 C 
BRANCH  23  24
ATOM     24  C   UNL     1       2.214  -7.623   4.816  0.00  0.00    +0.018 A 
ATOM     25  C   UNL     1       3.437  -8.267   4.824  0.00  0.00    +0.009 A 
ATOM     26  C   UNL     1       3.502  -9.626   5.064  0.00  0.00    +0.001 A 
ATOM     27  C   UNL     1       2.344 -10.345   5.297  0.00  0.00    +0.003 A 
ATOM     28  C   UNL     1       1.120  -9.704   5.291  0.00  0.00    +0.039 A 
ATOM     29  C   UNL     1       1.054  -8.341   5.055  0.00  0.00    +0.129 A 
ATOM     30  F   UNL     1      -0.142  -7.712   5.053  0.00  0.00    -0.205 F 
ENDBRANCH  23  24
BRANCH  23  31
ATOM     31  O   UNL     1       3.387  -5.535   4.909  0.00  0.00    -0.386 OA
ATOM     32  H   UNL     1       4.146  -5.876   4.415  0.00  0.00    +0.210 HD
ENDBRANCH  23  31
ENDBRANCH  22  23
ENDBRANCH   4  22
TORSDOF 8
