REMARK  Name = ZINC52094289
REMARK  3 active torsions:
REMARK  status: ('A' for Active; 'I' for Inactive)
REMARK    1  A    between atoms: C_3  and  C_9
REMARK    2  A    between atoms: C_9  and  C_11
REMARK    3  A    between atoms: C_9  and  N_24
REMARK                            x       y       z     vdW  Elec       q    Type
REMARK                         _______ _______ _______ _____ _____    ______ ____
ROOT
ATOM      1  C   UNL     1       4.216   2.239  -1.425  0.00  0.00    -0.010 A 
ATOM      2  C   UNL     1       4.126   3.409  -2.154  0.00  0.00    +0.034 A 
ATOM      3  C   UNL     1       4.627   3.458  -3.446  0.00  0.00    +0.067 A 
ATOM      4  C   UNL     1       5.220   2.324  -4.005  0.00  0.00    +0.068 A 
ATOM      5  C   UNL     1       5.306   1.154  -3.267  0.00  0.00    +0.043 A 
ATOM      6  C   UNL     1       4.809   1.116  -1.978  0.00  0.00    +0.025 A 
ATOM      7 BR   UNL     1       4.933  -0.477  -0.967  0.00  0.00    -0.050 Br
ATOM      8  N   UNL     1       5.621   2.674  -5.293  0.00  0.00    -0.306 N 
ATOM      9  H   UNL     1       6.065   2.089  -5.927  0.00  0.00    +0.170 HD
ATOM     10  C   UNL     1       5.288   3.960  -5.506  0.00  0.00    +0.325 A 
ATOM     11  O   UNL     1       5.497   4.577  -6.534  0.00  0.00    -0.247 OA
ATOM     12  N   UNL     1       4.686   4.461  -4.411  0.00  0.00    -0.306 N 
ATOM     13  H   UNL     1       4.351   5.366  -4.311  0.00  0.00    +0.170 HD
ENDROOT
BRANCH   1  14
ATOM     14  C   UNL     1       3.671   2.186  -0.021  0.00  0.00    +0.114 C 
BRANCH  14  17
ATOM     15  C   UNL     1       0.258   1.156  -1.261  0.00  0.00    +0.039 A 
ATOM     16  C   UNL     1       1.551   1.642  -1.234  0.00  0.00    +0.009 A 
ATOM     17  C   UNL     1       2.261   1.655  -0.049  0.00  0.00    -0.012 A 
ATOM     18  C   UNL     1       1.679   1.180   1.113  0.00  0.00    +0.026 A 
ATOM     19  C   UNL     1       0.385   0.692   1.088  0.00  0.00    +0.054 A 
ATOM     20  C   UNL     1      -0.327   0.680  -0.100  0.00  0.00    +0.124 A 
ATOM     21  F   UNL     1      -1.591   0.204  -0.125  0.00  0.00    -0.205 F 
ATOM     22 BR   UNL     1       2.651   1.197   2.734  0.00  0.00    -0.050 Br
ENDBRANCH  14  17
BRANCH  14  23
ATOM     23  N   UNL     1       3.675   3.536   0.557  0.00  0.00    -0.320 NA
ATOM     24  H   UNL     1       3.103   4.164   0.012  0.00  0.00    +0.119 HD
ATOM     25  H   UNL     1       3.375   3.518   1.520  0.00  0.00    +0.119 HD
ENDBRANCH  14  23
ENDBRANCH   1  14
TORSDOF 3
