REMARK  Name = ZINC43578075
REMARK  7 active torsions:
REMARK  status: ('A' for Active; 'I' for Inactive)
REMARK    1  A    between atoms: C_1  and  C_2
REMARK    2  A    between atoms: C_2  and  C_3
REMARK    3  A    between atoms: C_3  and  C_4
REMARK    4  A    between atoms: C_4  and  C_6
REMARK    5  A    between atoms: C_4  and  N_10
REMARK    6  A    between atoms: N_7  and  O_8
REMARK    7  A    between atoms: C_11  and  C_13
REMARK                            x       y       z     vdW  Elec       q    Type
REMARK                         _______ _______ _______ _____ _____    ______ ____
ROOT
ATOM      1  N   UNL     1       1.551  -2.512   0.092  0.00  0.00    -0.302 N 
ATOM      2  C   UNL     1       0.972  -2.642  -1.119  0.00  0.00    +0.245 C 
ATOM      3  O   UNL     1      -0.203  -2.368  -1.263  0.00  0.00    -0.270 OA
ATOM      4  H   UNL     1       2.489  -2.731   0.207  0.00  0.00    +0.150 HD
ENDROOT
BRANCH   2   5
ATOM      5  C   UNL     1       1.767  -3.118  -2.271  0.00  0.00    +0.039 A 
ATOM      6  C   UNL     1       3.116  -3.439  -2.106  0.00  0.00    +0.014 A 
ATOM      7  C   UNL     1       3.854  -3.882  -3.184  0.00  0.00    +0.019 A 
ATOM      8  C   UNL     1       3.260  -4.010  -4.428  0.00  0.00    +0.053 A 
ATOM      9  C   UNL     1       1.921  -3.692  -4.599  0.00  0.00    +0.138 A 
ATOM     10  C   UNL     1       1.171  -3.253  -3.525  0.00  0.00    +0.052 A 
ATOM     11  F   UNL     1       1.348  -3.818  -5.816  0.00  0.00    -0.204 F 
ATOM     12 BR   UNL     1       4.279  -4.618  -5.900  0.00  0.00    -0.047 Br
ENDBRANCH   2   5
BRANCH   1  13
ATOM     13  C   UNL     1       0.763  -2.041   1.233  0.00  0.00    +0.140 C 
BRANCH  13  14
ATOM     14  C   UNL     1       1.382  -2.542   2.512  0.00  0.00    +0.152 C 
ATOM     15  N   UNL     1       0.655  -2.681   3.571  0.00  0.00    -0.075 NA
ATOM     16  N   UNL     1       2.724  -2.851   2.553  0.00  0.00    -0.342 N 
ATOM     17  H   UNL     1       3.270  -2.747   1.758  0.00  0.00    +0.144 HD
ATOM     18  H   UNL     1       3.122  -3.174   3.376  0.00  0.00    +0.144 HD
BRANCH  15  19
ATOM     19  O   UNL     1       1.237  -3.152   4.773  0.00  0.00    -0.408 OA
ATOM     20  H   UNL     1       0.615  -3.223   5.510  0.00  0.00    +0.328 HD
ENDBRANCH  15  19
ENDBRANCH  13  14
BRANCH  13  21
ATOM     21  C   UNL     1       0.742  -0.511   1.242  0.00  0.00    +0.030 C 
BRANCH  21  23
ATOM     22  C   UNL     1      -0.019   1.526   0.010  0.00  0.00    +0.004 C 
ATOM     23  C   UNL     1       0.002  -0.004   0.002  0.00  0.00    -0.001 C 
ENDBRANCH  21  23
ENDBRANCH  13  21
ENDBRANCH   1  13
TORSDOF 6
