REMARK  Name = ZINC05200834
REMARK  7 active torsions:
REMARK  status: ('A' for Active; 'I' for Inactive)
REMARK    1  A    between atoms: C_1  and  C_2
REMARK    2  A    between atoms: C_2  and  C_3
REMARK    3  A    between atoms: C_2  and  C_4
REMARK    4  A    between atoms: C_2  and  N_5
REMARK    5  A    between atoms: C_6  and  C_8
REMARK    6  A    between atoms: C_14  and  C_23
REMARK    7  A    between atoms: C_17  and  C_19
REMARK                            x       y       z     vdW  Elec       q    Type
REMARK                         _______ _______ _______ _____ _____    ______ ____
ROOT
ATOM      1  C   UNL     1       2.659  -0.606  -2.635  0.00  0.00    +0.096 A 
ATOM      2  C   UNL     1       2.109  -1.421  -3.656  0.00  0.00    +0.149 A 
ATOM      3  N   UNL     1       3.031  -1.625  -4.557  0.00  0.00    -0.177 NA
ATOM      4  N   UNL     1       4.199  -0.968  -4.175  0.00  0.00    -0.238 N 
ATOM      5  C   UNL     1       3.965  -0.338  -2.999  0.00  0.00    +0.130 A 
ATOM      6  N   UNL     1       4.923   0.418  -2.347  0.00  0.00    -0.322 N 
ATOM      7  C   UNL     1       6.130   0.754  -3.126  0.00  0.00    +0.104 C 
ATOM      8  C   UNL     1       6.576  -0.496  -3.894  0.00  0.00    +0.063 C 
ATOM      9  C   UNL     1       5.485  -0.922  -4.879  0.00  0.00    +0.215 C 
ATOM     10  H   UNL     1       4.807   0.712  -1.429  0.00  0.00    +0.148 HD
ENDROOT
BRANCH   7  11
ATOM     11  C   UNL     1       7.227   1.199  -2.194  0.00  0.00    -0.024 A 
ATOM     12  C   UNL     1       7.417   0.546  -0.991  0.00  0.00    +0.009 A 
ATOM     13  C   UNL     1       8.422   0.950  -0.132  0.00  0.00    +0.050 A 
ATOM     14  C   UNL     1       9.243   2.012  -0.477  0.00  0.00    +0.166 A 
ATOM     15  C   UNL     1       9.052   2.670  -1.689  0.00  0.00    +0.167 A 
ATOM     16  C   UNL     1       8.046   2.256  -2.547  0.00  0.00    +0.055 A 
ATOM     17  O   UNL     1       9.976   3.669  -1.794  0.00  0.00    -0.453 OA
ATOM     18  C   UNL     1      10.470   3.878  -0.458  0.00  0.00    +0.466 C 
ATOM     19  O   UNL     1      10.287   2.599   0.178  0.00  0.00    -0.453 OA
ENDBRANCH   7  11
BRANCH   1  21
ATOM     20  N   UNL     1       0.688  -0.476  -1.203  0.00  0.00    -0.306 N 
ATOM     21  C   UNL     1       1.972  -0.132  -1.427  0.00  0.00    +0.249 C 
ATOM     22  O   UNL     1       2.561   0.571  -0.628  0.00  0.00    -0.270 OA
ATOM     23  H   UNL     1       0.218  -1.037  -1.840  0.00  0.00    +0.150 HD
BRANCH  20  25
ATOM     24  C   UNL     1      -0.019   1.526   0.010  0.00  0.00    +0.031 C 
ATOM     25  C   UNL     1       0.002  -0.004   0.002  0.00  0.00    +0.026 C 
ATOM     26  C   UNL     1       0.742  -0.511   1.242  0.00  0.00    +0.031 C 
ATOM     27  C   UNL     1      -1.433  -0.534   0.013  0.00  0.00    +0.031 C 
ENDBRANCH  20  25
ENDBRANCH   1  21
BRANCH   9  28
ATOM     28  C   UNL     1       5.806  -2.305  -5.450  0.00  0.00    +0.412 C 
ATOM     29  F   UNL     1       4.799  -2.686  -6.343  0.00  0.00    -0.168 F 
ATOM     30  F   UNL     1       7.032  -2.260  -6.121  0.00  0.00    -0.168 F 
ATOM     31  F   UNL     1       5.879  -3.235  -4.407  0.00  0.00    -0.168 F 
ENDBRANCH   9  28
TORSDOF 4
