REMARK  Name = ZINC08738700
REMARK  6 active torsions:
REMARK  status: ('A' for Active; 'I' for Inactive)
REMARK    1  A    between atoms: C_1  and  C_2
REMARK    2  A    between atoms: C_2  and  O_3
REMARK    3  A    between atoms: O_3  and  C_4
REMARK    4  A    between atoms: C_4  and  C_6
REMARK    5  A    between atoms: C_7  and  C_26
REMARK    6  A    between atoms: C_18  and  C_20
REMARK                            x       y       z     vdW  Elec       q    Type
REMARK                         _______ _______ _______ _____ _____    ______ ____
ROOT
ATOM      1  C   UNL     1       1.846  -2.358  -2.302  0.00  0.00    +0.085 C 
ATOM      2  C   UNL     1       1.597  -3.667  -2.554  0.00  0.00    +0.053 C 
ATOM      3  N   UNL     1       1.801  -4.222  -3.802  0.00  0.00    -0.285 N 
ATOM      4  C   UNL     1       2.526  -3.481  -4.723  0.00  0.00    +0.179 A 
ATOM      5  N   UNL     1       3.042  -3.879  -5.855  0.00  0.00    -0.327 N 
ATOM      6  C   UNL     1       3.676  -2.846  -6.445  0.00  0.00    +0.066 A 
ATOM      7  C   UNL     1       4.381  -2.748  -7.650  0.00  0.00    +0.028 A 
ATOM      8  C   UNL     1       4.919  -1.513  -7.963  0.00  0.00    +0.002 A 
ATOM      9  C   UNL     1       4.774  -0.416  -7.131  0.00  0.00    +0.002 A 
ATOM     10  C   UNL     1       4.080  -0.489  -5.934  0.00  0.00    +0.028 A 
ATOM     11  C   UNL     1       3.529  -1.720  -5.596  0.00  0.00    +0.069 A 
ATOM     12  N   UNL     1       2.800  -2.147  -4.523  0.00  0.00    -0.301 N 
ATOM     13  C   UNL     1       2.343  -1.400  -3.349  0.00  0.00    +0.160 C 
ATOM     14  H   UNL     1       1.450  -5.098  -4.026  0.00  0.00    +0.155 HD
ATOM     15  H   UNL     1       2.979  -4.777  -6.215  0.00  0.00    +0.169 HD
ENDROOT
BRANCH  13  16
ATOM     16  C   UNL     1       1.227  -0.468  -3.746  0.00  0.00    -0.017 A 
ATOM     17  C   UNL     1       0.047  -0.962  -4.282  0.00  0.00    +0.025 A 
ATOM     18  C   UNL     1      -0.954  -0.077  -4.635  0.00  0.00    +0.111 A 
ATOM     19  N   UNL     1      -0.797   1.222  -4.467  0.00  0.00    -0.263 NA
ATOM     20  C   UNL     1       0.311   1.726  -3.960  0.00  0.00    +0.111 A 
ATOM     21  C   UNL     1       1.353   0.902  -3.579  0.00  0.00    +0.025 A 
ENDBRANCH  13  16
BRANCH   2  22
ATOM     22  C   UNL     1       1.094  -4.524  -1.462  0.00  0.00    -0.003 A 
ATOM     23  C   UNL     1      -0.184  -4.316  -0.939  0.00  0.00    +0.010 A 
ATOM     24  C   UNL     1      -0.648  -5.120   0.080  0.00  0.00    +0.001 A 
ATOM     25  C   UNL     1       0.149  -6.132   0.585  0.00  0.00    +0.000 A 
ATOM     26  C   UNL     1       1.417  -6.344   0.072  0.00  0.00    +0.001 A 
ATOM     27  C   UNL     1       1.891  -5.551  -0.952  0.00  0.00    +0.010 A 
ENDBRANCH   2  22
BRANCH   1  28
ATOM     28  C   UNL     1       1.623  -1.872  -1.000  0.00  0.00    +0.339 C 
ATOM     29  O   UNL     1       1.332  -2.643  -0.103  0.00  0.00    -0.245 OA
BRANCH  28  30
ATOM     30  O   UNL     1       1.731  -0.550  -0.745  0.00  0.00    -0.462 OA
BRANCH  30  32
ATOM     31  C   UNL     1       1.660   1.391   0.693  0.00  0.00    +0.048 C 
ATOM     32  C   UNL     1       1.492  -0.127   0.599  0.00  0.00    +0.229 C 
ENDBRANCH  30  32
ENDBRANCH  28  30
ENDBRANCH   1  28
TORSDOF 5
