REMARK  Name = ZINC13567490
REMARK  9 active torsions:
REMARK  status: ('A' for Active; 'I' for Inactive)
REMARK    1  A    between atoms: C_1  and  C_2
REMARK    2  A    between atoms: C_7  and  C_8
REMARK    3  A    between atoms: C_8  and  S_9
REMARK    4  A    between atoms: S_9  and  C_10
REMARK    5  A    between atoms: N_16  and  C_17
REMARK    6  A    between atoms: C_22  and  C_24
REMARK    7  A    between atoms: C_27  and  O_32
REMARK    8  A    between atoms: C_28  and  O_30
REMARK    9  A    between atoms: O_30  and  C_31
REMARK                            x       y       z     vdW  Elec       q    Type
REMARK                         _______ _______ _______ _____ _____    ______ ____
ROOT
ATOM      1  C   UNL     1       1.190  -0.671  -0.012  0.00  0.00    +0.174 A 
ATOM      2  N   UNL     1       2.337  -0.024  -0.019  0.00  0.00    -0.185 NA
ATOM      3  C   UNL     1       2.372   1.318  -0.013  0.00  0.00    +0.279 A 
ATOM      4  O   UNL     1       3.443   1.907  -0.019  0.00  0.00    -0.265 OA
ATOM      5  C   UNL     1       1.163   2.044   0.002  0.00  0.00    +0.065 A 
ATOM      6  C   UNL     1      -0.017   1.366   0.010  0.00  0.00    +0.116 A 
ATOM      7  N   UNL     1       0.002  -0.004   0.002  0.00  0.00    -0.311 N 
ATOM      8  C   UNL     1      -1.257  -0.753   0.009  0.00  0.00    +0.152 C 
ATOM      9  N   UNL     1      -1.215   2.048   0.030  0.00  0.00    -0.271 N 
ATOM     10  C   UNL     1      -1.266   3.339   0.401  0.00  0.00    +0.219 C 
ATOM     11  O   UNL     1      -2.327   3.925   0.399  0.00  0.00    -0.275 OA
ATOM     12  C   UNL     1      -0.014   4.063   0.823  0.00  0.00    +0.109 C 
ATOM     13  C   UNL     1       1.175   3.548   0.010  0.00  0.00    +0.066 C 
ATOM     14  H   UNL     1      -2.031   1.592  -0.228  0.00  0.00    +0.156 HD
ENDROOT
BRANCH  13  15
ATOM     15  C   UNL     1       1.076   4.059  -1.405  0.00  0.00    -0.036 A 
ATOM     16  C   UNL     1      -0.024   3.737  -2.179  0.00  0.00    +0.008 A 
ATOM     17  C   UNL     1      -0.120   4.203  -3.477  0.00  0.00    +0.049 A 
ATOM     18  C   UNL     1       0.887   4.995  -4.005  0.00  0.00    +0.158 A 
ATOM     19  C   UNL     1       1.994   5.319  -3.226  0.00  0.00    +0.162 A 
ATOM     20  C   UNL     1       2.081   4.853  -1.924  0.00  0.00    +0.053 A 
BRANCH  19  21
ATOM     21  O   UNL     1       2.985   6.096  -3.740  0.00  0.00    -0.491 OA
ATOM     22  C   UNL     1       4.090   6.388  -2.882  0.00  0.00    +0.277 C 
ENDBRANCH  19  21
BRANCH  18  23
ATOM     23  O   UNL     1       0.794   5.454  -5.281  0.00  0.00    -0.503 OA
ATOM     24  H   UNL     1       0.351   6.310  -5.360  0.00  0.00    +0.292 HD
ENDBRANCH  18  23
ENDBRANCH  13  15
BRANCH   1  25
ATOM     25  S   UNL     1       1.192  -2.433  -0.020  0.00  0.00    -0.083 S 
BRANCH  25  26
ATOM     26  C   UNL     1       2.975  -2.745  -0.038  0.00  0.00    +0.112 C 
BRANCH  26  33
ATOM     27  C   UNL     1       3.191  -4.158  -2.549  0.00  0.00    +0.044 C 
ATOM     28  C   UNL     1       3.328  -4.907  -1.248  0.00  0.00    -0.046 A 
ATOM     29  C   UNL     1       3.557  -6.271  -1.257  0.00  0.00    +0.003 A 
ATOM     30  C   UNL     1       3.683  -6.958  -0.064  0.00  0.00    +0.000 A 
ATOM     31  C   UNL     1       3.579  -6.282   1.138  0.00  0.00    +0.000 A 
ATOM     32  C   UNL     1       3.355  -4.918   1.146  0.00  0.00    +0.005 A 
ATOM     33  C   UNL     1       3.224  -4.231  -0.047  0.00  0.00    -0.034 A 
ENDBRANCH  26  33
ENDBRANCH  25  26
ENDBRANCH   1  25
TORSDOF 6
