REMARK  Name = ZINC08862463
REMARK  5 active torsions:
REMARK  status: ('A' for Active; 'I' for Inactive)
REMARK    1  A    between atoms: C_1  and  C_2
REMARK    2  A    between atoms: C_15  and  C_17
REMARK    3  A    between atoms: C_17  and  C_19
REMARK    4  A    between atoms: C_17  and  N_65
REMARK    5  A    between atoms: C_25  and  C_27
REMARK                            x       y       z     vdW  Elec       q    Type
REMARK                         _______ _______ _______ _____ _____    ______ ____
ROOT
ATOM      1  C   UNL     1       3.946   2.668  -2.465  0.00  0.00    -0.059 C 
ATOM      2  C   UNL     1       3.710   2.141  -1.046  0.00  0.00    +0.089 C 
ATOM      3  N   UNL     1       2.305   1.721  -0.931  0.00  0.00    -0.302 N 
ATOM      4  C   UNL     1       1.768   0.805  -1.949  0.00  0.00    +0.089 C 
ATOM      5  C   UNL     1       2.079   1.389  -3.336  0.00  0.00    -0.059 C 
ATOM      6  C   UNL     1       1.533   2.159   0.082  0.00  0.00    +0.260 C 
ATOM      7  O   UNL     1       0.402   1.739   0.208  0.00  0.00    -0.271 OA
ATOM      8  N   UNL     1       3.535   1.628  -3.433  0.00  0.00    +0.388 N 
ATOM      9  H   UNL     1       4.031   0.755  -3.214  0.00  0.00    -0.081 HD
ENDROOT
BRANCH   6  10
ATOM     10  C   UNL     1       2.074   3.171   1.059  0.00  0.00    +0.296 C 
ATOM     11  C   UNL     1       3.120   2.508   1.965  0.00  0.00    +0.283 C 
ATOM     12  O   UNL     1       3.602   3.493   2.887  0.00  0.00    -0.484 OA
ATOM     13  C   UNL     1       2.665   4.263   3.504  0.00  0.00    +0.162 A 
ATOM     14  C   UNL     1       3.011   4.971   4.646  0.00  0.00    +0.049 A 
ATOM     15  C   UNL     1       2.072   5.763   5.280  0.00  0.00    +0.004 A 
ATOM     16  C   UNL     1       0.787   5.852   4.778  0.00  0.00    +0.004 A 
ATOM     17  C   UNL     1       0.436   5.148   3.642  0.00  0.00    +0.049 A 
ATOM     18  C   UNL     1       1.373   4.351   3.001  0.00  0.00    +0.163 A 
ATOM     19  O   UNL     1       1.012   3.661   1.885  0.00  0.00    -0.473 OA
ENDBRANCH   6  10
BRANCH   8  20
ATOM     20  C   UNL     1       3.887   2.048  -4.805  0.00  0.00    -0.004 C 
ATOM     21  C   UNL     1       3.199   1.118  -5.806  0.00  0.00    -0.005 C 
BRANCH  20  35
ATOM     22  C   UNL     1      13.829   1.055  -4.883  0.00  0.00    +0.008 C 
ATOM     23  C   UNL     1      12.321   0.950  -5.121  0.00  0.00    -0.009 C 
ATOM     24  C   UNL     1      11.868   2.080  -6.049  0.00  0.00    +0.008 C 
ATOM     25  C   UNL     1      10.423   1.843  -6.490  0.00  0.00    +0.037 C 
ATOM     26  C   UNL     1       9.560   1.624  -5.250  0.00  0.00    -0.023 A 
ATOM     27  C   UNL     1      10.123   1.288  -4.069  0.00  0.00    -0.004 A 
ATOM     28  S   UNL     1       8.765   1.142  -2.939  0.00  0.00    -0.073 S 
ATOM     29  C   UNL     1       7.444   1.535  -4.058  0.00  0.00    +0.116 A 
ATOM     30  C   UNL     1       8.105   1.765  -5.275  0.00  0.00    +0.075 A 
ATOM     31  C   UNL     1       7.263   2.110  -6.383  0.00  0.00    +0.260 A 
ATOM     32  O   UNL     1       7.744   2.328  -7.481  0.00  0.00    -0.267 OA
ATOM     33  N   UNL     1       5.933   2.184  -6.190  0.00  0.00    -0.312 N 
ATOM     34  H   UNL     1       5.357   2.413  -6.936  0.00  0.00    +0.170 HD
ATOM     35  C   UNL     1       5.381   1.948  -4.972  0.00  0.00    +0.097 A 
ATOM     36  N   UNL     1       6.122   1.631  -3.944  0.00  0.00    -0.228 NA
ATOM     37  C   UNL     1      11.579   1.083  -3.783  0.00  0.00    +0.046 C 
ENDBRANCH  20  35
ENDBRANCH   8  20
TORSDOF 3
