REMARK  Name = ZINC48340454
REMARK  11 active torsions:
REMARK  status: ('A' for Active; 'I' for Inactive)
REMARK    1  A    between atoms: C_1  and  C_2
REMARK    2  A    between atoms: C_2  and  N_3
REMARK    3  A    between atoms: C_4  and  C_6
REMARK    4  A    between atoms: C_6  and  N_7
REMARK    5  A    between atoms: N_7  and  C_8
REMARK    6  A    between atoms: N_7  and  C_9
REMARK    7  A    between atoms: C_9  and  N_10
REMARK    8  A    between atoms: N_22  and  C_25
REMARK    9  A    between atoms: C_25  and  C_26
REMARK   10  A    between atoms: C_31  and  O_32
REMARK   11  A    between atoms: O_32  and  C_33
REMARK                            x       y       z     vdW  Elec       q    Type
REMARK                         _______ _______ _______ _____ _____    ______ ____
ROOT
ATOM      1  N   UNL     1       2.306  -6.031   4.017  0.00  0.00    -0.255 N 
ATOM      2  C   UNL     1       1.508  -6.948   4.600  0.00  0.00    +0.182 A 
ATOM      3  S   UNL     1       0.217  -6.627   5.678  0.00  0.00    -0.011 S 
ATOM      4  N   UNL     1       1.911  -8.166   4.180  0.00  0.00    -0.257 N 
ATOM      5  C   UNL     1       1.434  -9.441   4.474  0.00  0.00    +0.064 A 
ATOM      6  C   UNL     1       0.362  -9.621   5.335  0.00  0.00    +0.027 A 
ATOM      7  C   UNL     1      -0.093 -10.895   5.610  0.00  0.00    +0.002 A 
ATOM      8  C   UNL     1       0.514 -12.000   5.033  0.00  0.00    +0.001 A 
ATOM      9  C   UNL     1       1.582 -11.840   4.175  0.00  0.00    +0.015 A 
ATOM     10  C   UNL     1       2.049 -10.558   3.889  0.00  0.00    +0.064 A 
ATOM     11  C   UNL     1       3.187 -10.347   2.976  0.00  0.00    +0.263 A 
ATOM     12  O   UNL     1       3.743 -11.293   2.451  0.00  0.00    -0.267 OA
ATOM     13  N   UNL     1       3.602  -9.088   2.731  0.00  0.00    -0.272 N 
ATOM     14  C   UNL     1       2.977  -7.999   3.323  0.00  0.00    +0.238 A 
ATOM     15  N   UNL     1       3.220  -6.721   3.212  0.00  0.00    -0.133 NA
ENDROOT
BRANCH   1  16
ATOM     16  C   UNL     1       2.227  -4.578   4.190  0.00  0.00    +0.072 C 
BRANCH  16  17
ATOM     17  N   UNL     1       1.622  -3.975   2.995  0.00  0.00    +0.397 N 
ATOM     18  C   UNL     1       2.517  -4.162   1.845  0.00  0.00    -0.093 C 
ATOM     19  H   UNL     1       0.736  -4.418   2.807  0.00  0.00    -0.079 HD
BRANCH  17  20
ATOM     20  C   UNL     1       1.413  -2.539   3.224  0.00  0.00    +0.021 C 
BRANCH  20  22
ATOM     21  N   UNL     1       0.379  -0.631   2.037  0.00  0.00    -0.317 N 
ATOM     22  C   UNL     1       0.682  -1.944   2.048  0.00  0.00    +0.197 C 
ATOM     23  O   UNL     1       0.366  -2.647   1.112  0.00  0.00    -0.278 OA
ATOM     24  H   UNL     1       0.631  -0.069   2.786  0.00  0.00    +0.149 HD
BRANCH  21  26
ATOM     25  C   UNL     1      -0.550   1.443   1.133  0.00  0.00    +0.024 C 
ATOM     26  C   UNL     1      -0.332  -0.053   0.894  0.00  0.00    +0.101 C 
ENDBRANCH  21  26
ENDBRANCH  20  22
ENDBRANCH  17  20
ENDBRANCH  16  17
ENDBRANCH   1  16
BRANCH  13  27
ATOM     27  C   UNL     1       4.732  -8.865   1.825  0.00  0.00    +0.167 C 
BRANCH  27  28
ATOM     28  C   UNL     1       5.999  -8.721   2.629  0.00  0.00    +0.014 A 
ATOM     29  C   UNL     1       6.500  -7.465   2.912  0.00  0.00    +0.009 A 
ATOM     30  C   UNL     1       7.662  -7.333   3.648  0.00  0.00    +0.001 A 
ATOM     31  C   UNL     1       8.326  -8.457   4.104  0.00  0.00    +0.004 A 
ATOM     32  C   UNL     1       7.830  -9.715   3.825  0.00  0.00    +0.046 A 
ATOM     33  C   UNL     1       6.660  -9.850   3.090  0.00  0.00    +0.125 A 
BRANCH  33  34
ATOM     34  O   UNL     1       6.166 -11.087   2.818  0.00  0.00    -0.495 OA
ATOM     35  C   UNL     1       6.839 -12.199   3.412  0.00  0.00    +0.277 C 
ENDBRANCH  33  34
ENDBRANCH  27  28
ENDBRANCH  13  27
TORSDOF 8
