REMARK  Name = ZINC59310015
REMARK  6 active torsions:
REMARK  status: ('A' for Active; 'I' for Inactive)
REMARK    1  A    between atoms: C_14  and  C_15
REMARK    2  A    between atoms: N_16  and  N_17
REMARK    3  A    between atoms: C_20  and  S_23
REMARK    4  A    between atoms: S_23  and  C_24
REMARK    5  A    between atoms: C_24  and  C_25
REMARK    6  A    between atoms: N_27  and  C_28
REMARK                            x       y       z     vdW  Elec       q    Type
REMARK                         _______ _______ _______ _____ _____    ______ ____
ROOT
ATOM      1  N   UNL     1       7.310   0.383  -0.062  0.00  0.00    -0.205 N 
ATOM      2  C   UNL     1       8.530  -0.258   0.042  0.00  0.00    +0.232 A 
ATOM      3  N   UNL     1       8.717  -1.558   0.136  0.00  0.00    -0.186 NA
ATOM      4  C   UNL     1      10.025  -1.820   0.218  0.00  0.00    +0.211 A 
ATOM      5  N   UNL     1      10.690  -0.689   0.177  0.00  0.00    -0.144 NA
ATOM      6  N   UNL     1       9.742   0.339   0.057  0.00  0.00    -0.245 N 
ATOM      7  H   UNL     1       7.274   1.350  -0.132  0.00  0.00    +0.177 HD
ATOM      8  H   UNL     1       9.921   1.291  -0.001  0.00  0.00    +0.192 HD
ENDROOT
BRANCH   1  10
ATOM      9  C   UNL     1       4.975   0.240  -0.163  0.00  0.00    +0.139 C 
ATOM     10  N   UNL     1       6.125  -0.364  -0.066  0.00  0.00    -0.188 NA
BRANCH   9  24
ATOM     11  C   UNL     1       3.834  -4.735  -0.234  0.00  0.00    +0.001 A 
ATOM     12  C   UNL     1       5.016  -3.996  -0.231  0.00  0.00    +0.001 A 
ATOM     13  C   UNL     1       5.007  -2.637  -0.209  0.00  0.00    +0.009 A 
ATOM     14  C   UNL     1       3.780  -1.950  -0.190  0.00  0.00    -0.009 A 
ATOM     15  C   UNL     1       2.537  -2.724  -0.194  0.00  0.00    -0.017 A 
ATOM     16  C   UNL     1       2.616  -4.133  -0.216  0.00  0.00    +0.008 A 
ATOM     17  C   UNL     1       1.302  -2.074  -0.175  0.00  0.00    +0.017 A 
ATOM     18  C   UNL     1       1.249  -0.680  -0.153  0.00  0.00    -0.017 A 
ATOM     19  C   UNL     1       0.012  -0.000  -0.133  0.00  0.00    +0.008 A 
ATOM     20  C   UNL     1      -0.006   1.358  -0.111  0.00  0.00    +0.001 A 
ATOM     21  C   UNL     1       1.170   2.105  -0.107  0.00  0.00    +0.001 A 
ATOM     22  C   UNL     1       2.393   1.510  -0.126  0.00  0.00    +0.009 A 
ATOM     23  C   UNL     1       2.483   0.108  -0.148  0.00  0.00    -0.009 A 
ATOM     24  C   UNL     1       3.735  -0.541  -0.167  0.00  0.00    +0.010 A 
ENDBRANCH   9  24
ENDBRANCH   1  10
BRANCH   4  25
ATOM     25  S   UNL     1      10.741  -3.424   0.360  0.00  0.00    -0.075 S 
BRANCH  25  26
ATOM     26  C   UNL     1      12.525  -3.104   0.427  0.00  0.00    +0.173 C 
BRANCH  26  27
ATOM     27  C   UNL     1      13.266  -4.410   0.550  0.00  0.00    +0.228 C 
ATOM     28  O   UNL     1      12.650  -5.455   0.589  0.00  0.00    -0.275 OA
ATOM     29  N   UNL     1      14.612  -4.418   0.617  0.00  0.00    -0.284 N 
ATOM     30  H   UNL     1      15.100  -3.582   0.666  0.00  0.00    +0.155 HD
BRANCH  29  31
ATOM     31  C   UNL     1      15.305  -5.634   0.615  0.00  0.00    +0.052 A 
ATOM     32  C   UNL     1      14.823  -6.710  -0.119  0.00  0.00    +0.025 A 
ATOM     33  C   UNL     1      15.509  -7.908  -0.119  0.00  0.00    +0.002 A 
ATOM     34  C   UNL     1      16.677  -8.038   0.611  0.00  0.00    +0.002 A 
ATOM     35  C   UNL     1      17.161  -6.970   1.344  0.00  0.00    +0.022 A 
ATOM     36  C   UNL     1      16.481  -5.766   1.344  0.00  0.00    +0.062 A 
ATOM     37 CL   UNL     1      17.093  -4.423   2.257  0.00  0.00    -0.082 Cl
ENDBRANCH  29  31
ENDBRANCH  26  27
ENDBRANCH  25  26
ENDBRANCH   4  25
TORSDOF 6
