REMARK  Name = ZINC35807978
REMARK  12 active torsions:
REMARK  status: ('A' for Active; 'I' for Inactive)
REMARK    1  A    between atoms: C_1  and  C_2
REMARK    2  A    between atoms: C_7  and  C_9
REMARK    3  A    between atoms: C_7  and  C_10
REMARK    4  A    between atoms: C_13  and  C_15
REMARK    5  A    between atoms: C_18  and  C_20
REMARK    6  A    between atoms: C_20  and  N_21
REMARK    7  A    between atoms: N_21  and  C_22
REMARK    8  A    between atoms: N_21  and  C_31
REMARK    9  A    between atoms: C_22  and  C_23
REMARK   10  A    between atoms: C_26  and  O_29
REMARK   11  A    between atoms: O_29  and  C_30
REMARK   12  A    between atoms: C_31  and  C_32
REMARK                            x       y       z     vdW  Elec       q    Type
REMARK                         _______ _______ _______ _____ _____    ______ ____
ROOT
ATOM      1  C   UNL     1       4.193  -0.504  -3.600  0.00  0.00    -0.014 C 
ENDROOT
BRANCH   1   5
ATOM      2  C   UNL     1       1.841  -3.225  -2.665  0.00  0.00    +0.133 A 
ATOM      3  C   UNL     1       1.995  -3.893  -3.850  0.00  0.00    +0.079 A 
ATOM      4  S   UNL     1       3.090  -2.920  -4.674  0.00  0.00    -0.082 S 
ATOM      5  C   UNL     1       3.313  -1.724  -3.517  0.00  0.00    +0.063 A 
ATOM      6  N   UNL     1       2.541  -2.095  -2.532  0.00  0.00    -0.241 NA
BRANCH   2  18
ATOM      7  C   UNL     1       0.527   0.294   1.280  0.00  0.00    +0.013 C 
ATOM      8  C   UNL     1       0.793  -1.214   1.155  0.00  0.00    -0.014 C 
ATOM      9  C   UNL     1      -0.498  -2.058   1.339  0.00  0.00    +0.030 C 
ATOM     10  C   UNL     1      -0.032  -3.387   0.692  0.00  0.00    +0.077 C 
ATOM     11  C   UNL     1       0.899  -4.073   1.689  0.00  0.00    +0.029 C 
ATOM     12  C   UNL     1       2.072  -3.213   2.126  0.00  0.00    -0.033 C 
ATOM     13  C   UNL     1       1.816  -1.719   2.171  0.00  0.00    +0.014 C 
ATOM     14  C   UNL     1       2.452  -3.656   3.561  0.00  0.00    +0.011 C 
ATOM     15  C   UNL     1       3.292  -3.513   1.243  0.00  0.00    +0.011 C 
ATOM     16  N   UNL     1       0.745  -2.978  -0.495  0.00  0.00    -0.293 N 
ATOM     17  C   UNL     1       1.246  -1.615  -0.267  0.00  0.00    +0.115 C 
ATOM     18  C   UNL     1       0.951  -3.720  -1.602  0.00  0.00    +0.266 C 
ATOM     19  O   UNL     1       0.401  -4.799  -1.722  0.00  0.00    -0.268 OA
ENDBRANCH   2  18
ENDBRANCH   1   5
BRANCH   1  20
ATOM     20  N   UNL     1       5.473  -0.778  -2.934  0.00  0.00    +0.389 N 
ATOM     21  H   UNL     1       5.301  -1.083  -1.987  0.00  0.00    -0.080 HD
BRANCH  20  22
ATOM     22  C   UNL     1       6.191  -1.831  -3.665  0.00  0.00    -0.042 C 
BRANCH  22  23
ATOM     23  C   UNL     1       7.445  -2.198  -2.914  0.00  0.00    -0.064 A 
ATOM     24  C   UNL     1       8.626  -1.527  -3.174  0.00  0.00    +0.005 A 
ATOM     25  C   UNL     1       9.777  -1.862  -2.488  0.00  0.00    +0.046 A 
ATOM     26  C   UNL     1       9.748  -2.873  -1.538  0.00  0.00    +0.120 A 
ATOM     27  C   UNL     1       8.561  -3.544  -1.279  0.00  0.00    +0.046 A 
ATOM     28  C   UNL     1       7.412  -3.202  -1.964  0.00  0.00    +0.005 A 
BRANCH  26  29
ATOM     29  O   UNL     1      10.879  -3.205  -0.862  0.00  0.00    -0.495 OA
ATOM     30  C   UNL     1      10.774  -4.255   0.102  0.00  0.00    +0.277 C 
ENDBRANCH  26  29
ENDBRANCH  22  23
ENDBRANCH  20  22
BRANCH  20  31
ATOM     31  C   UNL     1       6.287   0.446  -2.914  0.00  0.00    -0.042 C 
BRANCH  31  32
ATOM     32  C   UNL     1       5.624   1.475  -2.035  0.00  0.00    -0.064 A 
ATOM     33  C   UNL     1       4.809   2.440  -2.597  0.00  0.00    +0.004 A 
ATOM     34  C   UNL     1       4.200   3.385  -1.792  0.00  0.00    +0.038 A 
ATOM     35  C   UNL     1       4.407   3.364  -0.423  0.00  0.00    +0.123 A 
ATOM     36  C   UNL     1       5.223   2.397   0.138  0.00  0.00    +0.038 A 
ATOM     37  C   UNL     1       5.827   1.450  -0.668  0.00  0.00    +0.004 A 
ATOM     38  F   UNL     1       3.813   4.287   0.364  0.00  0.00    -0.205 F 
ENDBRANCH  31  32
ENDBRANCH  20  31
ENDBRANCH   1  20
TORSDOF 8
