REMARK  Name = ZINC52860879
REMARK  4 active torsions:
REMARK  status: ('A' for Active; 'I' for Inactive)
REMARK    1  A    between atoms: C_6  and  S_7
REMARK    2  A    between atoms: S_7  and  C_8
REMARK    3  A    between atoms: C_13  and  C_14
REMARK    4  A    between atoms: N_15  and  O_16
REMARK                            x       y       z     vdW  Elec       q    Type
REMARK                         _______ _______ _______ _____ _____    ______ ____
ROOT
ATOM      1  C   UNL     1      -0.998  -2.596  -0.276  0.00  0.00    +0.023 A 
ATOM      2  C   UNL     1       0.350  -2.931  -0.258  0.00  0.00    +0.017 A 
ATOM      3  C   UNL     1       0.734  -4.256  -0.250  0.00  0.00    +0.021 A 
ATOM      4  C   UNL     1      -0.220  -5.262  -0.259  0.00  0.00    +0.042 A 
ATOM      5  C   UNL     1      -1.563  -4.947  -0.277  0.00  0.00    +0.032 A 
ATOM      6  C   UNL     1      -1.965  -3.611  -0.280  0.00  0.00    +0.033 A 
ATOM      7 CL   UNL     1       0.278  -6.925  -0.248  0.00  0.00    -0.084 Cl
ENDROOT
BRANCH   6   8
ATOM      8  C   UNL     1      -3.402  -3.268  -0.292  0.00  0.00    +0.163 C 
ATOM      9  N   UNL     1      -4.173  -3.727  -1.236  0.00  0.00    -0.071 NA
ATOM     10  N   UNL     1      -3.929  -2.457   0.699  0.00  0.00    -0.340 N 
ATOM     11  H   UNL     1      -3.355  -2.115   1.402  0.00  0.00    +0.144 HD
ATOM     12  H   UNL     1      -4.873  -2.232   0.691  0.00  0.00    +0.144 HD
BRANCH   9  13
ATOM     13  O   UNL     1      -3.615  -4.457  -2.313  0.00  0.00    -0.408 OA
ATOM     14  H   UNL     1      -4.253  -4.691  -3.001  0.00  0.00    +0.328 HD
ENDBRANCH   9  13
ENDBRANCH   6   8
BRANCH   1  15
ATOM     15  S   UNL     1      -1.490  -0.905  -0.287  0.00  0.00    -0.089 S 
BRANCH  15  21
ATOM     16  C   UNL     1       0.587   0.206  -1.681  0.00  0.00    +0.016 A 
ATOM     17  C   UNL     1       1.776   0.900  -1.790  0.00  0.00    +0.021 A 
ATOM     18  C   UNL     1       2.410   1.369  -0.653  0.00  0.00    +0.041 A 
ATOM     19  C   UNL     1       1.856   1.145   0.595  0.00  0.00    +0.021 A 
ATOM     20  C   UNL     1       0.667   0.453   0.710  0.00  0.00    +0.016 A 
ATOM     21  C   UNL     1       0.027  -0.020  -0.429  0.00  0.00    +0.013 A 
ATOM     22 CL   UNL     1       3.905   2.241  -0.793  0.00  0.00    -0.084 Cl
ENDBRANCH  15  21
ENDBRANCH   1  15
TORSDOF 4
