REMARK  Name = ZINC35746446
REMARK  19 active torsions:
REMARK  status: ('A' for Active; 'I' for Inactive)
REMARK    1  A    between atoms: C_1  and  C_2
REMARK    2  A    between atoms: C_5  and  C_9
REMARK    3  A    between atoms: C_6  and  C_8
REMARK    4  A    between atoms: C_18  and  C_20
REMARK    5  A    between atoms: C_20  and  N_21
REMARK    6  A    between atoms: N_21  and  C_22
REMARK    7  A    between atoms: N_21  and  C_27
REMARK    8  A    between atoms: C_22  and  C_23
REMARK    9  A    between atoms: C_23  and  C_24
REMARK   10  A    between atoms: C_24  and  C_25
REMARK   11  A    between atoms: C_24  and  C_26
REMARK   12  A    between atoms: C_27  and  C_28
REMARK   13  A    between atoms: C_28  and  C_30
REMARK   14  A    between atoms: C_28  and  O_36
REMARK   15  A    between atoms: C_30  and  O_31
REMARK   16  A    between atoms: O_31  and  C_32
REMARK   17  A    between atoms: C_32  and  C_33
REMARK   18  A    between atoms: C_32  and  C_34
REMARK   19  A    between atoms: C_32  and  C_35
REMARK                            x       y       z     vdW  Elec       q    Type
REMARK                         _______ _______ _______ _____ _____    ______ ____
ROOT
ATOM      1  C   UNL     1      -3.997  -6.977   7.587  0.00  0.00    +0.004 A 
ATOM      2  C   UNL     1      -3.492  -8.040   8.258  0.00  0.00    +0.056 A 
ATOM      3  S   UNL     1      -3.031  -9.168   6.957  0.00  0.00    -0.076 S 
ATOM      4  C   UNL     1      -3.522  -8.195   5.556  0.00  0.00    +0.116 A 
ATOM      5  C   UNL     1      -4.037  -7.021   6.130  0.00  0.00    +0.080 A 
ATOM      6  C   UNL     1      -4.521  -6.040   5.207  0.00  0.00    +0.260 A 
ATOM      7  O   UNL     1      -4.983  -4.986   5.609  0.00  0.00    -0.267 OA
ATOM      8  N   UNL     1      -4.458  -6.299   3.888  0.00  0.00    -0.312 N 
ATOM      9  H   UNL     1      -4.784  -5.638   3.257  0.00  0.00    +0.170 HD
ATOM     10  C   UNL     1      -3.946  -7.467   3.422  0.00  0.00    +0.094 A 
ATOM     11  N   UNL     1      -3.488  -8.377   4.239  0.00  0.00    -0.229 NA
ENDROOT
BRANCH   1  16
ATOM     12  C   UNL     1      -5.968  -2.377  10.435  0.00  0.00    +0.044 C 
ATOM     13  C   UNL     1      -5.453  -3.581   9.690  0.00  0.00    -0.050 A 
ATOM     14  C   UNL     1      -4.109  -3.904   9.749  0.00  0.00    +0.004 A 
ATOM     15  C   UNL     1      -3.630  -5.005   9.068  0.00  0.00    +0.009 A 
ATOM     16  C   UNL     1      -4.505  -5.793   8.321  0.00  0.00    -0.014 A 
ATOM     17  C   UNL     1      -5.858  -5.463   8.265  0.00  0.00    -0.042 A 
ATOM     18  C   UNL     1      -6.326  -4.362   8.955  0.00  0.00    +0.007 A 
ATOM     19  C   UNL     1      -6.809  -6.309   7.460  0.00  0.00    +0.044 C 
ENDBRANCH   1  16
BRANCH  10  20
ATOM     20  C   UNL     1      -3.895  -7.713   1.936  0.00  0.00    -0.003 C 
BRANCH  20  21
ATOM     21  N   UNL     1      -3.434  -9.084   1.682  0.00  0.00    +0.386 N 
ATOM     22  H   UNL     1      -2.566  -9.243   2.172  0.00  0.00    -0.081 HD
BRANCH  21  23
ATOM     23  C   UNL     1      -3.223  -9.271   0.240  0.00  0.00    -0.078 C 
BRANCH  23  24
ATOM     24  C   UNL     1      -2.077  -8.371  -0.228  0.00  0.00    -0.016 C 
BRANCH  24  25
ATOM     25  C   UNL     1      -1.762  -8.668  -1.696  0.00  0.00    -0.019 C 
ATOM     26  C   UNL     1      -2.962  -8.280  -2.563  0.00  0.00    +0.007 C 
ATOM     27  C   UNL     1      -0.537  -7.860  -2.129  0.00  0.00    +0.007 C 
ENDBRANCH  24  25
ENDBRANCH  23  24
ENDBRANCH  21  23
BRANCH  21  28
ATOM     28  C   UNL     1      -4.446 -10.037   2.156  0.00  0.00    -0.044 C 
BRANCH  28  29
ATOM     29  C   UNL     1      -3.913 -11.463   2.006  0.00  0.00    +0.124 C 
BRANCH  29  30
ATOM     30  O   UNL     1      -2.789 -11.646   2.869  0.00  0.00    -0.391 OA
ATOM     31  H   UNL     1      -2.988 -11.512   3.806  0.00  0.00    +0.210 HD
ENDBRANCH  29  30
BRANCH  29  32
ATOM     32  C   UNL     1      -5.012 -12.460   2.381  0.00  0.00    +0.189 C 
BRANCH  32  33
ATOM     33  O   UNL     1      -4.554 -13.790   2.131  0.00  0.00    -0.372 OA
BRANCH  33  34
ATOM     34  C   UNL     1      -5.510 -14.804   2.450  0.00  0.00    +0.061 C 
ATOM     35  C   UNL     1      -6.773 -14.595   1.612  0.00  0.00    +0.041 C 
ATOM     36  C   UNL     1      -4.916 -16.180   2.143  0.00  0.00    +0.041 C 
ATOM     37  C   UNL     1      -5.864 -14.721   3.936  0.00  0.00    +0.041 C 
ENDBRANCH  33  34
ENDBRANCH  32  33
ENDBRANCH  29  32
ENDBRANCH  28  29
ENDBRANCH  21  28
ENDBRANCH  20  21
ENDBRANCH  10  20
TORSDOF 12
