REMARK  Name = ZINC35449522
REMARK  8 active torsions:
REMARK  status: ('A' for Active; 'I' for Inactive)
REMARK    1  A    between atoms: C_1  and  C_2
REMARK    2  A    between atoms: C_2  and  C_3
REMARK    3  A    between atoms: C_2  and  C_4
REMARK    4  A    between atoms: C_4  and  C_5
REMARK    5  A    between atoms: C_5  and  S_6
REMARK    6  A    between atoms: S_6  and  C_7
REMARK    7  A    between atoms: C_17  and  C_19
REMARK    8  A    between atoms: C_22  and  N_25
REMARK                            x       y       z     vdW  Elec       q    Type
REMARK                         _______ _______ _______ _____ _____    ______ ____
ROOT
ATOM      1  C   UNL     1       4.694  -0.098  -2.494  0.00  0.00    +0.171 A 
ATOM      2  N   UNL     1       5.020   0.576  -1.411  0.00  0.00    -0.185 NA
ATOM      3  C   UNL     1       6.273   1.019  -1.223  0.00  0.00    +0.280 A 
ATOM      4  O   UNL     1       6.560   1.640  -0.210  0.00  0.00    -0.265 OA
ATOM      5  C   UNL     1       7.257   0.762  -2.201  0.00  0.00    +0.069 A 
ATOM      6  C   UNL     1       6.910   0.062  -3.314  0.00  0.00    +0.111 A 
ATOM      7  N   UNL     1       5.618  -0.373  -3.457  0.00  0.00    -0.322 N 
ATOM      8  N   UNL     1       7.848  -0.213  -4.281  0.00  0.00    -0.304 N 
ATOM      9  C   UNL     1       9.185  -0.142  -3.997  0.00  0.00    +0.017 C 
ATOM     10  C   UNL     1       9.624   0.543  -2.920  0.00  0.00    +0.024 C 
ATOM     11  C   UNL     1       8.659   1.260  -2.010  0.00  0.00    +0.092 C 
ATOM     12  C   UNL     1      10.994   0.609  -2.612  0.00  0.00    +0.162 C 
ATOM     13  O   UNL     1      11.357   1.239  -1.639  0.00  0.00    -0.292 OA
ATOM     14  C   UNL     1      12.020  -0.086  -3.465  0.00  0.00    +0.080 C 
ATOM     15  C   UNL     1      11.374  -1.310  -4.125  0.00  0.00    +0.014 C 
ATOM     16  C   UNL     1      10.152  -0.843  -4.919  0.00  0.00    +0.051 C 
ATOM     17  H   UNL     1       7.560  -0.459  -5.174  0.00  0.00    +0.153 HD
ATOM     18  H   UNL     1       5.360  -0.875  -4.246  0.00  0.00    +0.169 HD
ENDROOT
BRANCH  11  19
ATOM     19  C   UNL     1       8.704   2.736  -2.309  0.00  0.00    -0.035 A 
ATOM     20  C   UNL     1       8.342   3.199  -3.560  0.00  0.00    +0.007 A 
ATOM     21  C   UNL     1       8.382   4.554  -3.835  0.00  0.00    +0.033 A 
ATOM     22  C   UNL     1       8.784   5.445  -2.857  0.00  0.00    +0.126 A 
ATOM     23  C   UNL     1       9.145   4.982  -1.606  0.00  0.00    +0.033 A 
ATOM     24  C   UNL     1       9.100   3.628  -1.330  0.00  0.00    +0.007 A 
BRANCH  22  25
ATOM     25  N   UNL     1       8.828   6.895  -3.151  0.00  0.00    +0.056 N 
ATOM     26  O   UNL     1       8.513   7.300  -4.246  0.00  0.00    -0.126 OA
ATOM     27  O   UNL     1       9.180   7.675  -2.297  0.00  0.00    -0.126 OA
ENDBRANCH  22  25
ENDBRANCH  11  19
BRANCH   1  28
ATOM     28  S   UNL     1       3.036  -0.658  -2.700  0.00  0.00    -0.088 S 
BRANCH  28  29
ATOM     29  C   UNL     1       2.187  -0.073  -1.207  0.00  0.00    +0.077 C 
BRANCH  29  30
ATOM     30  C   UNL     1       0.718  -0.497  -1.257  0.00  0.00    +0.014 C 
BRANCH  30  32
ATOM     31  C   UNL     1      -0.019   1.526   0.010  0.00  0.00    +0.007 C 
ATOM     32  C   UNL     1       0.002  -0.004   0.002  0.00  0.00    -0.016 C 
ATOM     33  C   UNL     1      -1.433  -0.534   0.013  0.00  0.00    +0.007 C 
ENDBRANCH  30  32
ENDBRANCH  29  30
ENDBRANCH  28  29
ENDBRANCH   1  28
TORSDOF 6
