REMARK  Name = ZINC11662335
REMARK  5 active torsions:
REMARK  status: ('A' for Active; 'I' for Inactive)
REMARK    1  A    between atoms: C_14  and  N_52
REMARK    2  A    between atoms: C_17  and  C_18
REMARK    3  A    between atoms: C_17  and  N_52
REMARK    4  A    between atoms: C_21  and  O_24
REMARK    5  A    between atoms: O_24  and  C_25
REMARK                            x       y       z     vdW  Elec       q    Type
REMARK                         _______ _______ _______ _____ _____    ______ ____
ROOT
ATOM      1  N   UNL     1       0.892  -1.965  -1.175  0.00  0.00    +0.385 N 
ATOM      2  H   UNL     1       0.065  -2.348  -0.702  0.00  0.00    -0.085 HD
ATOM      3  H   UNL     1       1.738  -2.248  -0.667  0.00  0.00    -0.085 HD
ENDROOT
BRANCH   1  17
ATOM      4  C   UNL     1       6.762   5.407  -2.072  0.00  0.00    +0.002 A 
ATOM      5  C   UNL     1       7.679   4.377  -2.228  0.00  0.00    +0.001 A 
ATOM      6  C   UNL     1       7.245   3.066  -2.152  0.00  0.00    +0.017 A 
ATOM      7  C   UNL     1       5.917   2.804  -1.925  0.00  0.00    +0.041 A 
ATOM      8  C   UNL     1       4.955   3.827  -1.762  0.00  0.00    +0.080 A 
ATOM      9  C   UNL     1       5.434   5.154  -1.846  0.00  0.00    +0.029 A 
ATOM     10  N   UNL     1       3.688   3.409  -1.545  0.00  0.00    -0.225 NA
ATOM     11  C   UNL     1       3.365   2.137  -1.487  0.00  0.00    +0.162 A 
ATOM     12  S   UNL     1       4.939   1.332  -1.748  0.00  0.00    -0.052 S 
ATOM     13  N   UNL     1       2.126   1.568  -1.274  0.00  0.00    -0.311 N 
ATOM     14  C   UNL     1       1.532   2.055  -0.022  0.00  0.00    +0.107 C 
ATOM     15  C   UNL     1       0.105   1.518   0.109  0.00  0.00    +0.017 C 
ATOM     16  C   UNL     1       0.137  -0.013   0.099  0.00  0.00    -0.013 C 
ATOM     17  C   UNL     1       0.804  -0.493  -1.192  0.00  0.00    -0.054 C 
ATOM     18  C   UNL     1       2.211   0.102  -1.286  0.00  0.00    +0.091 C 
ENDBRANCH   1  17
BRANCH   1  19
ATOM     19  C   UNL     1       0.952  -2.491  -2.552  0.00  0.00    -0.046 C 
BRANCH  19  20
ATOM     20  C   UNL     1       1.041  -3.995  -2.502  0.00  0.00    -0.064 A 
ATOM     21  C   UNL     1       2.277  -4.612  -2.460  0.00  0.00    +0.005 A 
ATOM     22  C   UNL     1       2.361  -5.990  -2.410  0.00  0.00    +0.046 A 
ATOM     23  C   UNL     1       1.204  -6.755  -2.412  0.00  0.00    +0.132 A 
ATOM     24  C   UNL     1      -0.035  -6.133  -2.460  0.00  0.00    +0.046 A 
ATOM     25  C   UNL     1      -0.114  -4.755  -2.505  0.00  0.00    +0.005 A 
BRANCH  23  26
ATOM     26  O   UNL     1       1.284  -8.111  -2.367  0.00  0.00    -0.424 OA
BRANCH  26  27
ATOM     27  C   UNL     1       0.927  -8.806  -3.474  0.00  0.00    +0.323 A 
ATOM     28  N   UNL     1       0.624  -8.147  -4.581  0.00  0.00    -0.203 NA
ATOM     29  C   UNL     1       0.276  -8.794  -5.680  0.00  0.00    +0.118 A 
ATOM     30  C   UNL     1       0.221 -10.179  -5.660  0.00  0.00    +0.040 A 
ATOM     31  C   UNL     1       0.540 -10.837  -4.483  0.00  0.00    +0.118 A 
ATOM     32  N   UNL     1       0.885 -10.128  -3.421  0.00  0.00    -0.203 NA
ENDBRANCH  26  27
ENDBRANCH  23  26
ENDBRANCH  19  20
ENDBRANCH   1  19
TORSDOF 5
