REMARK  Name = ZINC36637625
REMARK  11 active torsions:
REMARK  status: ('A' for Active; 'I' for Inactive)
REMARK    1  A    between atoms: C_1  and  C_2
REMARK    2  A    between atoms: C_4  and  C_36
REMARK    3  A    between atoms: N_11  and  C_12
REMARK    4  A    between atoms: C_12  and  C_13
REMARK    5  A    between atoms: C_13  and  N_14
REMARK    6  A    between atoms: N_14  and  C_15
REMARK    7  A    between atoms: N_14  and  C_16
REMARK    8  A    between atoms: C_17  and  C_19
REMARK    9  A    between atoms: C_22  and  S_25
REMARK   10  A    between atoms: S_25  and  N_28
REMARK   11  A    between atoms: C_33  and  C_35
REMARK                            x       y       z     vdW  Elec       q    Type
REMARK                         _______ _______ _______ _____ _____    ______ ____
ROOT
ATOM      1  C   UNL     1      -0.021   1.762  -1.585  0.00  0.00    +0.044 C 
ATOM      2  C   UNL     1       0.028   0.255  -1.577  0.00  0.00    -0.049 A 
ATOM      3  C   UNL     1      -0.170  -0.459  -2.750  0.00  0.00    +0.009 A 
ATOM      4  C   UNL     1      -0.131  -1.829  -2.769  0.00  0.00    -0.024 A 
ATOM      5  C   UNL     1       0.114  -2.562  -1.585  0.00  0.00    +0.083 A 
ATOM      6  C   UNL     1       0.310  -1.801  -0.410  0.00  0.00    +0.041 A 
ATOM      7  C   UNL     1       0.275  -0.429  -0.401  0.00  0.00    +0.020 A 
ATOM      8  S   UNL     1       0.579  -3.060   0.815  0.00  0.00    -0.052 S 
ATOM      9  C   UNL     1       0.419  -4.469  -0.273  0.00  0.00    +0.168 A 
ATOM     10  N   UNL     1       0.184  -3.902  -1.433  0.00  0.00    -0.224 NA
ATOM     11  N   UNL     1       0.518  -5.816   0.031  0.00  0.00    -0.248 N 
ATOM     12  C   UNL     1       0.365  -6.739  -0.940  0.00  0.00    +0.252 C 
ATOM     13  O   UNL     1       0.197  -6.387  -2.091  0.00  0.00    -0.270 OA
ATOM     14  C   UNL     1      -0.351  -2.562  -4.068  0.00  0.00    +0.046 C 
ENDROOT
BRANCH  12  15
ATOM     15  C   UNL     1       0.402  -8.177  -0.604  0.00  0.00    +0.037 A 
ATOM     16  C   UNL     1       0.080  -8.605   0.685  0.00  0.00    +0.015 A 
ATOM     17  C   UNL     1       0.117  -9.949   0.992  0.00  0.00    +0.029 A 
ATOM     18  C   UNL     1       0.471 -10.873   0.025  0.00  0.00    +0.106 A 
ATOM     19  C   UNL     1       0.791 -10.457  -1.255  0.00  0.00    +0.029 A 
ATOM     20  C   UNL     1       0.753  -9.116  -1.576  0.00  0.00    +0.015 A 
BRANCH  18  21
ATOM     21  S   UNL     1       0.516 -12.589   0.426  0.00  0.00    +0.061 S 
ATOM     22  O   UNL     1       1.405 -13.199  -0.500  0.00  0.00    -0.153 OA
ATOM     23  O   UNL     1       0.705 -12.673   1.832  0.00  0.00    -0.153 OA
BRANCH  21  24
ATOM     24  N   UNL     1      -0.989 -13.204   0.113  0.00  0.00    -0.174 NA
ATOM     25  C   UNL     1      -1.982 -13.336   1.188  0.00  0.00    +0.110 C 
ATOM     26  C   UNL     1      -2.489 -14.781   1.216  0.00  0.00    +0.017 C 
ATOM     27  C   UNL     1      -3.010 -15.162  -0.171  0.00  0.00    +0.003 C 
ATOM     28  C   UNL     1      -1.871 -15.069  -1.189  0.00  0.00    +0.020 C 
ATOM     29  C   UNL     1      -1.360 -13.622  -1.246  0.00  0.00    +0.077 C 
ATOM     30  C   UNL     1      -0.134 -13.545  -2.158  0.00  0.00    +0.026 C 
ENDBRANCH  21  24
ENDBRANCH  18  21
ENDBRANCH  12  15
BRANCH  11  31
ATOM     31  C   UNL     1       0.788  -6.239   1.407  0.00  0.00    +0.097 C 
BRANCH  31  32
ATOM     32  C   UNL     1      -0.460  -6.015   2.264  0.00  0.00    -0.060 C 
BRANCH  32  33
ATOM     33  N   UNL     1      -0.150  -6.314   3.668  0.00  0.00    +0.377 N 
ATOM     34  C   UNL     1      -1.304  -5.968   4.508  0.00  0.00    -0.097 C 
ATOM     35  C   UNL     1       0.149  -7.745   3.810  0.00  0.00    -0.097 C 
ATOM     36  H   UNL     1       0.651  -5.773   3.958  0.00  0.00    -0.083 HD
ENDBRANCH  32  33
ENDBRANCH  31  32
ENDBRANCH  11  31
TORSDOF 6
