REMARK  Name = ZINC14749252
REMARK  8 active torsions:
REMARK  status: ('A' for Active; 'I' for Inactive)
REMARK    1  A    between atoms: C_1  and  C_2
REMARK    2  A    between atoms: C_2  and  C_3
REMARK    3  A    between atoms: C_3  and  N_4
REMARK    4  A    between atoms: C_7  and  C_9
REMARK    5  A    between atoms: C_18  and  N_73
REMARK    6  A    between atoms: C_22  and  C_23
REMARK    7  A    between atoms: C_22  and  N_73
REMARK    8  A    between atoms: C_23  and  C_29
REMARK                            x       y       z     vdW  Elec       q    Type
REMARK                         _______ _______ _______ _____ _____    ______ ____
ROOT
ATOM      1  N   UNL     1      -0.222  -0.260   0.295  0.00  0.00    -0.267 N 
ATOM      2  C   UNL     1       0.114  -1.073   1.310  0.00  0.00    +0.043 A 
ATOM      3  C   UNL     1       0.140  -2.337   0.820  0.00  0.00    +0.004 A 
ATOM      4  C   UNL     1      -0.200  -2.231  -0.539  0.00  0.00    +0.151 A 
ATOM      5  N   UNL     1      -0.408  -0.948  -0.779  0.00  0.00    -0.166 NA
ATOM      6  C   UNL     1       0.476  -3.559   1.628  0.00  0.00    +0.023 C 
ATOM      7  C   UNL     1       1.161  -3.106   2.925  0.00  0.00    -0.067 C 
ATOM      8  C   UNL     1       0.329  -2.002   3.583  0.00  0.00    -0.009 C 
ATOM      9  C   UNL     1       0.415  -0.721   2.744  0.00  0.00    +0.054 C 
ENDROOT
BRANCH   4  10
ATOM     10  C   UNL     1      -0.310  -3.339  -1.510  0.00  0.00    +0.267 C 
ATOM     11  O   UNL     1      -0.206  -4.490  -1.133  0.00  0.00    -0.268 OA
ATOM     12  N   UNL     1      -0.525  -3.074  -2.814  0.00  0.00    -0.292 N 
ATOM     13  C   UNL     1      -0.516  -1.691  -3.317  0.00  0.00    +0.136 C 
ATOM     14  C   UNL     1       0.418  -1.631  -4.537  0.00  0.00    +0.179 C 
ATOM     15  O   UNL     1       0.035  -2.644  -5.470  0.00  0.00    -0.377 OA
ATOM     16  C   UNL     1       0.158  -3.978  -4.971  0.00  0.00    +0.179 C 
ATOM     17  C   UNL     1      -0.783  -4.158  -3.775  0.00  0.00    +0.136 C 
ENDBRANCH   4  10
BRANCH   7  18
ATOM     18  N   UNL     1       1.268  -4.256   3.843  0.00  0.00    +0.382 N 
ATOM     19  H   UNL     1       1.433  -5.110   3.298  0.00  0.00    -0.085 HD
ATOM     20  H   UNL     1       0.393  -4.350   4.371  0.00  0.00    -0.085 HD
BRANCH  18  21
ATOM     21  C   UNL     1       2.386  -4.057   4.784  0.00  0.00    -0.071 C 
BRANCH  21  22
ATOM     22  C   UNL     1       2.380  -5.187   5.816  0.00  0.00    -0.019 C 
ATOM     23  C   UNL     1       3.456  -4.920   6.871  0.00  0.00    +0.010 C 
ATOM     24  C   UNL     1       4.827  -4.854   6.195  0.00  0.00    +0.001 C 
ATOM     25  C   UNL     1       5.116  -6.184   5.497  0.00  0.00    +0.000 C 
ATOM     26  C   UNL     1       4.040  -6.451   4.442  0.00  0.00    +0.001 C 
ATOM     27  C   UNL     1       2.669  -6.517   5.117  0.00  0.00    +0.010 C 
BRANCH  22  28
ATOM     28  C   UNL     1       1.029  -5.252   6.481  0.00  0.00    -0.043 A 
ATOM     29  C   UNL     1       0.309  -6.432   6.470  0.00  0.00    +0.004 A 
ATOM     30  C   UNL     1      -0.928  -6.493   7.084  0.00  0.00    +0.000 A 
ATOM     31  C   UNL     1      -1.448  -5.371   7.702  0.00  0.00    +0.000 A 
ATOM     32  C   UNL     1      -0.731  -4.190   7.709  0.00  0.00    +0.000 A 
ATOM     33  C   UNL     1       0.508  -4.130   7.099  0.00  0.00    +0.004 A 
ENDBRANCH  22  28
ENDBRANCH  21  22
ENDBRANCH  18  21
ENDBRANCH   7  18
BRANCH   1  34
ATOM     34  C   UNL     1      -0.362   1.195   0.395  0.00  0.00    +0.143 C 
BRANCH  34  36
ATOM     35  C   UNL     1       0.838   3.378   0.199  0.00  0.00    +0.005 C 
ATOM     36  C   UNL     1       0.984   1.859   0.094  0.00  0.00    +0.020 C 
ENDBRANCH  34  36
ENDBRANCH   1  34
TORSDOF 7
