REMARK  Name = ZINC10955595
REMARK  16 active torsions:
REMARK  status: ('A' for Active; 'I' for Inactive)
REMARK    1  A    between atoms: C_1  and  C_2
REMARK    2  A    between atoms: C_4  and  C_8
REMARK    3  A    between atoms: C_5  and  C_7
REMARK    4  A    between atoms: C_10  and  C_20
REMARK    5  A    between atoms: N_14  and  C_17
REMARK    6  A    between atoms: C_17  and  C_18
REMARK    7  A    between atoms: C_17  and  C_19
REMARK    8  A    between atoms: C_20  and  O_22
REMARK    9  A    between atoms: O_22  and  C_23
REMARK   10  A    between atoms: C_23  and  C_24
REMARK   11  A    between atoms: C_24  and  C_26
REMARK   12  A    between atoms: C_27  and  C_37
REMARK   13  A    between atoms: C_28  and  C_33
REMARK   14  A    between atoms: C_29  and  C_32
REMARK   15  A    between atoms: C_33  and  O_35
REMARK   16  A    between atoms: O_35  and  C_36
REMARK                            x       y       z     vdW  Elec       q    Type
REMARK                         _______ _______ _______ _____ _____    ______ ____
ROOT
ATOM      1  C   UNL     1       0.179  -4.260  -0.231  0.00  0.00    +0.077 A 
ATOM      2  C   UNL     1       0.108  -2.867  -0.120  0.00  0.00    +0.044 A 
ATOM      3  C   UNL     1       0.659  -2.076  -1.122  0.00  0.00    +0.073 A 
ATOM      4  C   UNL     1       1.282  -2.727  -2.213  0.00  0.00    +0.053 A 
ATOM      5  C   UNL     1       1.934  -2.270  -3.377  0.00  0.00    +0.145 A 
ATOM      6  N   UNL     1       2.333  -3.304  -4.063  0.00  0.00    -0.177 NA
ATOM      7  N   UNL     1       1.970  -4.481  -3.398  0.00  0.00    -0.244 N 
ATOM      8  C   UNL     1       1.315  -4.136  -2.244  0.00  0.00    +0.160 A 
ATOM      9  N   UNL     1       0.769  -4.840  -1.264  0.00  0.00    -0.227 NA
ENDROOT
BRANCH   1  13
ATOM     10  C   UNL     1      -2.204  -5.793   4.020  0.00  0.00    +0.086 C 
ATOM     11  C   UNL     1      -1.464  -5.758   2.708  0.00  0.00    +0.103 A 
ATOM     12  C   UNL     1      -1.102  -4.646   2.046  0.00  0.00    +0.054 A 
ATOM     13  C   UNL     1      -0.412  -5.104   0.834  0.00  0.00    +0.041 A 
ATOM     14  C   UNL     1      -0.434  -6.462   0.888  0.00  0.00    +0.111 A 
ATOM     15  O   UNL     1      -1.059  -6.832   2.013  0.00  0.00    -0.464 OA
ATOM     16  C   UNL     1       0.151  -7.394  -0.142  0.00  0.00    +0.087 C 
ENDBRANCH   1  13
BRANCH   7  17
ATOM     17  C   UNL     1       2.244  -5.845  -3.856  0.00  0.00    +0.103 C 
ATOM     18  C   UNL     1       1.579  -6.071  -5.215  0.00  0.00    +0.032 C 
ATOM     19  C   UNL     1       3.755  -6.046  -3.987  0.00  0.00    +0.032 C 
ENDBRANCH   7  17
BRANCH   3  20
ATOM     20  C   UNL     1       0.601  -0.602  -1.046  0.00  0.00    +0.340 C 
ATOM     21  O   UNL     1       1.092   0.071  -1.930  0.00  0.00    -0.245 OA
BRANCH  20  22
ATOM     22  O   UNL     1       0.002  -0.004   0.002  0.00  0.00    -0.453 OA
BRANCH  22  23
ATOM     23  C   UNL     1      -0.018   1.448   0.010  0.00  0.00    +0.313 C 
BRANCH  23  24
ATOM     24  C   UNL     1      -0.723   1.934   1.250  0.00  0.00    +0.217 C 
ATOM     25  O   UNL     1      -1.166   1.134   2.049  0.00  0.00    -0.287 OA
BRANCH  24  26
ATOM     26  C   UNL     1      -0.869   3.322   1.483  0.00  0.00    +0.090 A 
ATOM     27  C   UNL     1      -1.494   3.900   2.567  0.00  0.00    -0.008 A 
ATOM     28  C   UNL     1      -1.403   5.298   2.393  0.00  0.00    +0.083 A 
ATOM     29  C   UNL     1      -0.734   5.519   1.202  0.00  0.00    +0.028 A 
ATOM     30  N   UNL     1      -0.416   4.334   0.661  0.00  0.00    -0.355 N 
ATOM     31  H   UNL     1       0.058   4.208  -0.176  0.00  0.00    +0.166 HD
ATOM     32  C   UNL     1      -0.415   6.869   0.611  0.00  0.00    +0.064 C 
ATOM     33  C   UNL     1      -2.145   3.178   3.718  0.00  0.00    +0.047 C 
BRANCH  28  34
ATOM     34  C   UNL     1      -1.929   6.328   3.305  0.00  0.00    +0.341 C 
ATOM     35  O   UNL     1      -3.063   6.743   3.164  0.00  0.00    -0.245 OA
BRANCH  34  36
ATOM     36  O   UNL     1      -1.154   6.810   4.296  0.00  0.00    -0.464 OA
ATOM     37  C   UNL     1      -1.738   7.823   5.156  0.00  0.00    +0.280 C 
ENDBRANCH  34  36
ENDBRANCH  28  34
ENDBRANCH  24  26
ENDBRANCH  23  24
ENDBRANCH  22  23
ENDBRANCH  20  22
ENDBRANCH   3  20
TORSDOF 9
