REMARK  Name = ZINC39780264
REMARK  8 active torsions:
REMARK  status: ('A' for Active; 'I' for Inactive)
REMARK    1  A    between atoms: C_4  and  C_7
REMARK    2  A    between atoms: C_9  and  C_17
REMARK    3  A    between atoms: C_17  and  C_19
REMARK    4  A    between atoms: C_19  and  S_20
REMARK    5  A    between atoms: S_20  and  C_21
REMARK    6  A    between atoms: C_24  and  S_27
REMARK    7  A    between atoms: S_27  and  C_28
REMARK    8  A    between atoms: C_28  and  C_29
REMARK                            x       y       z     vdW  Elec       q    Type
REMARK                         _______ _______ _______ _____ _____    ______ ____
ROOT
ATOM      1  C   UNL     1       4.194  -0.399  -2.594  0.00  0.00    +0.172 C 
ATOM      2  O   UNL     1       4.099   0.809  -2.523  0.00  0.00    -0.291 OA
ENDROOT
BRANCH   1   4
ATOM      3  C   UNL     1       3.711  -0.707  -0.038  0.00  0.00    +0.144 C 
ATOM      4  C   UNL     1       4.019  -1.190  -1.438  0.00  0.00    +0.031 C 
ATOM      5  C   UNL     1       4.095  -2.568  -1.348  0.00  0.00    +0.007 A 
ATOM      6  C   UNL     1       4.350  -3.582  -2.301  0.00  0.00    +0.010 A 
ATOM      7  C   UNL     1       4.362  -4.881  -1.927  0.00  0.00    +0.001 A 
ATOM      8  C   UNL     1       4.128  -5.286  -0.603  0.00  0.00    +0.002 A 
ATOM      9  C   UNL     1       3.876  -4.398   0.383  0.00  0.00    +0.026 A 
ATOM     10  C   UNL     1       3.844  -2.962   0.060  0.00  0.00    +0.044 A 
ATOM     11  N   UNL     1       3.628  -1.909   0.798  0.00  0.00    -0.373 N 
ATOM     12  H   UNL     1       3.442  -1.918   1.750  0.00  0.00    +0.161 HD
BRANCH   3  16
ATOM     13  C   UNL     1      -0.017   1.378   0.010  0.00  0.00    +0.000 A 
ATOM     14  C   UNL     1       1.171   2.086   0.002  0.00  0.00    +0.000 A 
ATOM     15  C   UNL     1       2.377   1.411  -0.013  0.00  0.00    +0.006 A 
ATOM     16  C   UNL     1       2.396   0.029  -0.020  0.00  0.00    -0.021 A 
ATOM     17  C   UNL     1       1.208  -0.679  -0.012  0.00  0.00    +0.006 A 
ATOM     18  C   UNL     1       0.002  -0.004   0.002  0.00  0.00    +0.000 A 
ENDBRANCH   3  16
ENDBRANCH   1   4
BRANCH   1  19
ATOM     19  C   UNL     1       4.498  -1.055  -3.916  0.00  0.00    +0.155 C 
BRANCH  19  20
ATOM     20  S   UNL     1       4.666   0.218  -5.198  0.00  0.00    -0.090 S 
BRANCH  20  21
ATOM     21  C   UNL     1       5.016  -0.696  -6.663  0.00  0.00    +0.151 C 
ATOM     22  N   UNL     1       5.122  -1.982  -6.797  0.00  0.00    -0.172 NA
ATOM     23  N   UNL     1       5.400  -2.597  -7.997  0.00  0.00    -0.244 N 
ATOM     24  C   UNL     1       5.573  -1.683  -9.149  0.00  0.00    +0.211 C 
ATOM     25  S   UNL     1       5.298  -0.068  -8.311  0.00  0.00    -0.063 S 
ATOM     26  H   UNL     1       5.477  -3.560  -8.082  0.00  0.00    +0.170 HD
BRANCH  24  27
ATOM     27  S   UNL     1       7.247  -1.800  -9.839  0.00  0.00    -0.117 S 
BRANCH  27  28
ATOM     28  C   UNL     1       8.325  -1.333  -8.457  0.00  0.00    +0.167 C 
BRANCH  28  29
ATOM     29  C   UNL     1       9.764  -1.389  -8.901  0.00  0.00    +0.220 C 
ATOM     30  O   UNL     1      10.035  -1.713 -10.038  0.00  0.00    -0.275 OA
ATOM     31  N   UNL     1      10.749  -1.079  -8.035  0.00  0.00    -0.329 N 
ATOM     32  H   UNL     1      10.532  -0.820  -7.126  0.00  0.00    +0.145 HD
ATOM     33  H   UNL     1      11.675  -1.116  -8.321  0.00  0.00    +0.145 HD
ENDBRANCH  28  29
ENDBRANCH  27  28
ENDBRANCH  24  27
ENDBRANCH  20  21
ENDBRANCH  19  20
ENDBRANCH   1  19
TORSDOF 8
