REMARK  Name = ZINC39953340
REMARK  7 active torsions:
REMARK  status: ('A' for Active; 'I' for Inactive)
REMARK    1  A    between atoms: C_1  and  O_2
REMARK    2  A    between atoms: O_2  and  C_3
REMARK    3  A    between atoms: C_6  and  S_9
REMARK    4  A    between atoms: S_9  and  N_12
REMARK    5  A    between atoms: N_12  and  C_13
REMARK    6  A    between atoms: C_19  and  C_23
REMARK    7  A    between atoms: N_25  and  C_26
REMARK                            x       y       z     vdW  Elec       q    Type
REMARK                         _______ _______ _______ _____ _____    ______ ____
ROOT
ATOM      1  C   UNL     1       4.537  -3.810  -2.998  0.00  0.00    +0.224 C 
ATOM      2  N   UNL     1       5.904  -4.298  -3.222  0.00  0.00    -0.318 N 
ATOM      3  C   UNL     1       6.864  -3.987  -2.269  0.00  0.00    +0.043 A 
ATOM      4  C   UNL     1       8.220  -4.371  -2.320  0.00  0.00    +0.025 A 
ATOM      5  C   UNL     1       9.100  -4.019  -1.331  0.00  0.00    +0.015 A 
ATOM      6  C   UNL     1       8.681  -3.263  -0.232  0.00  0.00    +0.038 A 
ATOM      7  C   UNL     1       7.338  -2.870  -0.160  0.00  0.00    +0.029 A 
ATOM      8  C   UNL     1       6.469  -3.230  -1.158  0.00  0.00    +0.033 A 
ATOM      9  S   UNL     1       4.733  -2.922  -1.402  0.00  0.00    -0.084 S 
ATOM     10  H   UNL     1       6.129  -4.820  -4.008  0.00  0.00    +0.148 HD
ENDROOT
BRANCH   6  11
ATOM     11  C   UNL     1       9.633  -2.887   0.829  0.00  0.00    +0.248 C 
ATOM     12  O   UNL     1       9.255  -2.229   1.780  0.00  0.00    -0.270 OA
ATOM     13  N   UNL     1      10.921  -3.273   0.746  0.00  0.00    -0.282 N 
ATOM     14  H   UNL     1      11.207  -3.858   0.027  0.00  0.00    +0.155 HD
BRANCH  13  15
ATOM     15  C   UNL     1      11.838  -2.835   1.689  0.00  0.00    +0.034 C 
ATOM     16  C   UNL     1      12.972  -2.142   1.288  0.00  0.00    +0.029 C 
ATOM     17  C   UNL     1      13.796  -1.700   2.330  0.00  0.00    -0.016 C 
ATOM     18  C   UNL     1      15.125  -1.497   2.423  0.00  0.00    +0.025 C 
ATOM     19  C   UNL     1      15.477  -1.322   3.775  0.00  0.00    +0.106 C 
ATOM     20  N   UNL     1      14.433  -1.305   4.558  0.00  0.00    -0.279 NA
ATOM     21  C   UNL     1      13.250  -1.383   3.712  0.00  0.00    +0.158 C 
ATOM     22  C   UNL     1      12.275  -2.460   4.080  0.00  0.00    +0.006 C 
ATOM     23  C   UNL     1      11.611  -3.095   3.114  0.00  0.00    +0.021 C 
ENDBRANCH  13  15
ENDBRANCH   6  11
BRANCH   1  24
ATOM     24  N   UNL     1       4.123  -2.894  -4.064  0.00  0.00    -0.160 NA
ATOM     25  H   UNL     1       4.790  -2.386  -4.553  0.00  0.00    +0.151 HD
BRANCH  24  26
ATOM     26  S   UNL     1       2.518  -2.724  -4.434  0.00  0.00    +0.061 S 
ATOM     27  O   UNL     1       1.992  -4.037  -4.571  0.00  0.00    -0.153 OA
ATOM     28  O   UNL     1       2.441  -1.760  -5.474  0.00  0.00    -0.153 OA
BRANCH  26  32
ATOM     29  C   UNL     1       0.498  -0.892  -0.819  0.00  0.00    +0.120 A 
ATOM     30  C   UNL     1       1.024  -0.075  -1.809  0.00  0.00    +0.047 A 
ATOM     31  C   UNL     1       1.640  -0.637  -2.910  0.00  0.00    +0.032 A 
ATOM     32  C   UNL     1       1.732  -2.011  -3.027  0.00  0.00    +0.106 A 
ATOM     33  C   UNL     1       1.208  -2.828  -2.042  0.00  0.00    +0.032 A 
ATOM     34  C   UNL     1       0.597  -2.271  -0.935  0.00  0.00    +0.047 A 
BRANCH  29  36
ATOM     35  C   UNL     1      -0.174   1.084   0.320  0.00  0.00    +0.277 C 
ATOM     36  O   UNL     1      -0.108  -0.342   0.267  0.00  0.00    -0.495 OA
ENDBRANCH  29  36
ENDBRANCH  26  32
ENDBRANCH  24  26
ENDBRANCH   1  24
TORSDOF 6
