REMARK  Name = ZINC00726734
REMARK  5 active torsions:
REMARK  status: ('A' for Active; 'I' for Inactive)
REMARK    1  A    between atoms: C_6  and  O_25
REMARK    2  A    between atoms: C_7  and  C_11
REMARK    3  A    between atoms: N_13  and  N_14
REMARK    4  A    between atoms: C_15  and  C_16
REMARK    5  A    between atoms: C_18  and  N_22
REMARK                            x       y       z     vdW  Elec       q    Type
REMARK                         _______ _______ _______ _____ _____    ______ ____
ROOT
ATOM      1  C   UNL     1      -3.721   2.070   0.050  0.00  0.00    +0.267 C 
ATOM      2  O   UNL     1      -4.758   1.435   0.057  0.00  0.00    -0.268 OA
ATOM      3  N   UNL     1      -3.754   3.417   0.058  0.00  0.00    -0.203 N 
ATOM      4  H   UNL     1      -2.926   3.923   0.052  0.00  0.00    +0.178 HD
ENDROOT
BRANCH   1  11
ATOM      5  C   UNL     1       2.376   1.436  -0.013  0.00  0.00    +0.001 A 
ATOM      6  C   UNL     1       2.394   0.042  -0.021  0.00  0.00    +0.001 A 
ATOM      7  C   UNL     1       1.238  -0.675  -0.013  0.00  0.00    +0.008 A 
ATOM      8  C   UNL     1       0.002  -0.004   0.002  0.00  0.00    -0.014 A 
ATOM      9  C   UNL     1      -1.208  -0.718   0.010  0.00  0.00    +0.054 A 
ATOM     10  C   UNL     1      -2.395  -0.047   0.026  0.00  0.00    +0.130 A 
ATOM     11  C   UNL     1      -2.425   1.364   0.034  0.00  0.00    +0.080 A 
ATOM     12  C   UNL     1      -1.245   2.091   0.031  0.00  0.00    +0.025 A 
ATOM     13  C   UNL     1      -0.017   1.415   0.010  0.00  0.00    -0.017 A 
ATOM     14  C   UNL     1       1.200   2.121   0.002  0.00  0.00    +0.008 A 
BRANCH  10  15
ATOM     15  O   UNL     1      -3.560  -0.743   0.033  0.00  0.00    -0.506 OA
ATOM     16  H   UNL     1      -3.889  -0.950   0.918  0.00  0.00    +0.292 HD
ENDBRANCH  10  15
ENDBRANCH   1  11
BRANCH   3  17
ATOM     17  N   UNL     1      -4.984   4.087   0.073  0.00  0.00    -0.187 NA
ATOM     18  C   UNL     1      -5.017   5.385   0.081  0.00  0.00    +0.142 C 
BRANCH  18  19
ATOM     19  C   UNL     1      -6.311   6.090   0.097  0.00  0.00    +0.043 A 
ATOM     20  C   UNL     1      -6.350   7.486   0.111  0.00  0.00    +0.046 A 
ATOM     21  C   UNL     1      -7.564   8.139   0.122  0.00  0.00    +0.127 A 
ATOM     22  C   UNL     1      -8.746   7.417   0.130  0.00  0.00    +0.036 A 
ATOM     23  C   UNL     1      -8.720   6.035   0.122  0.00  0.00    +0.054 A 
ATOM     24  C   UNL     1      -7.509   5.363   0.105  0.00  0.00    +0.188 A 
ATOM     25  O   UNL     1      -7.483   4.005   0.098  0.00  0.00    -0.287 OA
BRANCH  21  26
ATOM     26  N   UNL     1      -7.605   9.619   0.131  0.00  0.00    +0.056 N 
ATOM     27  O   UNL     1      -8.676  10.198   0.145  0.00  0.00    -0.126 OA
ATOM     28  O   UNL     1      -6.568  10.257   0.124  0.00  0.00    -0.126 OA
ENDBRANCH  21  26
ENDBRANCH  18  19
ENDBRANCH   3  17
TORSDOF 5
