REMARK  Name = ZINC67095524
REMARK  8 active torsions:
REMARK  status: ('A' for Active; 'I' for Inactive)
REMARK    1  A    between atoms: C_1  and  C_2
REMARK    2  A    between atoms: C_7  and  C_11
REMARK    3  A    between atoms: C_11  and  N_12
REMARK    4  A    between atoms: N_12  and  C_13
REMARK    5  A    between atoms: C_16  and  S_23
REMARK    6  A    between atoms: C_18  and  S_19
REMARK    7  A    between atoms: S_19  and  C_22
REMARK    8  A    between atoms: S_23  and  N_26
REMARK                            x       y       z     vdW  Elec       q    Type
REMARK                         _______ _______ _______ _____ _____    ______ ____
ROOT
ATOM      1  C   UNL     1       1.742  -7.055   3.360  0.00  0.00    +0.053 A 
ATOM      2  C   UNL     1       0.704  -7.901   3.732  0.00  0.00    +0.027 A 
ATOM      3  C   UNL     1       0.977  -9.061   4.428  0.00  0.00    +0.030 A 
ATOM      4  C   UNL     1       2.282  -9.382   4.756  0.00  0.00    +0.107 A 
ATOM      5  C   UNL     1       3.317  -8.543   4.388  0.00  0.00    +0.057 A 
ATOM      6  C   UNL     1       3.051  -7.383   3.686  0.00  0.00    +0.110 A 
ENDROOT
BRANCH   6   7
ATOM      7  S   UNL     1       4.372  -6.318   3.210  0.00  0.00    -0.004 S 
ATOM      8  O   UNL     1       3.980  -5.030   3.665  0.00  0.00    -0.170 OA
ATOM      9  O   UNL     1       5.542  -6.942   3.720  0.00  0.00    -0.170 OA
ATOM     10  C   UNL     1       4.378  -6.365   1.397  0.00  0.00    +0.200 C 
ENDBRANCH   6   7
BRANCH   4  11
ATOM     11  S   UNL     1       2.626 -10.864   5.645  0.00  0.00    +0.056 S 
ATOM     12  O   UNL     1       3.868 -10.663   6.304  0.00  0.00    -0.153 OA
ATOM     13  O   UNL     1       1.437 -11.202   6.347  0.00  0.00    -0.153 OA
BRANCH  11  14
ATOM     14  N   UNL     1       2.871 -12.060   4.527  0.00  0.00    -0.204 NA
ATOM     15  H   UNL     1       3.469 -12.798   4.729  0.00  0.00    +0.144 HD
ATOM     16  H   UNL     1       2.418 -12.024   3.670  0.00  0.00    +0.144 HD
ENDBRANCH  11  14
ENDBRANCH   4  11
BRANCH   1  17
ATOM     17  N   UNL     1       1.469  -5.880   2.655  0.00  0.00    -0.337 N 
ATOM     18  H   UNL     1       2.195  -5.293   2.393  0.00  0.00    +0.147 HD
BRANCH  17  19
ATOM     19  C   UNL     1       0.087  -5.536   2.312  0.00  0.00    +0.156 C 
BRANCH  19  26
ATOM     20  C   UNL     1      -0.018   1.503   0.010  0.00  0.00    +0.044 C 
ATOM     21  C   UNL     1       0.002  -0.004   0.002  0.00  0.00    -0.046 A 
ATOM     22  C   UNL     1       0.006  -0.703  -1.216  0.00  0.00    +0.021 A 
ATOM     23  C   UNL     1       0.025  -2.052  -1.227  0.00  0.00    +0.093 A 
ATOM     24  N   UNL     1       0.040  -2.757  -0.058  0.00  0.00    -0.308 N 
ATOM     25  C   UNL     1       0.059  -4.097   0.214  0.00  0.00    +0.115 A 
ATOM     26  C   UNL     1       0.067  -4.231   1.559  0.00  0.00    +0.051 A 
ATOM     27  N   UNL     1       0.053  -3.014   2.108  0.00  0.00    -0.342 N 
ATOM     28  C   UNL     1       0.036  -2.103   1.146  0.00  0.00    +0.116 A 
ATOM     29  C   UNL     1       0.023  -0.694   1.174  0.00  0.00    +0.048 A 
ATOM     30  H   UNL     1       0.055  -2.827   3.060  0.00  0.00    +0.167 HD
ENDBRANCH  19  26
ENDBRANCH  17  19
ENDBRANCH   1  17
TORSDOF 6
