REMARK  Name = ZINC23701152
REMARK  14 active torsions:
REMARK  status: ('A' for Active; 'I' for Inactive)
REMARK    1  A    between atoms: C_1  and  C_2
REMARK    2  A    between atoms: C_2  and  C_3
REMARK    3  A    between atoms: C_2  and  C_4
REMARK    4  A    between atoms: C_2  and  C_5
REMARK    5  A    between atoms: C_7  and  C_16
REMARK    6  A    between atoms: C_9  and  C_12
REMARK    7  A    between atoms: C_10  and  O_11
REMARK    8  A    between atoms: C_12  and  C_13
REMARK    9  A    between atoms: C_12  and  C_14
REMARK   10  A    between atoms: C_12  and  C_15
REMARK   11  A    between atoms: C_16  and  C_17
REMARK   12  A    between atoms: C_17  and  C_18
REMARK   13  A    between atoms: N_23  and  C_26
REMARK   14  A    between atoms: C_26  and  C_27
REMARK                            x       y       z     vdW  Elec       q    Type
REMARK                         _______ _______ _______ _____ _____    ______ ____
ROOT
ATOM      1  C   UNL     1       4.272  -0.102   3.255  0.00  0.00    +0.100 C 
ENDROOT
BRANCH   1   2
ATOM      2  C   UNL     1       5.508  -0.951   3.098  0.00  0.00    +0.216 C 
ATOM      3  O   UNL     1       5.411  -2.158   3.036  0.00  0.00    -0.276 OA
ATOM      4  N   UNL     1       6.721  -0.368   3.026  0.00  0.00    -0.305 N 
ATOM      5  C   UNL     1       6.861   1.095   3.093  0.00  0.00    +0.089 C 
ATOM      6  C   UNL     1       7.909   1.430   4.167  0.00  0.00    -0.059 C 
ATOM      7  N   UNL     1       9.150   0.701   3.876  0.00  0.00    +0.387 N 
ATOM      8  C   UNL     1       8.944  -0.752   3.949  0.00  0.00    -0.059 C 
ATOM      9  C   UNL     1       7.939  -1.177   2.873  0.00  0.00    +0.089 C 
ATOM     10  H   UNL     1       9.448   0.945   2.845  0.00  0.00    -0.081 HD
BRANCH   7  11
ATOM     11  C   UNL     1      10.233   1.125   4.774  0.00  0.00    +0.019 C 
BRANCH  11  12
ATOM     12  C   UNL     1      10.581   2.565   4.496  0.00  0.00    +0.199 C 
ATOM     13  O   UNL     1       9.985   3.177   3.634  0.00  0.00    -0.278 OA
ATOM     14  N   UNL     1      11.553   3.172   5.204  0.00  0.00    -0.303 N 
ATOM     15  C   UNL     1      12.346   2.553   6.276  0.00  0.00    +0.108 C 
ATOM     16  C   UNL     1      13.315   3.630   6.810  0.00  0.00    +0.020 C 
ATOM     17  C   UNL     1      12.618   4.954   6.401  0.00  0.00    +0.020 C 
ATOM     18  C   UNL     1      11.993   4.569   5.037  0.00  0.00    +0.108 C 
ENDBRANCH  11  12
ENDBRANCH   7  11
ENDBRANCH   1   2
BRANCH   1  19
ATOM     19  C   UNL     1       3.038  -1.004   3.310  0.00  0.00    +0.044 C 
BRANCH  19  22
ATOM     20  C   UNL     1       0.000   1.080   2.488  0.00  0.00    -0.000 A 
ATOM     21  C   UNL     1       1.133   0.302   2.347  0.00  0.00    +0.011 A 
ATOM     22  C   UNL     1       1.802  -0.156   3.466  0.00  0.00    -0.046 A 
ATOM     23  C   UNL     1       1.340   0.163   4.730  0.00  0.00    +0.011 A 
ATOM     24  C   UNL     1       0.208   0.942   4.876  0.00  0.00    -0.000 A 
ATOM     25  C   UNL     1      -0.463   1.406   3.754  0.00  0.00    +0.124 A 
BRANCH  20  27
ATOM     26  C   UNL     1      -0.013   1.086   0.008  0.00  0.00    +0.015 C 
ATOM     27  C   UNL     1      -0.729   1.579   1.267  0.00  0.00    -0.009 C 
ATOM     28  C   UNL     1      -0.750   3.109   1.275  0.00  0.00    +0.015 C 
ATOM     29  C   UNL     1      -2.164   1.050   1.278  0.00  0.00    +0.015 C 
ENDBRANCH  20  27
BRANCH  24  30
ATOM     30  C   UNL     1      -0.295   1.290   6.253  0.00  0.00    -0.009 C 
ATOM     31  C   UNL     1       0.622   0.662   7.305  0.00  0.00    +0.015 C 
ATOM     32  C   UNL     1      -0.301   2.810   6.425  0.00  0.00    +0.015 C 
ATOM     33  C   UNL     1      -1.716   0.751   6.429  0.00  0.00    +0.015 C 
ENDBRANCH  24  30
BRANCH  25  34
ATOM     34  O   UNL     1      -1.573   2.176   3.896  0.00  0.00    -0.506 OA
ATOM     35  H   UNL     1      -1.939   2.435   4.900  0.00  0.00    +0.292 HD
ENDBRANCH  25  34
ENDBRANCH  19  22
ENDBRANCH   1  19
TORSDOF 8
