REMARK  Name = ZINC36534532
REMARK  12 active torsions:
REMARK  status: ('A' for Active; 'I' for Inactive)
REMARK    1  A    between atoms: C_1  and  C_2
REMARK    2  A    between atoms: C_2  and  C_3
REMARK    3  A    between atoms: C_2  and  C_4
REMARK    4  A    between atoms: C_2  and  N_5
REMARK    5  A    between atoms: C_6  and  C_8
REMARK    6  A    between atoms: C_8  and  C_10
REMARK    7  A    between atoms: C_8  and  N_16
REMARK    8  A    between atoms: N_16  and  C_17
REMARK    9  A    between atoms: C_18  and  C_20
REMARK   10  A    between atoms: C_20  and  C_21
REMARK   11  A    between atoms: C_20  and  C_27
REMARK   12  A    between atoms: C_20  and  O_33
REMARK                            x       y       z     vdW  Elec       q    Type
REMARK                         _______ _______ _______ _____ _____    ______ ____
ROOT
ATOM      1  N   UNL     1       4.066  -0.278  -2.617  0.00  0.00    -0.290 N 
ATOM      2  C   UNL     1       4.884  -0.722  -1.485  0.00  0.00    +0.133 C 
ATOM      3  C   UNL     1       4.659   0.181  -3.737  0.00  0.00    +0.257 C 
ATOM      4  O   UNL     1       5.868   0.174  -3.831  0.00  0.00    -0.272 OA
ENDROOT
BRANCH   1   5
ATOM      5  C   UNL     1       2.605  -0.332  -2.530  0.00  0.00    +0.165 C 
BRANCH   5   6
ATOM      6  C   UNL     1       2.168  -1.756  -2.181  0.00  0.00    +0.018 C 
ATOM      7  C   UNL     1       2.720  -2.730  -3.224  0.00  0.00    +0.006 C 
ATOM      8  C   UNL     1       2.283  -4.154  -2.874  0.00  0.00    +0.000 C 
ATOM      9  C   UNL     1       0.755  -4.230  -2.865  0.00  0.00    +0.000 C 
ATOM     10  C   UNL     1       0.202  -3.256  -1.822  0.00  0.00    +0.000 C 
ATOM     11  C   UNL     1       0.639  -1.832  -2.171  0.00  0.00    +0.006 C 
ENDBRANCH   5   6
BRANCH   5  13
ATOM     12  N   UNL     1       0.863   1.076  -1.481  0.00  0.00    -0.309 N 
ATOM     13  C   UNL     1       2.130   0.616  -1.460  0.00  0.00    +0.234 C 
ATOM     14  O   UNL     1       2.887   0.966  -0.580  0.00  0.00    -0.274 OA
ATOM     15  H   UNL     1       0.277   0.850  -2.221  0.00  0.00    +0.149 HD
BRANCH  12  17
ATOM     16  C   UNL     1       1.221   3.183  -0.294  0.00  0.00    +0.031 C 
ATOM     17  C   UNL     1       0.370   1.916  -0.387  0.00  0.00    +0.026 C 
ATOM     18  C   UNL     1       0.460   1.143   0.930  0.00  0.00    +0.031 C 
ATOM     19  C   UNL     1      -1.087   2.299  -0.654  0.00  0.00    +0.031 C 
ENDBRANCH  12  17
ENDBRANCH   5  13
ENDBRANCH   1   5
BRANCH   3  20
ATOM     20  C   UNL     1       3.818   0.703  -4.874  0.00  0.00    +0.192 C 
BRANCH  20  21
ATOM     21  C   UNL     1       3.163   1.996  -4.462  0.00  0.00    -0.003 A 
ATOM     22  C   UNL     1       3.867   2.919  -3.712  0.00  0.00    +0.007 A 
ATOM     23  C   UNL     1       3.266   4.105  -3.334  0.00  0.00    +0.000 A 
ATOM     24  C   UNL     1       1.961   4.369  -3.707  0.00  0.00    +0.000 A 
ATOM     25  C   UNL     1       1.257   3.446  -4.457  0.00  0.00    +0.000 A 
ATOM     26  C   UNL     1       1.860   2.261  -4.839  0.00  0.00    +0.007 A 
ENDBRANCH  20  21
BRANCH  20  27
ATOM     27  C   UNL     1       4.694   0.944  -6.077  0.00  0.00    -0.003 A 
ATOM     28  C   UNL     1       4.435   0.284  -7.263  0.00  0.00    +0.007 A 
ATOM     29  C   UNL     1       5.239   0.506  -8.366  0.00  0.00    +0.000 A 
ATOM     30  C   UNL     1       6.300   1.387  -8.283  0.00  0.00    +0.000 A 
ATOM     31  C   UNL     1       6.558   2.048  -7.096  0.00  0.00    +0.000 A 
ATOM     32  C   UNL     1       5.752   1.830  -5.994  0.00  0.00    +0.007 A 
ENDBRANCH  20  27
BRANCH  20  33
ATOM     33  O   UNL     1       2.812  -0.257  -5.202  0.00  0.00    -0.371 OA
ATOM     34  H   UNL     1       3.161  -1.127  -5.440  0.00  0.00    +0.212 HD
ENDBRANCH  20  33
ENDBRANCH   3  20
TORSDOF 8
