REMARK  Name = ZINC10435208
REMARK  10 active torsions:
REMARK  status: ('A' for Active; 'I' for Inactive)
REMARK    1  A    between atoms: C_1  and  O_2
REMARK    2  A    between atoms: O_2  and  C_3
REMARK    3  A    between atoms: C_7  and  C_18
REMARK    4  A    between atoms: C_8  and  O_9
REMARK    5  A    between atoms: O_9  and  C_10
REMARK    6  A    between atoms: C_10  and  C_11
REMARK    7  A    between atoms: C_18  and  N_61
REMARK    8  A    between atoms: C_19  and  N_61
REMARK    9  A    between atoms: C_24  and  C_25
REMARK   10  A    between atoms: C_24  and  N_64
REMARK                            x       y       z     vdW  Elec       q    Type
REMARK                         _______ _______ _______ _____ _____    ______ ____
ROOT
ATOM      1  C   UNL     1       3.370   2.320  -0.137  0.00  0.00    -0.043 C 
ENDROOT
BRANCH   1   6
ATOM      2  C   UNL     1      -0.264   1.295  -0.406  0.00  0.00    +0.162 A 
ATOM      3  C   UNL     1      -0.183  -0.064  -0.145  0.00  0.00    +0.049 A 
ATOM      4  C   UNL     1       1.044  -0.645   0.117  0.00  0.00    +0.004 A 
ATOM      5  C   UNL     1       2.191   0.127   0.120  0.00  0.00    +0.005 A 
ATOM      6  C   UNL     1       2.117   1.483  -0.140  0.00  0.00    -0.019 A 
ATOM      7  C   UNL     1       0.891   2.071  -0.403  0.00  0.00    +0.164 A 
BRANCH   2   9
ATOM      8  C   UNL     1      -2.613   1.010  -0.650  0.00  0.00    +0.277 C 
ATOM      9  O   UNL     1      -1.470   1.868  -0.664  0.00  0.00    -0.491 OA
ENDBRANCH   2   9
BRANCH   7  10
ATOM     10  O   UNL     1       0.816   3.405  -0.659  0.00  0.00    -0.484 OA
BRANCH  10  11
ATOM     11  C   UNL     1       0.502   4.260   0.442  0.00  0.00    +0.264 C 
BRANCH  11  12
ATOM     12  C   UNL     1       0.566   5.698  -0.005  0.00  0.00    -0.010 A 
ATOM     13  C   UNL     1       1.752   6.400   0.093  0.00  0.00    +0.010 A 
ATOM     14  C   UNL     1       1.812   7.717  -0.321  0.00  0.00    +0.039 A 
ATOM     15  C   UNL     1       0.681   8.337  -0.824  0.00  0.00    +0.123 A 
ATOM     16  C   UNL     1      -0.508   7.634  -0.917  0.00  0.00    +0.039 A 
ATOM     17  C   UNL     1      -0.565   6.315  -0.507  0.00  0.00    +0.010 A 
ATOM     18  F   UNL     1       0.738   9.626  -1.225  0.00  0.00    -0.205 F 
ENDBRANCH  11  12
ENDBRANCH  10  11
ENDBRANCH   7  10
ENDBRANCH   1   6
BRANCH   1  19
ATOM     19  N   UNL     1       3.764   2.605  -1.529  0.00  0.00    +0.384 N 
ATOM     20  H   UNL     1       3.046   3.191  -1.971  0.00  0.00    -0.085 HD
ATOM     21  H   UNL     1       3.850   1.721  -2.044  0.00  0.00    -0.085 HD
BRANCH  19  22
ATOM     22  C   UNL     1       5.057   3.315  -1.560  0.00  0.00    -0.075 C 
ATOM     23  C   UNL     1       4.821   4.818  -1.393  0.00  0.00    -0.034 C 
ATOM     24  C   UNL     1       6.158   5.555  -1.497  0.00  0.00    -0.080 C 
ATOM     25  C   UNL     1       7.051   3.847  -2.966  0.00  0.00    -0.080 C 
ATOM     26  C   UNL     1       5.740   3.059  -2.907  0.00  0.00    -0.034 C 
ATOM     27  N   UNL     1       6.752   5.288  -2.824  0.00  0.00    +0.382 N 
ATOM     28  H   UNL     1       6.080   5.561  -3.550  0.00  0.00    -0.081 HD
BRANCH  27  29
ATOM     29  C   UNL     1       7.989   6.078  -2.992  0.00  0.00    -0.043 C 
BRANCH  29  30
ATOM     30  C   UNL     1       7.625   7.539  -3.062  0.00  0.00    -0.064 A 
ATOM     31  C   UNL     1       7.337   8.122  -4.281  0.00  0.00    +0.002 A 
ATOM     32  C   UNL     1       6.998   9.461  -4.345  0.00  0.00    +0.000 A 
ATOM     33  C   UNL     1       6.958  10.219  -3.189  0.00  0.00    +0.000 A 
ATOM     34  C   UNL     1       7.252   9.637  -1.970  0.00  0.00    +0.000 A 
ATOM     35  C   UNL     1       7.585   8.297  -1.906  0.00  0.00    +0.002 A 
ENDBRANCH  29  30
ENDBRANCH  27  29
ENDBRANCH  19  22
ENDBRANCH   1  19
TORSDOF 9
