REMARK  Name = ZINC06439216
REMARK  8 active torsions:
REMARK  status: ('A' for Active; 'I' for Inactive)
REMARK    1  A    between atoms: C_1  and  C_2
REMARK    2  A    between atoms: C_2  and  O_3
REMARK    3  A    between atoms: O_3  and  C_4
REMARK    4  A    between atoms: C_4  and  C_6
REMARK    5  A    between atoms: C_8  and  C_20
REMARK    6  A    between atoms: C_14  and  C_15
REMARK    7  A    between atoms: C_14  and  O_19
REMARK    8  A    between atoms: C_24  and  O_26
REMARK                            x       y       z     vdW  Elec       q    Type
REMARK                         _______ _______ _______ _____ _____    ______ ____
ROOT
ATOM      1  C   UNL     1      -3.030   0.796   1.474  0.00  0.00    +0.181 C 
ATOM      2  C   UNL     1      -2.533   1.003   0.040  0.00  0.00    +0.123 C 
ATOM      3  N   UNL     1      -3.538   1.753  -0.714  0.00  0.00    -0.292 N 
ATOM      4  C   UNL     1      -4.843   1.668  -0.413  0.00  0.00    +0.302 C 
ATOM      5  O   UNL     1      -5.638   2.304  -1.077  0.00  0.00    -0.253 OA
ATOM      6  N   UNL     1      -5.305   0.910   0.593  0.00  0.00    -0.264 N 
ATOM      7  C   UNL     1      -4.400   0.112   1.422  0.00  0.00    +0.246 C 
ATOM      8  H   UNL     1      -3.256   2.323  -1.446  0.00  0.00    +0.151 HD
ATOM      9  H   UNL     1      -6.257   0.891   0.775  0.00  0.00    +0.153 HD
ENDROOT
BRANCH   2  10
ATOM     10  C   UNL     1      -1.239   1.776   0.062  0.00  0.00    -0.023 A 
ATOM     11  C   UNL     1      -0.032   1.104   0.020  0.00  0.00    +0.006 A 
ATOM     12  C   UNL     1       1.157   1.810   0.046  0.00  0.00    +0.004 A 
ATOM     13  C   UNL     1       1.140   3.190   0.108  0.00  0.00    +0.045 A 
ATOM     14  C   UNL     1      -0.070   3.867   0.144  0.00  0.00    +0.117 A 
ATOM     15  C   UNL     1      -1.261   3.156   0.119  0.00  0.00    +0.051 A 
BRANCH  14  16
ATOM     16  O   UNL     1      -0.089   5.225   0.206  0.00  0.00    -0.507 OA
ATOM     17  H   UNL     1      -0.090   5.578   1.106  0.00  0.00    +0.292 HD
ENDBRANCH  14  16
ENDBRANCH   2  10
BRANCH   7  18
ATOM     18  C   UNL     1      -4.970  -0.001   2.838  0.00  0.00    +0.436 C 
ATOM     19  F   UNL     1      -6.161  -0.735   2.804  0.00  0.00    -0.166 F 
ATOM     20  F   UNL     1      -4.045  -0.651   3.662  0.00  0.00    -0.166 F 
ATOM     21  F   UNL     1      -5.224   1.279   3.341  0.00  0.00    -0.166 F 
ENDBRANCH   7  18
BRANCH   1  22
ATOM     22  C   UNL     1      -3.157   2.131   2.163  0.00  0.00    +0.317 C 
ATOM     23  O   UNL     1      -3.964   2.939   1.770  0.00  0.00    -0.250 OA
BRANCH  22  24
ATOM     24  O   UNL     1      -2.374   2.421   3.214  0.00  0.00    -0.465 OA
BRANCH  24  26
ATOM     25  C   UNL     1      -1.580   3.872   5.001  0.00  0.00    +0.048 C 
ATOM     26  C   UNL     1      -2.552   3.724   3.828  0.00  0.00    +0.229 C 
ENDBRANCH  24  26
ENDBRANCH  22  24
ENDBRANCH   1  22
BRANCH   7  27
ATOM     27  O   UNL     1      -4.262  -1.193   0.857  0.00  0.00    -0.364 OA
ATOM     28  H   UNL     1      -5.093  -1.683   0.790  0.00  0.00    +0.212 HD
ENDBRANCH   7  27
TORSDOF 7
