REMARK  Name = ZINC00650300
REMARK  11 active torsions:
REMARK  status: ('A' for Active; 'I' for Inactive)
REMARK    1  A    between atoms: C_1  and  C_2
REMARK    2  A    between atoms: C_3  and  C_32
REMARK    3  A    between atoms: C_4  and  C_25
REMARK    4  A    between atoms: C_10  and  C_15
REMARK    5  A    between atoms: C_18  and  O_23
REMARK    6  A    between atoms: C_19  and  O_21
REMARK    7  A    between atoms: O_21  and  C_22
REMARK    8  A    between atoms: O_23  and  C_24
REMARK    9  A    between atoms: C_29  and  O_31
REMARK   10  A    between atoms: C_32  and  O_34
REMARK   11  A    between atoms: O_34  and  C_35
REMARK                            x       y       z     vdW  Elec       q    Type
REMARK                         _______ _______ _______ _____ _____    ______ ____
ROOT
ATOM      1  C   UNL     1      -2.739   6.759  -2.395  0.00  0.00    +0.061 C 
ATOM      2  C   UNL     1      -2.054   6.284  -1.139  0.00  0.00    +0.016 C 
ATOM      3  C   UNL     1      -0.788   5.838  -1.197  0.00  0.00    +0.065 C 
ATOM      4  C   UNL     1      -0.076   5.351   0.030  0.00  0.00    +0.092 C 
ATOM      5  C   UNL     1      -0.769   5.828   1.282  0.00  0.00    +0.024 C 
ATOM      6  C   UNL     1      -2.043   6.272   1.238  0.00  0.00    +0.016 C 
ATOM      7  N   UNL     1      -2.725   6.310   0.051  0.00  0.00    -0.321 N 
ATOM      8  C   UNL     1      -2.747   6.738   2.488  0.00  0.00    +0.059 C 
ATOM      9  C   UNL     1      -1.726   7.338   3.458  0.00  0.00    +0.032 C 
ATOM     10  C   UNL     1      -0.673   6.272   3.776  0.00  0.00    +0.088 C 
ATOM     11  C   UNL     1      -0.051   5.799   2.490  0.00  0.00    +0.162 C 
ATOM     12  O   UNL     1       1.091   5.385   2.497  0.00  0.00    -0.292 OA
ATOM     13  H   UNL     1      -3.824   6.362   0.062  0.00  0.00    +0.152 HD
ENDROOT
BRANCH   9  14
ATOM     14  C   UNL     1      -2.422   7.762   4.726  0.00  0.00    -0.040 A 
ATOM     15  C   UNL     1      -3.097   6.826   5.489  0.00  0.00    +0.008 A 
ATOM     16  C   UNL     1      -3.737   7.210   6.652  0.00  0.00    +0.049 A 
ATOM     17  C   UNL     1      -3.703   8.535   7.057  0.00  0.00    +0.161 A 
ATOM     18  C   UNL     1      -3.023   9.476   6.290  0.00  0.00    +0.162 A 
ATOM     19  C   UNL     1      -2.380   9.084   5.127  0.00  0.00    +0.053 A 
BRANCH  18  20
ATOM     20  O   UNL     1      -2.987  10.778   6.683  0.00  0.00    -0.491 OA
ATOM     21  C   UNL     1      -2.271  11.689   5.846  0.00  0.00    +0.277 C 
ENDBRANCH  18  20
BRANCH  17  22
ATOM     22  O   UNL     1      -4.332   8.914   8.202  0.00  0.00    -0.491 OA
ATOM     23  C   UNL     1      -5.009   7.894   8.938  0.00  0.00    +0.277 C 
ENDBRANCH  17  22
ENDBRANCH   9  14
BRANCH   4  24
ATOM     24  C   UNL     1      -0.051   3.844   0.022  0.00  0.00    -0.032 A 
ATOM     25  C   UNL     1      -1.237   3.133   0.030  0.00  0.00    +0.005 A 
ATOM     26  C   UNL     1      -1.218   1.751   0.017  0.00  0.00    +0.004 A 
ATOM     27  C   UNL     1      -0.013   1.076   0.008  0.00  0.00    +0.045 A 
ATOM     28  C   UNL     1       1.179   1.786   0.000  0.00  0.00    +0.117 A 
ATOM     29  C   UNL     1       1.157   3.174   0.008  0.00  0.00    +0.050 A 
BRANCH  28  30
ATOM     30  O   UNL     1       2.366   1.125  -0.014  0.00  0.00    -0.507 OA
ATOM     31  H   UNL     1       3.310   1.689  -0.020  0.00  0.00    +0.292 HD
ENDBRANCH  28  30
ENDBRANCH   4  24
BRANCH   3  32
ATOM     32  C   UNL     1      -0.114   5.828  -2.441  0.00  0.00    +0.338 C 
ATOM     33  O   UNL     1      -0.681   6.221  -3.443  0.00  0.00    -0.245 OA
BRANCH  32  34
ATOM     34  O   UNL     1       1.158   5.383  -2.515  0.00  0.00    -0.458 OA
BRANCH  34  35
ATOM     35  C   UNL     1       1.777   5.401  -3.803  0.00  0.00    +0.177 C 
ATOM     36  C   UNL     1       1.566   4.046  -4.510  0.00  0.00    +0.044 C 
ATOM     37  C   UNL     1       2.896   3.802  -5.267  0.00  0.00    +0.004 C 
ATOM     38  C   UNL     1       3.958   4.340  -4.276  0.00  0.00    +0.004 C 
ATOM     39  C   UNL     1       3.297   5.588  -3.654  0.00  0.00    +0.044 C 
ENDBRANCH  34  35
ENDBRANCH  32  34
ENDBRANCH   3  32
TORSDOF 8
