REMARK  Name = ZINC64053556
REMARK  10 active torsions:
REMARK  status: ('A' for Active; 'I' for Inactive)
REMARK    1  A    between atoms: C_1  and  C_2
REMARK    2  A    between atoms: C_2  and  O_3
REMARK    3  A    between atoms: O_3  and  C_4
REMARK    4  A    between atoms: C_9  and  N_12
REMARK    5  A    between atoms: C_13  and  C_15
REMARK    6  A    between atoms: N_21  and  C_24
REMARK    7  A    between atoms: C_24  and  C_26
REMARK    8  A    between atoms: C_24  and  C_27
REMARK    9  A    between atoms: C_27  and  C_28
REMARK   10  A    between atoms: C_28  and  C_29
REMARK                            x       y       z     vdW  Elec       q    Type
REMARK                         _______ _______ _______ _____ _____    ______ ____
ROOT
ATOM      1  C   UNL     1      -7.747  -5.558   3.306  0.00  0.00    +0.082 C 
ATOM      2  C   UNL     1      -7.665  -6.891   4.054  0.00  0.00    +0.020 C 
ATOM      3  C   UNL     1      -8.827  -6.619   3.099  0.00  0.00    -0.021 C 
ATOM      4  C   UNL     1      -8.846  -7.367   1.762  0.00  0.00    -0.011 C 
ATOM      5  C   UNL     1      -9.830  -6.661   0.822  0.00  0.00    -0.078 C 
ATOM      6  N   UNL     1     -11.151  -6.593   1.457  0.00  0.00    +0.381 N 
ATOM      7  C   UNL     1     -11.102  -5.722   2.637  0.00  0.00    -0.078 C 
ATOM      8  C   UNL     1     -10.209  -6.361   3.707  0.00  0.00    -0.011 C 
ATOM      9  H   UNL     1     -11.436  -7.519   1.736  0.00  0.00    -0.081 HD
ENDROOT
BRANCH   1  11
ATOM     10  N   UNL     1      -7.086  -4.492   1.174  0.00  0.00    -0.312 N 
ATOM     11  C   UNL     1      -6.770  -5.330   2.182  0.00  0.00    +0.217 C 
ATOM     12  O   UNL     1      -5.700  -5.900   2.183  0.00  0.00    -0.275 OA
ATOM     13  H   UNL     1      -7.942  -4.036   1.173  0.00  0.00    +0.149 HD
BRANCH  10  19
ATOM     14  C   UNL     1      -4.579  -1.599  -2.623  0.00  0.00    +0.403 C 
ATOM     15  O   UNL     1      -3.710  -0.831  -2.257  0.00  0.00    -0.226 OA
ATOM     16  N   UNL     1      -4.861  -2.695  -1.892  0.00  0.00    -0.267 N 
ATOM     17  C   UNL     1      -5.904  -3.635  -2.324  0.00  0.00    +0.113 C 
ATOM     18  C   UNL     1      -6.896  -3.833  -1.173  0.00  0.00    +0.041 C 
ATOM     19  C   UNL     1      -6.136  -4.270   0.081  0.00  0.00    +0.076 C 
ATOM     20  C   UNL     1      -5.142  -3.179   0.483  0.00  0.00    +0.041 C 
ATOM     21  C   UNL     1      -4.126  -2.977  -0.651  0.00  0.00    +0.113 C 
BRANCH  14  22
ATOM     22  O   UNL     1      -5.261  -1.353  -3.758  0.00  0.00    -0.451 OA
BRANCH  22  24
ATOM     23  C   UNL     1      -5.784  -0.063  -5.733  0.00  0.00    +0.048 C 
ATOM     24  C   UNL     1      -4.910  -0.172  -4.482  0.00  0.00    +0.230 C 
ENDBRANCH  22  24
ENDBRANCH  14  22
ENDBRANCH  10  19
ENDBRANCH   1  11
BRANCH   6  25
ATOM     25  C   UNL     1     -12.125  -6.056   0.497  0.00  0.00    -0.071 C 
ATOM     26  C   UNL     1     -11.619  -4.720  -0.050  0.00  0.00    -0.013 C 
BRANCH  25  27
ATOM     27  C   UNL     1     -12.302  -7.045  -0.657  0.00  0.00    -0.011 C 
BRANCH  27  28
ATOM     28  C   UNL     1     -12.932  -8.336  -0.131  0.00  0.00    +0.031 C 
BRANCH  28  29
ATOM     29  C   UNL     1     -13.221  -9.261  -1.284  0.00  0.00    -0.042 C 
ATOM     30  C   UNL     1     -12.436 -10.263  -1.740  0.00  0.00    -0.001 A 
ATOM     31  C   UNL     1     -11.126 -10.771  -1.315  0.00  0.00    +0.010 A 
ATOM     32  C   UNL     1     -10.578 -11.812  -1.983  0.00  0.00    +0.001 A 
ATOM     33  C   UNL     1     -11.228 -12.415  -3.069  0.00  0.00    +0.002 A 
ATOM     34  C   UNL     1     -12.433 -12.004  -3.518  0.00  0.00    +0.026 A 
ATOM     35  C   UNL     1     -13.101 -10.918  -2.889  0.00  0.00    +0.043 A 
ATOM     36  N   UNL     1     -14.254 -10.343  -3.134  0.00  0.00    -0.380 N 
ATOM     37  C   UNL     1     -14.452  -9.261  -2.163  0.00  0.00    +0.144 C 
ATOM     38  H   UNL     1     -14.873 -10.593  -3.837  0.00  0.00    +0.160 HD
ENDBRANCH  28  29
ENDBRANCH  27  28
ENDBRANCH  25  27
ENDBRANCH   6  25
TORSDOF 8
