REMARK  Name = ZINC36073556
REMARK  14 active torsions:
REMARK  status: ('A' for Active; 'I' for Inactive)
REMARK    1  A    between atoms: C_1  and  C_2
REMARK    2  A    between atoms: C_2  and  O_3
REMARK    3  A    between atoms: O_3  and  C_4
REMARK    4  A    between atoms: C_4  and  C_6
REMARK    5  A    between atoms: C_13  and  C_15
REMARK    6  A    between atoms: C_18  and  C_20
REMARK    7  A    between atoms: C_20  and  N_21
REMARK    8  A    between atoms: N_21  and  C_22
REMARK    9  A    between atoms: N_21  and  C_31
REMARK   10  A    between atoms: C_22  and  C_23
REMARK   11  A    between atoms: C_27  and  O_29
REMARK   12  A    between atoms: O_29  and  C_30
REMARK   13  A    between atoms: C_31  and  C_33
REMARK   14  A    between atoms: C_31  and  C_34
REMARK                            x       y       z     vdW  Elec       q    Type
REMARK                         _______ _______ _______ _____ _____    ______ ____
ROOT
ATOM      1  C   UNL     1      -9.953  -5.340  -1.538  0.00  0.00    +0.020 C 
ENDROOT
BRANCH   1   5
ATOM      2  C   UNL     1     -11.079  -1.986  -0.760  0.00  0.00    +0.164 A 
ATOM      3  C   UNL     1     -12.232  -2.526  -1.240  0.00  0.00    +0.230 A 
ATOM      4  O   UNL     1     -11.959  -3.797  -1.576  0.00  0.00    -0.449 OA
ATOM      5  C   UNL     1     -10.667  -4.033  -1.308  0.00  0.00    +0.179 A 
ATOM      6  N   UNL     1     -10.126  -2.955  -0.824  0.00  0.00    -0.210 NA
BRANCH   2  13
ATOM      7  C   UNL     1      -7.427  -0.429  -0.904  0.00  0.00    +0.115 C 
ATOM      8  C   UNL     1      -7.106   0.974  -0.385  0.00  0.00    +0.018 C 
ATOM      9  C   UNL     1      -8.363   1.845  -0.452  0.00  0.00    +0.020 C 
ATOM     10  C   UNL     1      -9.449   1.236   0.440  0.00  0.00    +0.108 C 
ATOM     11  N   UNL     1      -9.661  -0.162   0.040  0.00  0.00    -0.295 N 
ATOM     12  C   UNL     1      -8.503  -1.064  -0.018  0.00  0.00    +0.122 C 
ATOM     13  C   UNL     1     -10.895  -0.608  -0.268  0.00  0.00    +0.268 C 
ATOM     14  O   UNL     1     -11.856   0.126  -0.141  0.00  0.00    -0.268 OA
BRANCH   7  15
ATOM     15  C   UNL     1      -6.181  -1.276  -0.867  0.00  0.00    +0.312 C 
ATOM     16  O   UNL     1      -5.142  -0.806  -0.468  0.00  0.00    -0.250 OA
BRANCH  15  17
ATOM     17  O   UNL     1      -6.226  -2.553  -1.278  0.00  0.00    -0.465 OA
BRANCH  17  19
ATOM     18  C   UNL     1      -5.253  -4.721  -1.721  0.00  0.00    +0.048 C 
ATOM     19  C   UNL     1      -5.007  -3.298  -1.216  0.00  0.00    +0.229 C 
ENDBRANCH  17  19
ENDBRANCH  15  17
ENDBRANCH   7  15
ENDBRANCH   2  13
ENDBRANCH   1   5
BRANCH   1  20
ATOM     20  N   UNL     1     -10.338  -6.298  -0.494  0.00  0.00    +0.393 N 
ATOM     21  H   UNL     1     -11.318  -6.187  -0.279  0.00  0.00    -0.080 HD
BRANCH  20  22
ATOM     22  C   UNL     1      -9.541  -6.052   0.715  0.00  0.00    -0.040 C 
ATOM     23  C   UNL     1      -9.168  -4.569   0.786  0.00  0.00    -0.008 C 
BRANCH  22  24
ATOM     24  C   UNL     1     -10.346  -6.426   1.933  0.00  0.00    -0.061 A 
ATOM     25  C   UNL     1     -11.664  -6.023   2.041  0.00  0.00    +0.002 A 
ATOM     26  C   UNL     1     -12.403  -6.366   3.157  0.00  0.00    +0.000 A 
ATOM     27  C   UNL     1     -11.824  -7.112   4.166  0.00  0.00    +0.000 A 
ATOM     28  C   UNL     1     -10.506  -7.516   4.058  0.00  0.00    +0.000 A 
ATOM     29  C   UNL     1      -9.769  -7.177   2.939  0.00  0.00    +0.002 A 
ENDBRANCH  22  24
ENDBRANCH  20  22
BRANCH  20  30
ATOM     30  C   UNL     1     -10.094  -7.666  -0.970  0.00  0.00    -0.041 C 
BRANCH  30  31
ATOM     31  C   UNL     1     -10.599  -8.652   0.051  0.00  0.00    -0.060 A 
ATOM     32  C   UNL     1      -9.718  -9.235   0.944  0.00  0.00    +0.002 A 
ATOM     33  C   UNL     1     -10.179 -10.139   1.883  0.00  0.00    +0.004 A 
ATOM     34  C   UNL     1     -11.521 -10.464   1.931  0.00  0.00    +0.045 A 
ATOM     35  C   UNL     1     -12.407  -9.881   1.036  0.00  0.00    +0.120 A 
ATOM     36  C   UNL     1     -11.943  -8.968   0.099  0.00  0.00    +0.047 A 
BRANCH  35  37
ATOM     37  O   UNL     1     -13.727 -10.198   1.082  0.00  0.00    -0.495 OA
ATOM     38  C   UNL     1     -14.134 -11.140   2.076  0.00  0.00    +0.277 C 
ENDBRANCH  35  37
ENDBRANCH  30  31
ENDBRANCH  20  30
ENDBRANCH   1  20
TORSDOF 11
