REMARK  Name = ZINC13064731
REMARK  13 active torsions:
REMARK  status: ('A' for Active; 'I' for Inactive)
REMARK    1  A    between atoms: C_1  and  C_2
REMARK    2  A    between atoms: C_2  and  C_3
REMARK    3  A    between atoms: C_3  and  C_5
REMARK    4  A    between atoms: C_3  and  N_69
REMARK    5  A    between atoms: N_9  and  C_10
REMARK    6  A    between atoms: C_10  and  C_11
REMARK    7  A    between atoms: C_11  and  C_12
REMARK    8  A    between atoms: C_18  and  C_19
REMARK    9  A    between atoms: C_18  and  N_69
REMARK   10  A    between atoms: C_24  and  C_25
REMARK   11  A    between atoms: C_24  and  N_69
REMARK   12  A    between atoms: C_29  and  C_38
REMARK   13  A    between atoms: C_30  and  C_37
REMARK                            x       y       z     vdW  Elec       q    Type
REMARK                         _______ _______ _______ _____ _____    ______ ____
ROOT
ATOM      1  N   UNL     1      -5.634   3.612  -1.308  0.00  0.00    +0.392 N 
ATOM      2  H   UNL     1      -5.488   2.635  -1.589  0.00  0.00    -0.080 HD
ENDROOT
BRANCH   1   3
ATOM      3  C   UNL     1      -6.946   4.067  -1.816  0.00  0.00    +0.003 C 
BRANCH   3   4
ATOM      4  C   UNL     1      -7.181   3.443  -3.167  0.00  0.00    +0.138 A 
ATOM      5  N   UNL     1      -6.322   3.367  -4.154  0.00  0.00    -0.115 NA
ATOM      6  N   UNL     1      -6.897   2.765  -5.137  0.00  0.00    -0.023 NA
ATOM      7  N   UNL     1      -8.101   2.454  -4.803  0.00  0.00    -0.044 NA
ATOM      8  N   UNL     1      -8.312   2.851  -3.593  0.00  0.00    -0.231 N 
BRANCH   8   9
ATOM      9  C   UNL     1      -9.551   2.691  -2.829  0.00  0.00    +0.152 C 
BRANCH   9  10
ATOM     10  C   UNL     1     -10.456   3.902  -3.065  0.00  0.00    +0.058 C 
BRANCH  10  11
ATOM     11  C   UNL     1     -11.731   3.737  -2.279  0.00  0.00    -0.046 A 
ATOM     12  C   UNL     1     -12.821   3.108  -2.852  0.00  0.00    +0.004 A 
ATOM     13  C   UNL     1     -13.989   2.952  -2.129  0.00  0.00    +0.000 A 
ATOM     14  C   UNL     1     -14.070   3.435  -0.836  0.00  0.00    +0.000 A 
ATOM     15  C   UNL     1     -12.983   4.068  -0.264  0.00  0.00    +0.000 A 
ATOM     16  C   UNL     1     -11.813   4.219  -0.986  0.00  0.00    +0.004 A 
ENDBRANCH  10  11
ENDBRANCH   9  10
ENDBRANCH   8   9
ENDBRANCH   3   4
BRANCH   3  18
ATOM     17  C   UNL     1      -6.867   6.223  -0.557  0.00  0.00    +0.002 C 
ATOM     18  C   UNL     1      -6.969   5.591  -1.946  0.00  0.00    -0.011 C 
ENDBRANCH   3  18
ENDBRANCH   1   3
BRANCH   1  19
ATOM     19  C   UNL     1      -4.554   4.443  -1.881  0.00  0.00    -0.034 C 
BRANCH  19  20
ATOM     20  C   UNL     1      -3.244   3.720  -1.708  0.00  0.00    -0.027 A 
ATOM     21  C   UNL     1      -2.633   2.849  -2.547  0.00  0.00    +0.009 A 
ATOM     22  C   UNL     1      -1.419   2.301  -2.177  0.00  0.00    +0.008 A 
ATOM     23  C   UNL     1      -0.875   2.652  -0.986  0.00  0.00    +0.045 A 
ATOM     24  S   UNL     1      -2.090   3.794  -0.348  0.00  0.00    -0.103 S 
ENDBRANCH  19  20
ENDBRANCH   1  19
BRANCH   1  25
ATOM     25  C   UNL     1      -5.607   3.696   0.168  0.00  0.00    -0.036 C 
BRANCH  25  26
ATOM     26  C   UNL     1      -6.334   2.502   0.732  0.00  0.00    +0.001 A 
ATOM     27  C   UNL     1      -5.646   1.375   1.038  0.00  0.00    +0.017 A 
ATOM     28  C   UNL     1      -6.382   0.232   1.581  0.00  0.00    -0.001 A 
ATOM     29  C   UNL     1      -5.730  -0.964   1.900  0.00  0.00    +0.013 A 
ATOM     30  C   UNL     1      -6.446  -2.012   2.404  0.00  0.00    -0.047 A 
ATOM     31  C   UNL     1      -7.816  -1.902   2.602  0.00  0.00    -0.046 A 
ATOM     32  C   UNL     1      -8.479  -0.734   2.294  0.00  0.00    +0.030 A 
ATOM     33  C   UNL     1      -7.772   0.345   1.775  0.00  0.00    +0.049 A 
ATOM     34  N   UNL     1      -8.411   1.524   1.453  0.00  0.00    -0.322 N 
ATOM     35  H   UNL     1      -9.368   1.602   1.591  0.00  0.00    +0.169 HD
ATOM     36  C   UNL     1      -7.727   2.567   0.951  0.00  0.00    +0.251 A 
ATOM     37  O   UNL     1      -8.324   3.593   0.677  0.00  0.00    -0.268 OA
ATOM     38  C   UNL     1      -8.585  -3.072   3.159  0.00  0.00    +0.044 C 
ATOM     39  C   UNL     1      -5.742  -3.300   2.748  0.00  0.00    +0.044 C 
ENDBRANCH  25  26
ENDBRANCH   1  25
TORSDOF 10
