REMARK  Name = ZINC19961505
REMARK  2 active torsions:
REMARK  status: ('A' for Active; 'I' for Inactive)
REMARK    1  A    between atoms: C_10  and  C_11
REMARK    2  A    between atoms: C_24  and  C_26
REMARK                            x       y       z     vdW  Elec       q    Type
REMARK                         _______ _______ _______ _____ _____    ______ ____
ROOT
ATOM      1  C   UNL     1       3.648   2.279  -0.021  0.00  0.00    +0.084 C 
ATOM      2  C   UNL     1       3.736   3.059  -1.305  0.00  0.00    +0.066 A 
ATOM      3  C   UNL     1       4.409   2.530  -2.410  0.00  0.00    +0.258 A 
ATOM      4  O   UNL     1       4.940   1.433  -2.349  0.00  0.00    -0.267 OA
ATOM      5  N   UNL     1       4.458   3.258  -3.547  0.00  0.00    -0.295 N 
ATOM      6  H   UNL     1       4.988   2.866  -4.428  0.00  0.00    +0.172 HD
ATOM      7  C   UNL     1       3.852   4.475  -3.604  0.00  0.00    +0.200 A 
ATOM      8  N   UNL     1       3.219   4.977  -2.564  0.00  0.00    -0.200 NA
ATOM      9  C   UNL     1       3.151   4.309  -1.407  0.00  0.00    +0.138 A 
ATOM     10  N   UNL     1       2.503   4.867  -0.319  0.00  0.00    -0.269 N 
ATOM     11  C   UNL     1       2.659   4.355   0.914  0.00  0.00    +0.236 C 
ATOM     12  O   UNL     1       1.999   4.791   1.833  0.00  0.00    -0.274 OA
ATOM     13  C   UNL     1       3.644   3.244   1.166  0.00  0.00    +0.189 C 
ATOM     14  N   UNL     1       3.900   5.192  -4.769  0.00  0.00    -0.301 N 
ATOM     15  C   UNL     1       5.277   5.297  -5.266  0.00  0.00    +0.108 C 
ATOM     16  C   UNL     1       5.276   5.976  -6.638  0.00  0.00    +0.019 C 
ATOM     17  C   UNL     1       4.651   7.369  -6.512  0.00  0.00    +0.003 C 
ATOM     18  C   UNL     1       3.235   7.235  -5.947  0.00  0.00    +0.019 C 
ATOM     19  C   UNL     1       3.295   6.519  -4.595  0.00  0.00    +0.108 C 
ATOM     20  H   UNL     1       1.851   5.742  -0.457  0.00  0.00    +0.156 HD
ENDROOT
BRANCH   1  30
ATOM     21  C   UNL     1       2.472  -2.657   0.655  0.00  0.00    +0.001 A 
ATOM     22  C   UNL     1       3.657  -1.922   0.652  0.00  0.00    +0.001 A 
ATOM     23  C   UNL     1       3.648  -0.579   0.437  0.00  0.00    +0.009 A 
ATOM     24  C   UNL     1       2.428   0.082   0.214  0.00  0.00    -0.014 A 
ATOM     25  C   UNL     1       1.223  -0.665   0.217  0.00  0.00    -0.018 A 
ATOM     26  C   UNL     1       1.272  -2.051   0.443  0.00  0.00    +0.008 A 
ATOM     27  C   UNL     1       0.003  -0.005  -0.006  0.00  0.00    +0.008 A 
ATOM     28  C   UNL     1      -0.006   1.339  -0.222  0.00  0.00    +0.001 A 
ATOM     29  C   UNL     1       1.178   2.073  -0.225  0.00  0.00    +0.005 A 
ATOM     30  C   UNL     1       2.378   1.468  -0.012  0.00  0.00    -0.030 A 
ENDBRANCH   1  30
BRANCH  13  31
ATOM     31  C   UNL     1       4.990   3.813   1.340  0.00  0.00    +0.076 C 
ATOM     32  N   UNL     1       6.029   4.252   1.474  0.00  0.00    -0.196 NA
ENDBRANCH  13  31
TORSDOF 2
