REMARK  Name = ZINC16740525
REMARK  8 active torsions:
REMARK  status: ('A' for Active; 'I' for Inactive)
REMARK    1  A    between atoms: C_1  and  C_2
REMARK    2  A    between atoms: C_2  and  C_3
REMARK    3  A    between atoms: C_3  and  C_4
REMARK    4  A    between atoms: C_4  and  N_5
REMARK    5  A    between atoms: N_5  and  S_6
REMARK    6  A    between atoms: S_6  and  C_9
REMARK    7  A    between atoms: C_19  and  C_21
REMARK    8  A    between atoms: C_21  and  N_22
REMARK                            x       y       z     vdW  Elec       q    Type
REMARK                         _______ _______ _______ _____ _____    ______ ____
ROOT
ATOM      1  C   UNL     1       0.481  -5.083  -2.569  0.00  0.00    +0.106 A 
ATOM      2  C   UNL     1      -0.048  -5.543  -1.372  0.00  0.00    +0.030 A 
ATOM      3  C   UNL     1      -1.171  -6.328  -1.340  0.00  0.00    +0.031 A 
ATOM      4  C   UNL     1      -1.829  -6.697  -2.536  0.00  0.00    +0.080 A 
ATOM      5  C   UNL     1      -1.262  -6.210  -3.736  0.00  0.00    +0.043 A 
ATOM      6  C   UNL     1      -0.140  -5.419  -3.758  0.00  0.00    +0.045 A 
ATOM      7  S   UNL     1      -2.353  -6.878  -4.968  0.00  0.00    -0.052 S 
ATOM      8  C   UNL     1      -3.457  -7.732  -3.851  0.00  0.00    +0.165 A 
ATOM      9  N   UNL     1      -2.936  -7.457  -2.678  0.00  0.00    -0.225 NA
ATOM     10  N   UNL     1      -4.577  -8.491  -4.148  0.00  0.00    -0.266 N 
ATOM     11  C   UNL     1      -5.288  -9.061  -3.155  0.00  0.00    +0.202 C 
ATOM     12  O   UNL     1      -4.946  -8.910  -2.001  0.00  0.00    -0.277 OA
ATOM     13  H   UNL     1      -4.851  -8.612  -5.071  0.00  0.00    +0.157 HD
ENDROOT
BRANCH   1  14
ATOM     14  S   UNL     1       1.926  -4.075  -2.574  0.00  0.00    +0.058 S 
ATOM     15  O   UNL     1       2.523  -4.227  -3.855  0.00  0.00    -0.153 OA
ATOM     16  O   UNL     1       2.624  -4.359  -1.370  0.00  0.00    -0.153 OA
BRANCH  14  17
ATOM     17  N   UNL     1       1.425  -2.500  -2.470  0.00  0.00    -0.190 NA
ATOM     18  H   UNL     1       1.585  -1.890  -3.208  0.00  0.00    +0.148 HD
BRANCH  17  19
ATOM     19  C   UNL     1       0.739  -2.027  -1.265  0.00  0.00    +0.106 C 
BRANCH  19  20
ATOM     20  C   UNL     1       0.718  -0.497  -1.257  0.00  0.00    +0.017 C 
BRANCH  20  22
ATOM     21  C   UNL     1      -0.019   1.526   0.010  0.00  0.00    +0.004 C 
ATOM     22  C   UNL     1       0.002  -0.004   0.002  0.00  0.00    -0.002 C 
ENDBRANCH  20  22
ENDBRANCH  19  20
ENDBRANCH  17  19
ENDBRANCH  14  17
ENDBRANCH   1  14
BRANCH  11  23
ATOM     23  C   UNL     1      -6.506  -9.887  -3.477  0.00  0.00    +0.019 C 
BRANCH  23  24
ATOM     24  N   UNL     1      -7.098 -10.393  -2.232  0.00  0.00    +0.385 N 
ATOM     25  C   UNL     1      -6.108 -11.250  -1.551  0.00  0.00    -0.078 C 
ATOM     26  C   UNL     1      -6.432 -11.270  -0.078  0.00  0.00    -0.019 C 
ATOM     27  C   UNL     1      -7.279 -12.500   0.295  0.00  0.00    -0.002 C 
ATOM     28  C   UNL     1      -8.359 -12.796  -0.765  0.00  0.00    -0.002 C 
ATOM     29  C   UNL     1      -9.024 -11.541  -1.273  0.00  0.00    -0.019 C 
ATOM     30  C   UNL     1      -8.287 -11.058  -2.540  0.00  0.00    -0.078 C 
ATOM     31  H   UNL     1      -7.312  -9.610  -1.634  0.00  0.00    -0.081 HD
ENDBRANCH  23  24
ENDBRANCH  11  23
TORSDOF 7
