REMARK  Name = ZINC39638551
REMARK  9 active torsions:
REMARK  status: ('A' for Active; 'I' for Inactive)
REMARK    1  A    between atoms: C_1  and  C_2
REMARK    2  A    between atoms: C_2  and  O_3
REMARK    3  A    between atoms: O_3  and  C_4
REMARK    4  A    between atoms: C_9  and  C_10
REMARK    5  A    between atoms: C_10  and  N_11
REMARK    6  A    between atoms: C_12  and  C_14
REMARK    7  A    between atoms: C_25  and  C_27
REMARK    8  A    between atoms: C_31  and  O_33
REMARK    9  A    between atoms: O_33  and  C_34
REMARK                            x       y       z     vdW  Elec       q    Type
REMARK                         _______ _______ _______ _____ _____    ______ ____
ROOT
ATOM      1  C   UNL     1      -5.249   0.747  -2.477  0.00  0.00    +0.100 C 
ATOM      2  C   UNL     1      -4.175   1.545  -3.250  0.00  0.00    +0.121 C 
ATOM      3  N   UNL     1      -4.942   2.530  -4.047  0.00  0.00    -0.296 N 
ATOM      4  C   UNL     1      -6.030   2.970  -3.142  0.00  0.00    +0.115 C 
ATOM      5  C   UNL     1      -6.465   1.686  -2.408  0.00  0.00    -0.004 C 
ATOM      6  C   UNL     1      -7.661   1.054  -3.113  0.00  0.00    -0.010 C 
ATOM      7  C   UNL     1      -8.873   1.981  -2.981  0.00  0.00    -0.082 C 
ATOM      8  N   UNL     1      -9.174   2.196  -1.561  0.00  0.00    +0.379 N 
ATOM      9  C   UNL     1      -8.055   2.888  -0.910  0.00  0.00    -0.082 C 
ATOM     10  C   UNL     1      -6.808   2.000  -0.955  0.00  0.00    -0.010 C 
ATOM     11  C   UNL     1      -4.705   2.935  -5.311  0.00  0.00    +0.247 C 
ATOM     12  O   UNL     1      -3.846   2.387  -5.973  0.00  0.00    -0.270 OA
ATOM     13  H   UNL     1     -10.009   2.757  -1.477  0.00  0.00    -0.086 HD
ATOM     14  H   UNL     1      -9.324   1.306  -1.111  0.00  0.00    -0.086 HD
ENDROOT
BRANCH  11  15
ATOM     15  C   UNL     1      -5.488   4.047  -5.890  0.00  0.00    +0.040 A 
ATOM     16  C   UNL     1      -6.145   4.951  -5.054  0.00  0.00    +0.013 A 
ATOM     17  C   UNL     1      -6.876   5.987  -5.598  0.00  0.00    +0.004 A 
ATOM     18  C   UNL     1      -6.960   6.133  -6.971  0.00  0.00    +0.045 A 
ATOM     19  C   UNL     1      -6.310   5.239  -7.810  0.00  0.00    +0.121 A 
ATOM     20  C   UNL     1      -5.569   4.199  -7.274  0.00  0.00    +0.058 A 
BRANCH  19  21
ATOM     21  O   UNL     1      -6.397   5.387  -9.159  0.00  0.00    -0.495 OA
ATOM     22  C   UNL     1      -7.173   6.485  -9.642  0.00  0.00    +0.277 C 
ENDBRANCH  19  21
ENDBRANCH  11  15
BRANCH   1  24
ATOM     23  N   UNL     1      -5.186  -0.704  -0.475  0.00  0.00    -0.311 N 
ATOM     24  C   UNL     1      -4.761   0.417  -1.090  0.00  0.00    +0.218 C 
ATOM     25  O   UNL     1      -3.985   1.161  -0.527  0.00  0.00    -0.275 OA
ATOM     26  H   UNL     1      -5.806  -1.299  -0.925  0.00  0.00    +0.149 HD
BRANCH  23  27
ATOM     27  C   UNL     1      -4.711  -1.025   0.874  0.00  0.00    +0.143 C 
BRANCH  27  33
ATOM     28  C   UNL     1      -4.809  -3.530   0.896  0.00  0.00    +0.125 A 
ATOM     29  C   UNL     1      -5.379  -4.721   1.322  0.00  0.00    +0.046 A 
ATOM     30  C   UNL     1      -6.468  -4.700   2.172  0.00  0.00    +0.004 A 
ATOM     31  C   UNL     1      -6.989  -3.492   2.599  0.00  0.00    +0.001 A 
ATOM     32  C   UNL     1      -6.423  -2.304   2.176  0.00  0.00    +0.009 A 
ATOM     33  C   UNL     1      -5.331  -2.320   1.330  0.00  0.00    +0.011 A 
BRANCH  28  34
ATOM     34  O   UNL     1      -3.738  -3.549   0.060  0.00  0.00    -0.492 OA
BRANCH  34  36
ATOM     35  C   UNL     1      -2.054  -4.652  -1.277  0.00  0.00    +0.048 C 
ATOM     36  C   UNL     1      -3.254  -4.831  -0.345  0.00  0.00    +0.225 C 
ENDBRANCH  34  36
ENDBRANCH  28  34
ENDBRANCH  27  33
ENDBRANCH  23  27
ENDBRANCH   1  24
TORSDOF 7
