REMARK  Name = ZINC39669581
REMARK  7 active torsions:
REMARK  status: ('A' for Active; 'I' for Inactive)
REMARK    1  A    between atoms: C_1  and  C_2
REMARK    2  A    between atoms: C_2  and  C_3
REMARK    3  A    between atoms: C_2  and  C_4
REMARK    4  A    between atoms: C_2  and  N_29
REMARK    5  A    between atoms: C_4  and  N_5
REMARK    6  A    between atoms: C_6  and  C_8
REMARK    7  A    between atoms: C_19  and  C_21
REMARK                            x       y       z     vdW  Elec       q    Type
REMARK                         _______ _______ _______ _____ _____    ______ ____
ROOT
ATOM      1  C   UNL     1      -3.268  -4.470  -0.108  0.00  0.00    +0.100 C 
ATOM      2  C   UNL     1      -2.774  -5.137   1.195  0.00  0.00    +0.121 C 
ATOM      3  N   UNL     1      -4.002  -5.339   2.001  0.00  0.00    -0.296 N 
ATOM      4  C   UNL     1      -5.027  -5.753   1.013  0.00  0.00    +0.115 C 
ATOM      5  C   UNL     1      -4.745  -4.880  -0.226  0.00  0.00    -0.004 C 
ATOM      6  C   UNL     1      -5.639  -3.643  -0.213  0.00  0.00    -0.010 C 
ATOM      7  C   UNL     1      -7.098  -4.072  -0.388  0.00  0.00    -0.082 C 
ATOM      8  N   UNL     1      -7.248  -4.796  -1.657  0.00  0.00    +0.379 N 
ATOM      9  C   UNL     1      -6.457  -6.032  -1.626  0.00  0.00    -0.082 C 
ATOM     10  C   UNL     1      -4.971  -5.685  -1.502  0.00  0.00    -0.010 C 
ATOM     11  C   UNL     1      -4.152  -5.182   3.331  0.00  0.00    +0.248 C 
ATOM     12  O   UNL     1      -3.238  -4.739   3.998  0.00  0.00    -0.270 OA
ATOM     13  H   UNL     1      -8.221  -5.024  -1.800  0.00  0.00    -0.086 HD
ATOM     14  H   UNL     1      -6.928  -4.212  -2.415  0.00  0.00    -0.086 HD
ENDROOT
BRANCH  11  15
ATOM     15  C   UNL     1      -5.429  -5.548   3.978  0.00  0.00    +0.055 A 
ATOM     16  C   UNL     1      -6.163  -6.641   3.512  0.00  0.00    +0.016 A 
ATOM     17  C   UNL     1      -7.353  -6.978   4.120  0.00  0.00    +0.021 A 
ATOM     18  C   UNL     1      -7.823  -6.234   5.191  0.00  0.00    +0.042 A 
ATOM     19  C   UNL     1      -7.102  -5.149   5.657  0.00  0.00    +0.040 A 
ATOM     20  C   UNL     1      -5.904  -4.805   5.062  0.00  0.00    +0.054 A 
ATOM     21 CL   UNL     1      -4.996  -3.449   5.653  0.00  0.00    -0.083 Cl
ATOM     22 CL   UNL     1      -9.324  -6.665   5.950  0.00  0.00    -0.083 Cl
ENDBRANCH  11  15
BRANCH   1  24
ATOM     23  N   UNL     1      -2.917  -2.240  -1.119  0.00  0.00    -0.313 N 
ATOM     24  C   UNL     1      -3.145  -2.971  -0.010  0.00  0.00    +0.218 C 
ATOM     25  O   UNL     1      -3.251  -2.423   1.067  0.00  0.00    -0.275 OA
ATOM     26  H   UNL     1      -2.833  -2.678  -1.980  0.00  0.00    +0.149 HD
BRANCH  23  27
ATOM     27  C   UNL     1      -2.798  -0.783  -1.024  0.00  0.00    +0.126 C 
BRANCH  27  29
ATOM     28  C   UNL     1      -2.670   1.338  -2.338  0.00  0.00    +0.029 C 
ATOM     29  C   UNL     1      -2.667  -0.189  -2.428  0.00  0.00    +0.032 C 
ATOM     30  C   UNL     1      -1.356  -0.660  -3.060  0.00  0.00    +0.029 C 
BRANCH  29  31
ATOM     31  N   UNL     1      -3.797  -0.633  -3.255  0.00  0.00    -0.291 NA
ATOM     32  C   UNL     1      -3.605  -0.248  -4.660  0.00  0.00    +0.113 C 
ATOM     33  C   UNL     1      -4.773  -0.781  -5.494  0.00  0.00    +0.175 C 
ATOM     34  O   UNL     1      -6.001  -0.281  -4.959  0.00  0.00    -0.377 OA
ATOM     35  C   UNL     1      -6.221  -0.638  -3.592  0.00  0.00    +0.175 C 
ATOM     36  C   UNL     1      -5.068  -0.104  -2.739  0.00  0.00    +0.113 C 
ENDBRANCH  29  31
ENDBRANCH  27  29
ENDBRANCH  23  27
ENDBRANCH   1  24
TORSDOF 5
