REMARK  Name = ZINC62595581
REMARK  8 active torsions:
REMARK  status: ('A' for Active; 'I' for Inactive)
REMARK    1  A    between atoms: C_1  and  N_2
REMARK    2  A    between atoms: N_2  and  C_3
REMARK    3  A    between atoms: C_3  and  C_5
REMARK    4  A    between atoms: C_3  and  C_19
REMARK    5  A    between atoms: C_5  and  C_6
REMARK    6  A    between atoms: C_6  and  O_7
REMARK    7  A    between atoms: O_7  and  C_8
REMARK    8  A    between atoms: C_11  and  N_15
REMARK                            x       y       z     vdW  Elec       q    Type
REMARK                         _______ _______ _______ _____ _____    ______ ____
ROOT
ATOM      1  C   UNL     1      -0.859  -2.423  -1.453  0.00  0.00    +0.228 C 
ENDROOT
BRANCH   1   2
ATOM      2  C   UNL     1       0.602  -2.004  -1.278  0.00  0.00    +0.034 C 
BRANCH   2   3
ATOM      3  C   UNL     1       0.690  -0.478  -1.207  0.00  0.00    +0.019 C 
BRANCH   3   4
ATOM      4  C   UNL     1       2.137  -0.060  -1.158  0.00  0.00    +0.197 C 
ATOM      5  O   UNL     1       2.554   0.571  -0.210  0.00  0.00    -0.278 OA
ATOM      6  N   UNL     1       2.967  -0.387  -2.168  0.00  0.00    -0.331 N 
ATOM      7  H   UNL     1       2.633  -0.891  -2.926  0.00  0.00    +0.145 HD
ATOM      8  H   UNL     1       3.898  -0.117  -2.136  0.00  0.00    +0.145 HD
ENDBRANCH   3   4
BRANCH   3  10
ATOM      9  C   UNL     1      -0.018   1.465   0.010  0.00  0.00    -0.099 C 
ATOM     10  N   UNL     1       0.002  -0.004   0.002  0.00  0.00    +0.385 N 
ATOM     11  H   UNL     1       0.490  -0.338   0.820  0.00  0.00    -0.085 HD
ATOM     12  H   UNL     1      -0.945  -0.353   0.009  0.00  0.00    -0.085 HD
ENDBRANCH   3  10
ENDBRANCH   2   3
ENDBRANCH   1   2
BRANCH   1  13
ATOM     13  O   UNL     1      -0.941  -3.848  -1.520  0.00  0.00    -0.490 OA
BRANCH  13  14
ATOM     14  C   UNL     1      -2.179  -4.388  -1.676  0.00  0.00    +0.148 A 
ATOM     15  C   UNL     1      -2.943  -4.708  -0.563  0.00  0.00    +0.063 A 
ATOM     16  C   UNL     1      -4.202  -5.256  -0.724  0.00  0.00    +0.051 A 
ATOM     17  C   UNL     1      -4.699  -5.487  -1.994  0.00  0.00    +0.129 A 
ATOM     18  C   UNL     1      -3.940  -5.170  -3.104  0.00  0.00    +0.051 A 
ATOM     19  C   UNL     1      -2.683  -4.615  -2.949  0.00  0.00    +0.063 A 
ATOM     20 BR   UNL     1      -1.649  -4.174  -4.469  0.00  0.00    -0.046 Br
ATOM     21 BR   UNL     1      -2.263  -4.393   1.173  0.00  0.00    -0.046 Br
BRANCH  17  22
ATOM     22  N   UNL     1      -6.046  -6.076  -2.163  0.00  0.00    +0.056 N 
ATOM     23  O   UNL     1      -6.711  -6.354  -1.192  0.00  0.00    -0.126 OA
ATOM     24  O   UNL     1      -6.482  -6.278  -3.272  0.00  0.00    -0.126 OA
ENDBRANCH  17  22
ENDBRANCH  13  14
ENDBRANCH   1  13
TORSDOF 7
