REMARK  Name = ZINC10068034
REMARK  10 active torsions:
REMARK  status: ('A' for Active; 'I' for Inactive)
REMARK    1  A    between atoms: C_1  and  C_2
REMARK    2  A    between atoms: C_2  and  C_4
REMARK    3  A    between atoms: C_2  and  O_17
REMARK    4  A    between atoms: N_6  and  C_7
REMARK    5  A    between atoms: C_9  and  N_14
REMARK    6  A    between atoms: O_17  and  C_18
REMARK    7  A    between atoms: C_18  and  C_20
REMARK    8  A    between atoms: C_23  and  C_25
REMARK    9  A    between atoms: C_25  and  S_26
REMARK   10  A    between atoms: S_26  and  C_29
REMARK                            x       y       z     vdW  Elec       q    Type
REMARK                         _______ _______ _______ _____ _____    ______ ____
ROOT
ATOM      1  O   UNL     1       0.001  -3.034  -2.967  0.00  0.00    -0.447 OA
ENDROOT
BRANCH   1   3
ATOM      2  C   UNL     1      -1.427  -4.655  -4.091  0.00  0.00    +0.062 C 
ATOM      3  C   UNL     1       0.011  -4.223  -3.801  0.00  0.00    +0.259 C 
BRANCH   3   4
ATOM      4  C   UNL     1       0.716  -3.920  -5.098  0.00  0.00    +0.258 C 
ATOM      5  O   UNL     1       1.165  -2.811  -5.300  0.00  0.00    -0.271 OA
ATOM      6  N   UNL     1       0.847  -4.880  -6.034  0.00  0.00    -0.281 N 
ATOM      7  H   UNL     1       0.560  -5.787  -5.842  0.00  0.00    +0.155 HD
BRANCH   6   8
ATOM      8  C   UNL     1       1.397  -4.570  -7.284  0.00  0.00    +0.054 A 
ATOM      9  C   UNL     1       1.335  -3.270  -7.767  0.00  0.00    +0.057 A 
ATOM     10  C   UNL     1       1.879  -2.967  -9.000  0.00  0.00    +0.128 A 
ATOM     11  C   UNL     1       2.486  -3.956  -9.753  0.00  0.00    +0.034 A 
ATOM     12  C   UNL     1       2.549  -5.252  -9.275  0.00  0.00    +0.024 A 
ATOM     13  C   UNL     1       2.011  -5.561  -8.040  0.00  0.00    +0.062 A 
ATOM     14 CL   UNL     1       2.096  -7.187  -7.436  0.00  0.00    -0.082 Cl
BRANCH  10  15
ATOM     15  N   UNL     1       1.814  -1.581  -9.516  0.00  0.00    +0.056 N 
ATOM     16  O   UNL     1       1.280  -0.709  -8.854  0.00  0.00    -0.126 OA
ATOM     17  O   UNL     1       2.293  -1.313 -10.603  0.00  0.00    -0.126 OA
ENDBRANCH  10  15
ENDBRANCH   6   8
ENDBRANCH   3   4
ENDBRANCH   1   3
BRANCH   1  18
ATOM     18  C   UNL     1       0.006  -3.224  -1.631  0.00  0.00    +0.376 C 
ATOM     19  O   UNL     1       0.018  -4.352  -1.177  0.00  0.00    -0.241 OA
BRANCH  18  20
ATOM     20  C   UNL     1      -0.004  -2.071  -0.728  0.00  0.00    +0.212 A 
ATOM     21  C   UNL     1      -0.000  -2.120   0.638  0.00  0.00    +0.057 A 
ATOM     22  C   UNL     1      -0.008  -0.791   1.089  0.00  0.00    +0.047 A 
ATOM     23  C   UNL     1      -0.024   0.001  -0.006  0.00  0.00    +0.127 A 
ATOM     24  O   UNL     1      -0.018  -0.773  -1.098  0.00  0.00    -0.451 OA
BRANCH  23  25
ATOM     25  C   UNL     1      -0.039   1.508   0.002  0.00  0.00    +0.245 C 
BRANCH  25  26
ATOM     26  S   UNL     1       1.666   2.130   0.001  0.00  0.00    +0.004 S 
ATOM     27  O   UNL     1       2.301   1.816   1.233  0.00  0.00    -0.169 OA
ATOM     28  O   UNL     1       2.296   1.829  -1.236  0.00  0.00    -0.169 OA
BRANCH  26  29
ATOM     29  C   UNL     1       1.508   3.884   0.011  0.00  0.00    +0.089 A 
ATOM     30  C   UNL     1       1.448   4.579  -1.183  0.00  0.00    +0.027 A 
ATOM     31  C   UNL     1       1.319   5.956  -1.176  0.00  0.00    +0.002 A 
ATOM     32  C   UNL     1       1.260   6.638   0.025  0.00  0.00    +0.000 A 
ATOM     33  C   UNL     1       1.325   5.943   1.219  0.00  0.00    +0.002 A 
ATOM     34  C   UNL     1       1.448   4.567   1.211  0.00  0.00    +0.027 A 
ENDBRANCH  26  29
ENDBRANCH  25  26
ENDBRANCH  23  25
ENDBRANCH  18  20
ENDBRANCH   1  18
TORSDOF 9
