REMARK  Name = ZINC05312429
REMARK  8 active torsions:
REMARK  status: ('A' for Active; 'I' for Inactive)
REMARK    1  A    between atoms: C_1  and  C_2
REMARK    2  A    between atoms: C_3  and  C_21
REMARK    3  A    between atoms: C_5  and  S_8
REMARK    4  A    between atoms: S_8  and  C_9
REMARK    5  A    between atoms: C_9  and  C_10
REMARK    6  A    between atoms: N_12  and  C_13
REMARK    7  A    between atoms: C_14  and  C_18
REMARK    8  A    between atoms: C_21  and  C_22
REMARK                            x       y       z     vdW  Elec       q    Type
REMARK                         _______ _______ _______ _____ _____    ______ ____
ROOT
ATOM      1  S   UNL     1       3.012  -1.300  -4.696  0.00  0.00    -0.079 S 
ENDROOT
BRANCH   1   6
ATOM      2  C   UNL     1       4.241   2.962  -1.754  0.00  0.00    +0.065 C 
ATOM      3  C   UNL     1       3.669   1.636  -2.186  0.00  0.00    +0.037 A 
ATOM      4  C   UNL     1       2.915   0.809  -1.442  0.00  0.00    +0.067 A 
ATOM      5  N   UNL     1       2.610  -0.268  -2.184  0.00  0.00    -0.226 NA
ATOM      6  C   UNL     1       3.143  -0.139  -3.377  0.00  0.00    +0.167 A 
ATOM      7  N   UNL     1       3.820   1.042  -3.419  0.00  0.00    -0.337 N 
ATOM      8  H   UNL     1       4.329   1.407  -4.198  0.00  0.00    +0.168 HD
BRANCH   4   9
ATOM      9  C   UNL     1       2.490   1.048  -0.016  0.00  0.00    +0.092 C 
BRANCH   9  10
ATOM     10  C   UNL     1       1.175   1.783   0.000  0.00  0.00    -0.042 A 
ATOM     11  C   UNL     1      -0.013   1.076   0.008  0.00  0.00    +0.004 A 
ATOM     12  C   UNL     1      -1.219   1.751   0.017  0.00  0.00    +0.000 A 
ATOM     13  C   UNL     1      -1.238   3.133   0.029  0.00  0.00    +0.000 A 
ATOM     14  C   UNL     1      -0.050   3.840   0.022  0.00  0.00    +0.000 A 
ATOM     15  C   UNL     1       1.156   3.165   0.008  0.00  0.00    +0.004 A 
ENDBRANCH   9  10
ENDBRANCH   4   9
ENDBRANCH   1   6
BRANCH   1  16
ATOM     16  C   UNL     1       1.992  -2.566  -3.900  0.00  0.00    +0.173 C 
BRANCH  16  17
ATOM     17  C   UNL     1       1.743  -3.692  -4.869  0.00  0.00    +0.228 C 
ATOM     18  O   UNL     1       2.209  -3.644  -5.988  0.00  0.00    -0.275 OA
ATOM     19  N   UNL     1       1.002  -4.753  -4.493  0.00  0.00    -0.279 N 
ATOM     20  H   UNL     1       0.629  -4.792  -3.598  0.00  0.00    +0.155 HD
BRANCH  19  21
ATOM     21  C   UNL     1       0.773  -5.790  -5.385  0.00  0.00    +0.084 A 
ATOM     22  C   UNL     1       0.047  -6.958  -5.183  0.00  0.00    +0.065 A 
ATOM     23  C   UNL     1      -0.033  -7.873  -6.297  0.00  0.00    +0.022 A 
ATOM     24  C   UNL     1       0.607  -7.523  -7.427  0.00  0.00    +0.048 A 
ATOM     25  S   UNL     1       1.327  -5.947  -7.018  0.00  0.00    -0.081 S 
BRANCH  22  26
ATOM     26  C   UNL     1      -0.607  -7.245  -3.903  0.00  0.00    +0.244 C 
ATOM     27  O   UNL     1      -0.522  -6.451  -2.984  0.00  0.00    -0.270 OA
ATOM     28  N   UNL     1      -1.302  -8.389  -3.743  0.00  0.00    -0.325 N 
ATOM     29  H   UNL     1      -1.370  -9.022  -4.475  0.00  0.00    +0.145 HD
ATOM     30  H   UNL     1      -1.735  -8.579  -2.896  0.00  0.00    +0.145 HD
ENDBRANCH  22  26
ENDBRANCH  19  21
ENDBRANCH  16  17
ENDBRANCH   1  16
TORSDOF 7
