REMARK  Name = ZINC10066238
REMARK  11 active torsions:
REMARK  status: ('A' for Active; 'I' for Inactive)
REMARK    1  A    between atoms: C_1  and  C_2
REMARK    2  A    between atoms: C_5  and  O_32
REMARK    3  A    between atoms: N_11  and  C_12
REMARK    4  A    between atoms: C_12  and  C_13
REMARK    5  A    between atoms: C_13  and  N_64
REMARK    6  A    between atoms: C_14  and  N_64
REMARK    7  A    between atoms: C_15  and  N_64
REMARK    8  A    between atoms: C_16  and  C_18
REMARK    9  A    between atoms: C_21  and  S_24
REMARK   10  A    between atoms: S_24  and  N_27
REMARK   11  A    between atoms: O_32  and  C_33
REMARK                            x       y       z     vdW  Elec       q    Type
REMARK                         _______ _______ _______ _____ _____    ______ ____
ROOT
ATOM      1  C   UNL     1      -1.323  -1.381   1.461  0.00  0.00    +0.045 C 
ATOM      2  C   UNL     1      -0.159  -0.469   1.169  0.00  0.00    -0.034 A 
ATOM      3  C   UNL     1      -0.308   0.902   1.269  0.00  0.00    +0.008 A 
ATOM      4  C   UNL     1       0.775   1.725   0.996  0.00  0.00    +0.048 A 
ATOM      5  C   UNL     1       1.995   1.207   0.628  0.00  0.00    +0.147 A 
ATOM      6  C   UNL     1       2.181  -0.194   0.517  0.00  0.00    +0.122 A 
ATOM      7  C   UNL     1       1.055  -0.997   0.802  0.00  0.00    +0.047 A 
ATOM      8  S   UNL     1       1.688  -2.638   0.553  0.00  0.00    -0.051 S 
ATOM      9  C   UNL     1       3.353  -2.171   0.101  0.00  0.00    +0.168 A 
ATOM     10  N   UNL     1       3.304  -0.861   0.170  0.00  0.00    -0.221 NA
ATOM     11  N   UNL     1       4.422  -2.984  -0.237  0.00  0.00    -0.248 N 
ATOM     12  C   UNL     1       4.272  -4.323  -0.252  0.00  0.00    +0.252 C 
ATOM     13  O   UNL     1       3.235  -4.823   0.139  0.00  0.00    -0.270 OA
ENDROOT
BRANCH  12  14
ATOM     14  C   UNL     1       5.368  -5.184  -0.743  0.00  0.00    +0.037 A 
ATOM     15  C   UNL     1       6.676  -4.974  -0.301  0.00  0.00    +0.015 A 
ATOM     16  C   UNL     1       7.694  -5.785  -0.759  0.00  0.00    +0.029 A 
ATOM     17  C   UNL     1       7.423  -6.797  -1.663  0.00  0.00    +0.106 A 
ATOM     18  C   UNL     1       6.130  -7.006  -2.110  0.00  0.00    +0.029 A 
ATOM     19  C   UNL     1       5.102  -6.207  -1.655  0.00  0.00    +0.015 A 
BRANCH  17  20
ATOM     20  S   UNL     1       8.730  -7.823  -2.249  0.00  0.00    +0.061 S 
ATOM     21  O   UNL     1       9.755  -7.775  -1.266  0.00  0.00    -0.153 OA
ATOM     22  O   UNL     1       8.133  -9.042  -2.668  0.00  0.00    -0.153 OA
BRANCH  20  23
ATOM     23  N   UNL     1       9.344  -7.105  -3.609  0.00  0.00    -0.177 NA
ATOM     24  C   UNL     1       8.888  -7.346  -4.986  0.00  0.00    +0.109 C 
ATOM     25  C   UNL     1       9.762  -6.480  -5.917  0.00  0.00    +0.018 C 
ATOM     26  C   UNL     1      11.037  -6.238  -5.066  0.00  0.00    +0.018 C 
ATOM     27  C   UNL     1      10.443  -6.123  -3.640  0.00  0.00    +0.109 C 
ENDBRANCH  20  23
ENDBRANCH  17  20
ENDBRANCH  12  14
BRANCH   5  28
ATOM     28  O   UNL     1       3.032   2.047   0.369  0.00  0.00    -0.493 OA
ATOM     29  C   UNL     1       2.780   3.448   0.500  0.00  0.00    +0.277 C 
ENDBRANCH   5  28
BRANCH  11  30
ATOM     30  C   UNL     1       5.716  -2.388  -0.579  0.00  0.00    +0.097 C 
BRANCH  30  31
ATOM     31  C   UNL     1       6.473  -2.042   0.705  0.00  0.00    -0.060 C 
BRANCH  31  34
ATOM     32  C   UNL     1       7.765  -0.293  -0.361  0.00  0.00    -0.097 C 
ATOM     33  C   UNL     1       8.657  -1.452   1.568  0.00  0.00    -0.097 C 
ATOM     34  N   UNL     1       7.834  -1.588   0.348  0.00  0.00    +0.377 N 
ATOM     35  H   UNL     1       8.266  -2.285  -0.270  0.00  0.00    -0.083 HD
ENDBRANCH  31  34
ENDBRANCH  30  31
ENDBRANCH  11  30
TORSDOF 7
