REMARK  Name = ZINC19916055
REMARK  3 active torsions:
REMARK  status: ('A' for Active; 'I' for Inactive)
REMARK    1  A    between atoms: C_1  and  C_2
REMARK    2  A    between atoms: C_7  and  N_10
REMARK    3  A    between atoms: N_10  and  C_11
REMARK                            x       y       z     vdW  Elec       q    Type
REMARK                         _______ _______ _______ _____ _____    ______ ____
ROOT
ATOM      1  C   UNL     1      -0.797   3.757  -3.621  0.00  0.00    +0.031 A 
ATOM      2  C   UNL     1       0.554   3.446  -3.699  0.00  0.00    +0.027 A 
ATOM      3  C   UNL     1       1.230   3.594  -4.894  0.00  0.00    +0.051 A 
ATOM      4  C   UNL     1       0.563   4.053  -6.020  0.00  0.00    +0.162 A 
ATOM      5  C   UNL     1      -0.790   4.364  -5.946  0.00  0.00    +0.164 A 
ATOM      6  C   UNL     1      -1.469   4.212  -4.747  0.00  0.00    +0.072 A 
ATOM      7  O   UNL     1      -1.462   4.812  -7.041  0.00  0.00    -0.485 OA
ATOM      8  C   UNL     1      -0.669   5.303  -8.127  0.00  0.00    +0.270 C 
ATOM      9  C   UNL     1       0.466   4.303  -8.384  0.00  0.00    +0.270 C 
ATOM     10  O   UNL     1       1.248   4.197  -7.189  0.00  0.00    -0.485 OA
ENDROOT
BRANCH   1  11
ATOM     11  N   UNL     1      -1.482   3.608  -2.410  0.00  0.00    -0.341 N 
ATOM     12  H   UNL     1      -2.552   3.855  -2.349  0.00  0.00    +0.146 HD
BRANCH  11  18
ATOM     13  C   UNL     1      -1.466   3.603   2.534  0.00  0.00    +0.007 C 
ATOM     14  C   UNL     1      -0.750   3.109   1.275  0.00  0.00    -0.012 C 
ATOM     15  C   UNL     1      -0.729   1.579   1.267  0.00  0.00    +0.003 C 
ATOM     16  C   UNL     1      -0.013   1.086   0.008  0.00  0.00    +0.002 C 
ATOM     17  C   UNL     1      -0.753   1.593  -1.232  0.00  0.00    +0.022 C 
ATOM     18  C   UNL     1      -0.773   3.123  -1.223  0.00  0.00    +0.071 C 
ATOM     19  C   UNL     1      -1.490   3.616   0.036  0.00  0.00    +0.025 C 
ENDBRANCH  11  18
ENDBRANCH   1  11
TORSDOF 2
