REMARK  Name = ZINC39431137
REMARK  7 active torsions:
REMARK  status: ('A' for Active; 'I' for Inactive)
REMARK    1  A    between atoms: C_1  and  C_2
REMARK    2  A    between atoms: C_2  and  C_4
REMARK    3  A    between atoms: C_2  and  S_16
REMARK    4  A    between atoms: S_16  and  C_17
REMARK    5  A    between atoms: C_21  and  C_31
REMARK    6  A    between atoms: N_23  and  C_24
REMARK    7  A    between atoms: C_24  and  C_25
REMARK                            x       y       z     vdW  Elec       q    Type
REMARK                         _______ _______ _______ _____ _____    ______ ____
ROOT
ATOM      1  C   UNL     1      -0.519  -0.154  -2.949  0.00  0.00    +0.257 C 
ATOM      2  N   UNL     1      -1.961  -0.362  -2.764  0.00  0.00    -0.184 NA
ATOM      3  N   UNL     1      -2.608   0.611  -3.162  0.00  0.00    -0.289 N 
ATOM      4  C   UNL     1      -1.722   1.657  -3.689  0.00  0.00    +0.204 C 
ATOM      5  N   UNL     1      -0.372   1.305  -3.179  0.00  0.00    -0.242 NA
ATOM      6  H   UNL     1      -3.575   0.677  -3.130  0.00  0.00    +0.184 HD
ENDROOT
BRANCH   4   7
ATOM      7  C   UNL     1      -1.734   1.644  -5.196  0.00  0.00    +0.026 A 
ATOM      8  C   UNL     1      -0.574   1.908  -5.899  0.00  0.00    +0.010 A 
ATOM      9  C   UNL     1      -0.584   1.895  -7.281  0.00  0.00    +0.001 A 
ATOM     10  C   UNL     1      -1.756   1.620  -7.962  0.00  0.00    +0.003 A 
ATOM     11  C   UNL     1      -2.917   1.356  -7.262  0.00  0.00    +0.039 A 
ATOM     12  C   UNL     1      -2.906   1.362  -5.877  0.00  0.00    +0.130 A 
ATOM     13  F   UNL     1      -4.040   1.100  -5.191  0.00  0.00    -0.205 F 
ENDBRANCH   4   7
BRANCH   1  14
ATOM     14  S   UNL     1       0.388  -0.654  -1.460  0.00  0.00    -0.106 S 
BRANCH  14  16
ATOM     15  C   UNL     1      -0.879  -3.078  -1.434  0.00  0.00    +0.027 C 
ATOM     16  C   UNL     1       0.509  -2.458  -1.604  0.00  0.00    +0.112 C 
BRANCH  16  17
ATOM     17  C   UNL     1       1.430  -2.987  -0.535  0.00  0.00    +0.123 A 
ATOM     18  N   UNL     1       1.574  -4.333  -0.416  0.00  0.00    -0.309 N 
ATOM     19  H   UNL     1       1.088  -4.923  -1.014  0.00  0.00    +0.170 HD
ATOM     20  C   UNL     1       2.389  -4.858   0.528  0.00  0.00    +0.259 A 
ATOM     21  O   UNL     1       2.528  -6.062   0.645  0.00  0.00    -0.267 OA
ATOM     22  C   UNL     1       3.101  -3.918   1.407  0.00  0.00    +0.065 A 
ATOM     23  C   UNL     1       3.963  -4.356   2.410  0.00  0.00    +0.015 A 
ATOM     24  C   UNL     1       4.604  -3.431   3.205  0.00  0.00    +0.001 A 
ATOM     25  C   UNL     1       4.397  -2.071   3.014  0.00  0.00    +0.002 A 
ATOM     26  C   UNL     1       3.549  -1.618   2.028  0.00  0.00    +0.028 A 
ATOM     27  C   UNL     1       2.888  -2.536   1.209  0.00  0.00    +0.078 A 
ATOM     28  N   UNL     1       2.049  -2.133   0.223  0.00  0.00    -0.233 NA
ENDBRANCH  16  17
ENDBRANCH  14  16
ENDBRANCH   1  14
BRANCH   5  29
ATOM     29  C   UNL     1      -0.084   2.010  -1.923  0.00  0.00    +0.124 C 
BRANCH  29  30
ATOM     30  C   UNL     1       0.168   3.467  -2.210  0.00  0.00    -0.033 A 
ATOM     31  C   UNL     1       1.424   3.887  -2.606  0.00  0.00    +0.005 A 
ATOM     32  C   UNL     1       1.654   5.225  -2.870  0.00  0.00    +0.000 A 
ATOM     33  C   UNL     1       0.628   6.142  -2.738  0.00  0.00    +0.000 A 
ATOM     34  C   UNL     1      -0.628   5.721  -2.344  0.00  0.00    +0.000 A 
ATOM     35  C   UNL     1      -0.860   4.384  -2.084  0.00  0.00    +0.005 A 
ENDBRANCH  29  30
ENDBRANCH   5  29
TORSDOF 6
