REMARK  Name = ZINC19559911
REMARK  9 active torsions:
REMARK  status: ('A' for Active; 'I' for Inactive)
REMARK    1  A    between atoms: C_1  and  O_2
REMARK    2  A    between atoms: O_2  and  C_3
REMARK    3  A    between atoms: C_6  and  C_11
REMARK    4  A    between atoms: C_8  and  O_9
REMARK    5  A    between atoms: O_9  and  C_10
REMARK    6  A    between atoms: C_11  and  C_13
REMARK    7  A    between atoms: C_11  and  O_35
REMARK    8  A    between atoms: C_13  and  N_14
REMARK    9  A    between atoms: C_21  and  O_34
REMARK                            x       y       z     vdW  Elec       q    Type
REMARK                         _______ _______ _______ _____ _____    ______ ____
ROOT
ATOM      1  N   UNL     1      -0.018   1.093   2.457  0.00  0.00    +0.382 N 
ATOM      2  C   UNL     1      -0.096  -0.370   2.554  0.00  0.00    -0.075 C 
ATOM      3  C   UNL     1       0.775  -0.852   3.718  0.00  0.00    +0.029 C 
ATOM      4  C   UNL     1       0.287  -0.206   5.015  0.00  0.00    +0.110 C 
ATOM      5  C   UNL     1       0.328   1.317   4.871  0.00  0.00    +0.029 C 
ATOM      6  C   UNL     1      -0.530   1.734   3.675  0.00  0.00    -0.075 C 
ATOM      7  C   UNL     1       1.192  -0.634   6.175  0.00  0.00    +0.084 C 
ATOM      8  C   UNL     1       1.196  -2.163   6.244  0.00  0.00    +0.152 C 
ATOM      9  C   UNL     1      -0.220  -2.682   6.180  0.00  0.00    +0.023 A 
ATOM     10  C   UNL     1      -0.465  -3.985   6.621  0.00  0.00    +0.010 A 
ATOM     11  C   UNL     1      -1.712  -4.525   6.587  0.00  0.00    +0.009 A 
ATOM     12  C   UNL     1      -2.785  -3.762   6.096  0.00  0.00    -0.014 A 
ATOM     13  C   UNL     1      -4.088  -4.287   6.035  0.00  0.00    +0.008 A 
ATOM     14  C   UNL     1      -5.101  -3.517   5.552  0.00  0.00    +0.001 A 
ATOM     15  C   UNL     1      -4.866  -2.214   5.116  0.00  0.00    +0.001 A 
ATOM     16  C   UNL     1      -3.617  -1.674   5.160  0.00  0.00    +0.012 A 
ATOM     17  C   UNL     1      -2.547  -2.440   5.652  0.00  0.00    +0.024 A 
ATOM     18  C   UNL     1      -1.238  -1.908   5.709  0.00  0.00    +0.135 A 
ATOM     19  O   UNL     1      -1.045  -0.629   5.298  0.00  0.00    -0.485 OA
ATOM     20  H   UNL     1       1.042   1.366   2.355  0.00  0.00    -0.082 HD
ENDROOT
BRANCH   8  21
ATOM     21  O   UNL     1       1.801  -2.582   7.469  0.00  0.00    -0.387 OA
ATOM     22  H   UNL     1       1.894  -3.653   7.698  0.00  0.00    +0.210 HD
ENDBRANCH   8  21
BRANCH   1  23
ATOM     23  C   UNL     1      -0.729   1.579   1.267  0.00  0.00    -0.042 C 
BRANCH  23  24
ATOM     24  C   UNL     1      -0.013   1.086   0.008  0.00  0.00    +0.128 C 
BRANCH  24  28
ATOM     25  C   UNL     1      -2.078   2.508  -3.456  0.00  0.00    +0.162 A 
ATOM     26  C   UNL     1      -1.135   3.308  -2.831  0.00  0.00    +0.050 A 
ATOM     27  C   UNL     1      -0.473   2.848  -1.708  0.00  0.00    +0.010 A 
ATOM     28  C   UNL     1      -0.742   1.585  -1.213  0.00  0.00    -0.017 A 
ATOM     29  C   UNL     1      -1.681   0.782  -1.832  0.00  0.00    +0.055 A 
ATOM     30  C   UNL     1      -2.352   1.239  -2.954  0.00  0.00    +0.162 A 
BRANCH  25  32
ATOM     31  C   UNL     1      -2.401   4.273  -5.017  0.00  0.00    +0.277 C 
ATOM     32  O   UNL     1      -2.734   2.961  -4.558  0.00  0.00    -0.491 OA
ENDBRANCH  25  32
BRANCH  30  33
ATOM     33  O   UNL     1      -3.277   0.450  -3.564  0.00  0.00    -0.491 OA
ATOM     34  C   UNL     1      -3.506  -0.840  -2.994  0.00  0.00    +0.277 C 
ENDBRANCH  30  33
ENDBRANCH  24  28
BRANCH  24  35
ATOM     35  O   UNL     1       1.328   1.580  -0.002  0.00  0.00    -0.389 OA
ATOM     36  H   UNL     1       2.017   1.319   0.815  0.00  0.00    +0.210 HD
ENDBRANCH  24  35
ENDBRANCH  23  24
ENDBRANCH   1  23
TORSDOF 7
