REMARK  Name = ZINC12513328
REMARK  5 active torsions:
REMARK  status: ('A' for Active; 'I' for Inactive)
REMARK    1  A    between atoms: C_1  and  C_2
REMARK    2  A    between atoms: C_2  and  C_3
REMARK    3  A    between atoms: C_8  and  N_9
REMARK    4  A    between atoms: C_12  and  C_17
REMARK    5  A    between atoms: C_18  and  N_26
REMARK                            x       y       z     vdW  Elec       q    Type
REMARK                         _______ _______ _______ _____ _____    ______ ____
ROOT
ATOM      1  N   UNL     1      -1.488  10.126   0.067  0.00  0.00    -0.283 N 
ATOM      2  C   UNL     1      -2.231   8.961   0.066  0.00  0.00    +0.224 A 
ATOM      3  N   UNL     1      -1.619   7.783   0.036  0.00  0.00    -0.191 NA
ATOM      4  C   UNL     1      -2.338   6.658   0.034  0.00  0.00    +0.204 A 
ATOM      5  N   UNL     1      -3.671   6.721   0.056  0.00  0.00    -0.192 NA
ATOM      6  C   UNL     1      -4.278   7.902   0.092  0.00  0.00    +0.218 A 
ATOM      7  N   UNL     1      -3.559   9.021   0.093  0.00  0.00    -0.181 NA
ATOM      8  N   UNL     1      -5.657   7.968   0.120  0.00  0.00    -0.327 N 
ATOM      9  H   UNL     1      -0.521  10.084   0.134  0.00  0.00    +0.155 HD
ATOM     10  H   UNL     1      -6.101   8.830   0.142  0.00  0.00    +0.145 HD
ATOM     11  H   UNL     1      -6.182   7.152   0.119  0.00  0.00    +0.145 HD
ENDROOT
BRANCH   4  12
ATOM     12  C   UNL     1      -1.663   5.353   0.002  0.00  0.00    +0.194 A 
ATOM     13  C   UNL     1      -2.292   4.143  -0.003  0.00  0.00    +0.082 A 
ATOM     14  C   UNL     1      -1.225   3.135  -0.039  0.00  0.00    +0.042 A 
ATOM     15  C   UNL     1      -1.208   1.740  -0.065  0.00  0.00    +0.013 A 
ATOM     16  C   UNL     1      -0.012   1.077  -0.093  0.00  0.00    +0.001 A 
ATOM     17  C   UNL     1       1.182   1.783  -0.107  0.00  0.00    +0.004 A 
ATOM     18  C   UNL     1       1.185   3.162  -0.087  0.00  0.00    +0.047 A 
ATOM     19  C   UNL     1      -0.019   3.856  -0.053  0.00  0.00    +0.138 A 
ATOM     20  O   UNL     1      -0.324   5.168  -0.028  0.00  0.00    -0.450 OA
BRANCH  13  21
ATOM     21  N   UNL     1      -3.664   3.911   0.021  0.00  0.00    -0.354 N 
ATOM     22  H   UNL     1      -4.003   3.002   0.014  0.00  0.00    +0.142 HD
ATOM     23  H   UNL     1      -4.282   4.658   0.044  0.00  0.00    +0.142 HD
ENDBRANCH  13  21
ENDBRANCH   4  12
BRANCH   1  29
ATOM     24  C   UNL     1      -1.512  12.506   0.470  0.00  0.00    -0.026 A 
ATOM     25  C   UNL     1      -2.148  13.729   0.376  0.00  0.00    +0.005 A 
ATOM     26  C   UNL     1      -3.397  13.817  -0.212  0.00  0.00    +0.000 A 
ATOM     27  C   UNL     1      -4.013  12.682  -0.707  0.00  0.00    +0.002 A 
ATOM     28  C   UNL     1      -3.381  11.458  -0.620  0.00  0.00    +0.023 A 
ATOM     29  C   UNL     1      -2.129  11.365  -0.026  0.00  0.00    +0.037 A 
BRANCH  24  31
ATOM     30  C   UNL     1       0.927  12.477   0.028  0.00  0.00    +0.009 C 
ATOM     31  C   UNL     1      -0.152  12.411   1.110  0.00  0.00    +0.033 C 
ENDBRANCH  24  31
ENDBRANCH   1  29
TORSDOF 4
