REMARK  Name = ZINC19908790
REMARK  8 active torsions:
REMARK  status: ('A' for Active; 'I' for Inactive)
REMARK    1  A    between atoms: C_7  and  C_11
REMARK    2  A    between atoms: C_11  and  C_12
REMARK    3  A    between atoms: C_12  and  N_13
REMARK    4  A    between atoms: N_13  and  C_14
REMARK    5  A    between atoms: C_14  and  C_15
REMARK    6  A    between atoms: C_15  and  C_17
REMARK    7  A    between atoms: C_15  and  O_31
REMARK    8  A    between atoms: C_17  and  N_18
REMARK                            x       y       z     vdW  Elec       q    Type
REMARK                         _______ _______ _______ _____ _____    ______ ____
ROOT
ATOM      1  C   UNL     1      -2.042  -6.239  -2.826  0.00  0.00    +0.117 C 
ENDROOT
BRANCH   1   2
ATOM      2  O   UNL     1      -3.245  -5.890  -2.138  0.00  0.00    -0.392 OA
ATOM      3  H   UNL     1      -3.723  -5.147  -2.533  0.00  0.00    +0.210 HD
ENDBRANCH   1   2
BRANCH   1   4
ATOM      4  C   UNL     1      -1.091  -5.041  -2.829  0.00  0.00    -0.049 C 
BRANCH   4   5
ATOM      5  N   UNL     1      -0.677  -4.739  -1.452  0.00  0.00    +0.381 N 
ATOM      6  H   UNL     1      -0.207  -5.541  -1.059  0.00  0.00    -0.086 HD
ATOM      7  H   UNL     1      -1.491  -4.521  -0.897  0.00  0.00    -0.086 HD
BRANCH   5   8
ATOM      8  C   UNL     1       0.236  -3.589  -1.455  0.00  0.00    -0.078 C 
BRANCH   8   9
ATOM      9  C   UNL     1       0.666  -3.275  -0.021  0.00  0.00    +0.018 C 
BRANCH   9  16
ATOM     10  C   UNL     1      -0.017   1.362   0.009  0.00  0.00    +0.001 A 
ATOM     11  C   UNL     1       1.170   2.083   0.002  0.00  0.00    +0.002 A 
ATOM     12  C   UNL     1       2.386   1.436  -0.013  0.00  0.00    +0.026 A 
ATOM     13  C   UNL     1       2.428   0.046  -0.021  0.00  0.00    +0.047 A 
ATOM     14  C   UNL     1       1.223  -0.681  -0.013  0.00  0.00    +0.003 A 
ATOM     15  C   UNL     1       0.002  -0.004   0.002  0.00  0.00    +0.010 A 
ATOM     16  C   UNL     1       1.604  -2.095  -0.025  0.00  0.00    -0.024 A 
ATOM     17  C   UNL     1       2.945  -2.141  -0.038  0.00  0.00    +0.087 A 
ATOM     18  N   UNL     1       3.455  -0.871  -0.036  0.00  0.00    -0.360 N 
ATOM     19  H   UNL     1       4.399  -0.650  -0.044  0.00  0.00    +0.165 HD
ENDBRANCH   9  16
ENDBRANCH   8   9
ENDBRANCH   5   8
ENDBRANCH   4   5
ENDBRANCH   1   4
BRANCH   1  20
ATOM     20  C   UNL     1      -2.374  -6.631  -4.267  0.00  0.00    +0.151 C 
BRANCH  20  21
ATOM     21  N   UNL     1      -3.188  -7.849  -4.267  0.00  0.00    -0.337 N 
ATOM     22  C   UNL     1      -2.684  -9.137  -4.306  0.00  0.00    +0.050 A 
ATOM     23  C   UNL     1      -1.385  -9.633  -4.354  0.00  0.00    +0.026 A 
ATOM     24  C   UNL     1      -1.167 -10.994  -4.387  0.00  0.00    +0.002 A 
ATOM     25  C   UNL     1      -2.233 -11.879  -4.373  0.00  0.00    +0.001 A 
ATOM     26  C   UNL     1      -3.527 -11.407  -4.326  0.00  0.00    +0.010 A 
ATOM     27  C   UNL     1      -3.761 -10.034  -4.292  0.00  0.00    +0.008 A 
ATOM     28  C   UNL     1      -4.987  -9.216  -4.240  0.00  0.00    +0.008 A 
ATOM     29  C   UNL     1      -4.570  -7.876  -4.221  0.00  0.00    +0.050 A 
ATOM     30  C   UNL     1      -5.526  -6.867  -4.166  0.00  0.00    +0.026 A 
ATOM     31  C   UNL     1      -6.866  -7.186  -4.128  0.00  0.00    +0.002 A 
ATOM     32  C   UNL     1      -7.276  -8.511  -4.143  0.00  0.00    +0.001 A 
ATOM     33  C   UNL     1      -6.344  -9.525  -4.205  0.00  0.00    +0.010 A 
ENDBRANCH  20  21
ENDBRANCH   1  20
TORSDOF 8
