REMARK  Name = ZINC24883463
REMARK  7 active torsions:
REMARK  status: ('A' for Active; 'I' for Inactive)
REMARK    1  A    between atoms: C_8  and  C_10
REMARK    2  A    between atoms: C_13  and  C_15
REMARK    3  A    between atoms: C_15  and  N_16
REMARK    4  A    between atoms: C_17  and  C_19
REMARK    5  A    between atoms: C_22  and  N_28
REMARK    6  A    between atoms: C_23  and  N_25
REMARK    7  A    between atoms: N_28  and  C_29
REMARK                            x       y       z     vdW  Elec       q    Type
REMARK                         _______ _______ _______ _____ _____    ______ ____
ROOT
ATOM      1  N   UNL     1      -3.591   3.542  -0.019  0.00  0.00    -0.304 N 
ATOM      2  C   UNL     1      -2.370   4.112  -0.013  0.00  0.00    +0.244 C 
ATOM      3  O   UNL     1      -2.264   5.323  -0.021  0.00  0.00    -0.270 OA
ATOM      4  H   UNL     1      -3.687   2.446  -0.012  0.00  0.00    +0.149 HD
ENDROOT
BRANCH   2   5
ATOM      5  C   UNL     1      -1.161   3.265   0.002  0.00  0.00    +0.039 A 
ATOM      6  C   UNL     1      -1.282   1.872   0.005  0.00  0.00    +0.015 A 
ATOM      7  C   UNL     1      -0.153   1.086   0.025  0.00  0.00    +0.026 A 
ATOM      8  C   UNL     1       1.108   1.675   0.031  0.00  0.00    +0.058 A 
ATOM      9  C   UNL     1       1.231   3.062   0.022  0.00  0.00    +0.148 A 
ATOM     10  C   UNL     1       0.106   3.854   0.008  0.00  0.00    +0.047 A 
BRANCH   9  11
ATOM     11  N   UNL     1       2.574   3.685   0.028  0.00  0.00    +0.058 N 
ATOM     12  O   UNL     1       2.684   4.893   0.133  0.00  0.00    -0.126 OA
ATOM     13  O   UNL     1       3.569   2.989  -0.073  0.00  0.00    -0.126 OA
ENDBRANCH   9  11
BRANCH   8  14
ATOM     14  N   UNL     1       2.247   0.878   0.046  0.00  0.00    -0.339 N 
ATOM     15  H   UNL     1       3.242   1.338  -0.044  0.00  0.00    +0.146 HD
BRANCH  14  16
ATOM     16  C   UNL     1       2.122  -0.576   0.182  0.00  0.00    +0.071 C 
ATOM     17  C   UNL     1       3.004  -1.266   1.224  0.00  0.00    +0.024 C 
ATOM     18  C   UNL     1       3.308  -1.432  -0.266  0.00  0.00    +0.024 C 
ENDBRANCH  14  16
ENDBRANCH   8  14
ENDBRANCH   2   5
BRANCH   1  19
ATOM     19  C   UNL     1      -4.791   4.383  -0.034  0.00  0.00    +0.179 C 
BRANCH  19  23
ATOM     20  C   UNL     1      -7.702   2.297  -0.755  0.00  0.00    +0.160 A 
ATOM     21  C   UNL     1      -7.748   2.280   0.607  0.00  0.00    +0.052 A 
ATOM     22  C   UNL     1      -6.666   3.058   1.058  0.00  0.00    +0.047 A 
ATOM     23  C   UNL     1      -6.018   3.507  -0.037  0.00  0.00    +0.123 A 
ATOM     24  O   UNL     1      -6.649   3.050  -1.129  0.00  0.00    -0.456 OA
BRANCH  20  32
ATOM     25  C   UNL     1     -12.289  -1.009  -3.179  0.00  0.00    +0.002 A 
ATOM     26  C   UNL     1     -11.896  -0.744  -4.484  0.00  0.00    +0.001 A 
ATOM     27  C   UNL     1     -10.785   0.048  -4.709  0.00  0.00    +0.017 A 
ATOM     28  C   UNL     1     -10.091   0.557  -3.640  0.00  0.00    +0.040 A 
ATOM     29  C   UNL     1     -10.466   0.305  -2.299  0.00  0.00    +0.079 A 
ATOM     30  C   UNL     1     -11.608  -0.510  -2.113  0.00  0.00    +0.029 A 
ATOM     31  N   UNL     1      -9.684   0.869  -1.358  0.00  0.00    -0.236 NA
ATOM     32  C   UNL     1      -8.641   1.616  -1.659  0.00  0.00    +0.144 A 
ATOM     33  S   UNL     1      -8.655   1.585  -3.446  0.00  0.00    -0.064 S 
ENDBRANCH  20  32
ENDBRANCH  19  23
ENDBRANCH   1  19
TORSDOF 7
