REMARK  Name = ZINC26690277
REMARK  9 active torsions:
REMARK  status: ('A' for Active; 'I' for Inactive)
REMARK    1  A    between atoms: C_1  and  C_2
REMARK    2  A    between atoms: C_2  and  C_4
REMARK    3  A    between atoms: C_2  and  N_19
REMARK    4  A    between atoms: N_6  and  N_7
REMARK    5  A    between atoms: C_8  and  C_10
REMARK    6  A    between atoms: C_20  and  C_22
REMARK    7  A    between atoms: C_23  and  C_24
REMARK    8  A    between atoms: C_27  and  O_30
REMARK    9  A    between atoms: O_30  and  C_31
REMARK                            x       y       z     vdW  Elec       q    Type
REMARK                         _______ _______ _______ _____ _____    ______ ____
ROOT
ATOM      1  C   UNL     1      -1.024  -2.120   0.601  0.00  0.00    +0.249 C 
ATOM      2  O   UNL     1       0.085  -2.437   0.978  0.00  0.00    -0.272 OA
ATOM      3  N   UNL     1      -2.047  -2.991   0.710  0.00  0.00    -0.233 N 
ATOM      4  H   UNL     1      -3.052  -2.704   0.368  0.00  0.00    +0.173 HD
ENDROOT
BRANCH   3   5
ATOM      5  N   UNL     1      -1.830  -4.261   1.260  0.00  0.00    -0.230 N 
ATOM      6  C   UNL     1      -2.853  -5.132   1.369  0.00  0.00    +0.260 C 
ATOM      7  O   UNL     1      -3.964  -4.814   0.990  0.00  0.00    -0.269 OA
ATOM      8  H   UNL     1      -0.825  -4.548   1.602  0.00  0.00    +0.173 HD
BRANCH   6   9
ATOM      9  C   UNL     1      -2.625  -6.470   1.948  0.00  0.00    +0.042 A 
ATOM     10  C   UNL     1      -1.348  -6.839   2.377  0.00  0.00    +0.017 A 
ATOM     11  C   UNL     1      -1.138  -8.086   2.922  0.00  0.00    +0.050 A 
ATOM     12  C   UNL     1      -2.190  -8.986   3.036  0.00  0.00    +0.166 A 
ATOM     13  C   UNL     1      -3.467  -8.626   2.603  0.00  0.00    +0.167 A 
ATOM     14  C   UNL     1      -3.684  -7.374   2.062  0.00  0.00    +0.062 A 
ATOM     15  O   UNL     1      -4.312  -9.675   2.822  0.00  0.00    -0.453 OA
ATOM     16  C   UNL     1      -3.461 -10.820   3.013  0.00  0.00    +0.466 C 
ATOM     17  O   UNL     1      -2.239 -10.258   3.525  0.00  0.00    -0.453 OA
ENDBRANCH   6   9
ENDBRANCH   3   5
BRANCH   1  19
ATOM     18  C   UNL     1      -1.773  -0.899  -1.423  0.00  0.00    +0.038 C 
ATOM     19  C   UNL     1      -1.256  -0.754   0.010  0.00  0.00    +0.158 C 
BRANCH  19  20
ATOM     20  N   UNL     1       0.002  -0.004   0.002  0.00  0.00    -0.301 N 
ATOM     21  C   UNL     1      -0.016   1.344   0.009  0.00  0.00    +0.237 C 
ATOM     22  O   UNL     1      -1.079   1.938   0.018  0.00  0.00    -0.271 OA
ATOM     23  H   UNL     1       0.962  -0.541  -0.010  0.00  0.00    +0.150 HD
BRANCH  21  24
ATOM     24  C   UNL     1       1.240   2.092   0.002  0.00  0.00    +0.068 C 
ATOM     25  C   UNL     1       1.222   3.442   0.009  0.00  0.00    +0.013 C 
BRANCH  25  26
ATOM     26  C   UNL     1       2.485   4.194   0.001  0.00  0.00    -0.025 A 
ATOM     27  C   UNL     1       3.708   3.513  -0.009  0.00  0.00    +0.011 A 
ATOM     28  C   UNL     1       4.888   4.222  -0.022  0.00  0.00    +0.046 A 
ATOM     29  C   UNL     1       4.866   5.612  -0.015  0.00  0.00    +0.120 A 
ATOM     30  C   UNL     1       3.654   6.293   0.001  0.00  0.00    +0.046 A 
ATOM     31  C   UNL     1       2.469   5.593   0.009  0.00  0.00    +0.011 A 
BRANCH  29  32
ATOM     32  O   UNL     1       6.032   6.307  -0.022  0.00  0.00    -0.495 OA
ATOM     33  C   UNL     1       7.241   5.545  -0.038  0.00  0.00    +0.277 C 
ENDBRANCH  29  32
ENDBRANCH  25  26
ENDBRANCH  21  24
ENDBRANCH  19  20
ENDBRANCH   1  19
TORSDOF 7
