REMARK  Name = ZINC20991908
REMARK  10 active torsions:
REMARK  status: ('A' for Active; 'I' for Inactive)
REMARK    1  A    between atoms: C_4  and  C_7
REMARK    2  A    between atoms: C_7  and  N_8
REMARK    3  A    between atoms: C_10  and  N_29
REMARK    4  A    between atoms: C_13  and  C_15
REMARK    5  A    between atoms: N_17  and  C_18
REMARK    6  A    between atoms: C_18  and  C_19
REMARK    7  A    between atoms: C_19  and  C_20
REMARK    8  A    between atoms: N_29  and  C_30
REMARK    9  A    between atoms: C_30  and  C_31
REMARK   10  A    between atoms: C_36  and  C_37
REMARK                            x       y       z     vdW  Elec       q    Type
REMARK                         _______ _______ _______ _____ _____    ______ ____
ROOT
ATOM      1  N   UNL     1      -0.090   5.845  -1.350  0.00  0.00    +0.391 N 
ATOM      2  C   UNL     1      -1.388   5.559  -1.998  0.00  0.00    -0.059 C 
ATOM      3  C   UNL     1      -1.099   5.278  -3.485  0.00  0.00    +0.036 C 
ATOM      4  C   UNL     1       0.436   5.391  -3.626  0.00  0.00    +0.010 C 
ATOM      5  C   UNL     1       0.935   5.158  -2.178  0.00  0.00    +0.021 C 
ATOM      6  H   UNL     1       0.098   6.926  -1.282  0.00  0.00    -0.080 HD
ENDROOT
BRANCH   5   7
ATOM      7  C   UNL     1       2.290   5.785  -1.975  0.00  0.00    +0.200 C 
ATOM      8  O   UNL     1       2.417   6.721  -1.214  0.00  0.00    -0.278 OA
ATOM      9  N   UNL     1       3.361   5.306  -2.638  0.00  0.00    -0.316 N 
ATOM     10  H   UNL     1       3.246   4.456  -3.327  0.00  0.00    +0.149 HD
BRANCH   9  11
ATOM     11  C   UNL     1       4.678   5.915  -2.441  0.00  0.00    +0.109 C 
BRANCH  11  12
ATOM     12  C   UNL     1       5.712   5.188  -3.304  0.00  0.00    +0.054 C 
BRANCH  12  13
ATOM     13  C   UNL     1       7.067   5.816  -3.101  0.00  0.00    -0.042 A 
ATOM     14  C   UNL     1       7.472   6.859  -3.912  0.00  0.00    +0.007 A 
ATOM     15  C   UNL     1       8.712   7.441  -3.727  0.00  0.00    +0.050 A 
ATOM     16  C   UNL     1       9.557   6.972  -2.733  0.00  0.00    +0.166 A 
ATOM     17  C   UNL     1       9.150   5.917  -1.919  0.00  0.00    +0.166 A 
ATOM     18  C   UNL     1       7.904   5.343  -2.108  0.00  0.00    +0.053 A 
ATOM     19  O   UNL     1      10.148   5.644  -1.029  0.00  0.00    -0.453 OA
ATOM     20  C   UNL     1      11.000   6.804  -1.038  0.00  0.00    +0.466 C 
ATOM     21  O   UNL     1      10.809   7.359  -2.353  0.00  0.00    -0.453 OA
ENDBRANCH  12  13
ENDBRANCH  11  12
ENDBRANCH   9  11
ENDBRANCH   5   7
BRANCH   3  22
ATOM     22  N   UNL     1      -1.766   6.277  -4.332  0.00  0.00    -0.311 NA
ATOM     23  H   UNL     1      -1.785   7.245  -3.810  0.00  0.00    +0.122 HD
BRANCH  22  24
ATOM     24  C   UNL     1      -3.147   5.876  -4.631  0.00  0.00    +0.117 C 
BRANCH  24  25
ATOM     25  C   UNL     1      -3.796   6.922  -5.500  0.00  0.00    -0.022 A 
ATOM     26  C   UNL     1      -4.644   7.858  -4.937  0.00  0.00    +0.005 A 
ATOM     27  C   UNL     1      -5.240   8.818  -5.733  0.00  0.00    +0.000 A 
ATOM     28  C   UNL     1      -4.988   8.841  -7.093  0.00  0.00    +0.001 A 
ATOM     29  C   UNL     1      -4.140   7.906  -7.655  0.00  0.00    +0.013 A 
ATOM     30  C   UNL     1      -3.541   6.949  -6.857  0.00  0.00    +0.059 A 
BRANCH  30  31
ATOM     31  C   UNL     1      -2.612   5.932  -7.470  0.00  0.00    +0.418 C 
ATOM     32  F   UNL     1      -2.512   6.161  -8.846  0.00  0.00    -0.166 F 
ATOM     33  F   UNL     1      -1.346   6.045  -6.885  0.00  0.00    -0.166 F 
ATOM     34  F   UNL     1      -3.116   4.646  -7.246  0.00  0.00    -0.166 F 
ENDBRANCH  30  31
ENDBRANCH  24  25
ENDBRANCH  22  24
ENDBRANCH   3  22
BRANCH   1  35
ATOM     35  C   UNL     1      -0.070   5.347   0.032  0.00  0.00    -0.042 C 
BRANCH  35  39
ATOM     36  C   UNL     1      -0.013   1.076   0.008  0.00  0.00    +0.000 A 
ATOM     37  C   UNL     1      -1.219   1.751   0.017  0.00  0.00    +0.000 A 
ATOM     38  C   UNL     1      -1.238   3.133   0.029  0.00  0.00    +0.002 A 
ATOM     39  C   UNL     1      -0.050   3.840   0.023  0.00  0.00    -0.064 A 
ATOM     40  C   UNL     1       1.156   3.165   0.008  0.00  0.00    +0.002 A 
ATOM     41  C   UNL     1       1.175   1.783   0.000  0.00  0.00    +0.000 A 
ENDBRANCH  35  39
ENDBRANCH   1  35
TORSDOF 10
