REMARK  Name = ZINC08826212
REMARK  8 active torsions:
REMARK  status: ('A' for Active; 'I' for Inactive)
REMARK    1  A    between atoms: C_1  and  C_2
REMARK    2  A    between atoms: C_9  and  N_14
REMARK    3  A    between atoms: C_10  and  C_11
REMARK    4  A    between atoms: C_15  and  C_17
REMARK    5  A    between atoms: C_17  and  O_18
REMARK    6  A    between atoms: O_18  and  C_19
REMARK    7  A    between atoms: C_19  and  C_21
REMARK    8  A    between atoms: C_22  and  C_23
REMARK                            x       y       z     vdW  Elec       q    Type
REMARK                         _______ _______ _______ _____ _____    ______ ____
ROOT
ATOM      1  N   UNL     1      -3.235  13.327   0.108  0.00  0.00    -0.277 N 
ATOM      2  C   UNL     1      -2.987  12.002   0.098  0.00  0.00    +0.255 C 
ATOM      3  O   UNL     1      -3.908  11.213   0.102  0.00  0.00    -0.272 OA
ATOM      4  H   UNL     1      -2.498  13.958   0.104  0.00  0.00    +0.155 HD
ENDROOT
BRANCH   1  12
ATOM      5  C   UNL     1     -10.744  15.512   0.283  0.00  0.00    +0.008 C 
ATOM      6  C   UNL     1      -9.238  15.478   0.553  0.00  0.00    -0.009 C 
ATOM      7  C   UNL     1      -8.539  16.553  -0.283  0.00  0.00    +0.008 C 
ATOM      8  C   UNL     1      -7.082  16.692   0.162  0.00  0.00    +0.037 C 
ATOM      9  C   UNL     1      -6.432  15.315   0.148  0.00  0.00    -0.023 A 
ATOM     10  C   UNL     1      -7.181  14.191   0.148  0.00  0.00    -0.004 A 
ATOM     11  S   UNL     1      -6.009  12.865   0.123  0.00  0.00    -0.077 S 
ATOM     12  C   UNL     1      -4.543  13.787   0.122  0.00  0.00    +0.084 A 
ATOM     13  C   UNL     1      -4.995  15.099   0.134  0.00  0.00    +0.068 A 
ATOM     14  C   UNL     1      -8.677  14.103   0.162  0.00  0.00    +0.046 C 
BRANCH  13  15
ATOM     15  C   UNL     1      -4.057  16.227   0.132  0.00  0.00    +0.244 C 
ATOM     16  O   UNL     1      -3.677  16.700  -0.923  0.00  0.00    -0.270 OA
ATOM     17  N   UNL     1      -3.616  16.738   1.298  0.00  0.00    -0.325 N 
ATOM     18  H   UNL     1      -3.918  16.361   2.139  0.00  0.00    +0.145 HD
ATOM     19  H   UNL     1      -2.995  17.484   1.297  0.00  0.00    +0.145 HD
ENDBRANCH  13  15
ENDBRANCH   1  12
BRANCH   2  20
ATOM     20  C   UNL     1      -1.566  11.501   0.081  0.00  0.00    +0.328 C 
BRANCH  20  21
ATOM     21  O   UNL     1      -1.564  10.049   0.073  0.00  0.00    -0.452 OA
BRANCH  21  22
ATOM     22  C   UNL     1      -0.362   9.438   0.058  0.00  0.00    +0.332 C 
ATOM     23  O   UNL     1       0.657  10.102   0.052  0.00  0.00    -0.246 OA
BRANCH  22  24
ATOM     24  C   UNL     1      -0.284   7.975   0.049  0.00  0.00    +0.093 C 
ATOM     25  C   UNL     1       0.917   7.365   0.034  0.00  0.00    +0.035 C 
BRANCH  25  26
ATOM     26  C   UNL     1       0.996   5.893   0.025  0.00  0.00    +0.065 A 
ATOM     27  C   UNL     1       2.258   5.272   0.010  0.00  0.00    +0.028 A 
ATOM     28  C   UNL     1       2.343   3.911   0.001  0.00  0.00    +0.012 A 
ATOM     29  C   UNL     1       1.147   3.167   0.008  0.00  0.00    +0.000 A 
ATOM     30  C   UNL     1       1.163   1.763   0.000  0.00  0.00    +0.010 A 
ATOM     31  C   UNL     1      -0.013   1.076   0.008  0.00  0.00    +0.001 A 
ATOM     32  C   UNL     1      -1.234   1.747   0.018  0.00  0.00    +0.002 A 
ATOM     33  C   UNL     1      -1.289   3.106   0.031  0.00  0.00    +0.028 A 
ATOM     34  C   UNL     1      -0.095   3.853   0.024  0.00  0.00    +0.072 A 
ATOM     35  N   UNL     1      -0.120   5.186   0.031  0.00  0.00    -0.247 NA
ENDBRANCH  25  26
ENDBRANCH  22  24
ENDBRANCH  21  22
ENDBRANCH  20  21
ENDBRANCH   2  20
TORSDOF 7
