REMARK  Name = ZINC40757676
REMARK  4 active torsions:
REMARK  status: ('A' for Active; 'I' for Inactive)
REMARK    1  A    between atoms: C_4  and  N_7
REMARK    2  A    between atoms: N_7  and  N_8
REMARK    3  A    between atoms: C_10  and  N_24
REMARK    4  A    between atoms: C_11  and  N_15
REMARK                            x       y       z     vdW  Elec       q    Type
REMARK                         _______ _______ _______ _____ _____    ______ ____
ROOT
ATOM      1  N   UNL     1       3.652  -2.089   0.326  0.00  0.00    -0.249 N 
ATOM      2  C   UNL     1       4.859  -2.746   0.124  0.00  0.00    +0.161 A 
ATOM      3  C   UNL     1       4.886  -4.122  -0.129  0.00  0.00    +0.109 A 
ATOM      4  C   UNL     1       6.125  -4.730  -0.325  0.00  0.00    +0.160 A 
ATOM      5  N   UNL     1       7.226  -3.986  -0.263  0.00  0.00    -0.329 N 
ATOM      6  C   UNL     1       7.158  -2.693  -0.022  0.00  0.00    +0.200 A 
ATOM      7  N   UNL     1       6.007  -2.076   0.163  0.00  0.00    -0.219 NA
ATOM      8  H   UNL     1       2.819  -2.585   0.296  0.00  0.00    +0.172 HD
ATOM      9  H   UNL     1       8.092  -4.402  -0.398  0.00  0.00    +0.168 HD
ENDROOT
BRANCH   4  10
ATOM     10  N   UNL     1       6.209  -6.101  -0.580  0.00  0.00    -0.194 N 
ATOM     11  C   UNL     1       7.054  -7.002   0.029  0.00  0.00    +0.096 A 
ATOM     12  C   UNL     1       8.029  -6.898   1.014  0.00  0.00    +0.030 A 
ATOM     13  C   UNL     1       8.718  -8.021   1.414  0.00  0.00    +0.002 A 
ATOM     14  C   UNL     1       8.444  -9.256   0.839  0.00  0.00    +0.002 A 
ATOM     15  C   UNL     1       7.491  -9.379  -0.129  0.00  0.00    +0.032 A 
ATOM     16  C   UNL     1       6.776  -8.251  -0.553  0.00  0.00    +0.113 A 
ATOM     17  N   UNL     1       5.798  -8.067  -1.470  0.00  0.00    -0.129 NA
ATOM     18  N   UNL     1       5.445  -6.830  -1.503  0.00  0.00    -0.058 NA
ENDBRANCH   4  10
BRANCH   3  19
ATOM     19  N   UNL     1       3.700  -4.867  -0.185  0.00  0.00    -0.352 N 
ATOM     20  H   UNL     1       2.842  -4.417  -0.139  0.00  0.00    +0.143 HD
ATOM     21  H   UNL     1       3.738  -5.833  -0.269  0.00  0.00    +0.143 HD
ENDBRANCH   3  19
BRANCH   1  22
ATOM     22  N   UNL     1       3.638  -0.710   0.573  0.00  0.00    -0.265 N 
ATOM     23  H   UNL     1       4.471  -0.214   0.603  0.00  0.00    +0.170 HD
BRANCH  22  27
ATOM     24  C   UNL     1       0.019   1.258   1.177  0.00  0.00    +0.000 A 
ATOM     25  C   UNL     1       1.206   1.967   1.221  0.00  0.00    +0.002 A 
ATOM     26  C   UNL     1       2.408   1.317   1.021  0.00  0.00    +0.024 A 
ATOM     27  C   UNL     1       2.424  -0.050   0.776  0.00  0.00    +0.044 A 
ATOM     28  C   UNL     1       1.230  -0.759   0.733  0.00  0.00    +0.024 A 
ATOM     29  C   UNL     1       0.031  -0.103   0.933  0.00  0.00    +0.002 A 
ENDBRANCH  22  27
ENDBRANCH   1  22
TORSDOF 4
