REMARK  Name = ZINC62650190
REMARK  11 active torsions:
REMARK  status: ('A' for Active; 'I' for Inactive)
REMARK    1  A    between atoms: C_1  and  C_2
REMARK    2  A    between atoms: C_2  and  C_3
REMARK    3  A    between atoms: C_2  and  N_10
REMARK    4  A    between atoms: N_13  and  C_14
REMARK    5  A    between atoms: C_14  and  C_15
REMARK    6  A    between atoms: C_15  and  N_16
REMARK    7  A    between atoms: C_17  and  O_19
REMARK    8  A    between atoms: O_19  and  C_20
REMARK    9  A    between atoms: C_20  and  C_21
REMARK   10  A    between atoms: C_20  and  C_22
REMARK   11  A    between atoms: C_20  and  C_23
REMARK                            x       y       z     vdW  Elec       q    Type
REMARK                         _______ _______ _______ _____ _____    ______ ____
ROOT
ATOM      1  N   UNL     1       0.688  -0.476  -1.203  0.00  0.00    -0.293 N 
ATOM      2  C   UNL     1       0.006  -0.608  -2.358  0.00  0.00    +0.300 C 
ATOM      3  O   UNL     1      -1.178  -0.335  -2.400  0.00  0.00    -0.253 OA
ATOM      4  N   UNL     1       0.637  -1.043  -3.467  0.00  0.00    -0.298 N 
ATOM      5  H   UNL     1       1.632  -0.695  -1.170  0.00  0.00    +0.151 HD
ATOM      6  H   UNL     1       1.582  -1.261  -3.434  0.00  0.00    +0.150 HD
ENDROOT
BRANCH   1   8
ATOM      7  C   UNL     1      -0.019   1.526   0.010  0.00  0.00    +0.033 C 
ATOM      8  C   UNL     1       0.002  -0.004   0.002  0.00  0.00    +0.102 C 
BRANCH   8   9
ATOM      9  C   UNL     1       0.731  -0.503   1.223  0.00  0.00    -0.027 A 
ATOM     10  C   UNL     1       2.113  -0.514   1.246  0.00  0.00    +0.006 A 
ATOM     11  C   UNL     1       2.782  -0.971   2.366  0.00  0.00    +0.015 A 
ATOM     12  C   UNL     1       2.068  -1.418   3.463  0.00  0.00    +0.018 A 
ATOM     13  C   UNL     1       0.685  -1.408   3.439  0.00  0.00    +0.015 A 
ATOM     14  C   UNL     1       0.017  -0.945   2.321  0.00  0.00    +0.006 A 
ATOM     15 BR   UNL     1       2.983  -2.045   4.995  0.00  0.00    -0.050 Br
ENDBRANCH   8   9
ENDBRANCH   1   8
BRANCH   4  16
ATOM     16  C   UNL     1      -0.104  -1.186  -4.723  0.00  0.00    +0.124 C 
BRANCH  16  17
ATOM     17  C   UNL     1       0.839  -1.692  -5.817  0.00  0.00    +0.126 C 
BRANCH  17  18
ATOM     18  N   UNL     1       0.098  -1.835  -7.073  0.00  0.00    -0.280 N 
ATOM     19  C   UNL     1       0.729  -2.269  -8.181  0.00  0.00    +0.401 C 
ATOM     20  O   UNL     1       1.912  -2.542  -8.140  0.00  0.00    -0.226 OA
ATOM     21  H   UNL     1      -0.846  -1.617  -7.106  0.00  0.00    +0.152 HD
BRANCH  19  22
ATOM     22  O   UNL     1       0.048  -2.401  -9.335  0.00  0.00    -0.445 OA
BRANCH  22  23
ATOM     23  C   UNL     1       0.780  -2.866 -10.471  0.00  0.00    +0.107 C 
ATOM     24  C   UNL     1       1.356  -4.252 -10.173  0.00  0.00    +0.055 C 
ATOM     25  C   UNL     1      -0.154  -2.951 -11.680  0.00  0.00    +0.055 C 
ATOM     26  C   UNL     1       1.921  -1.894 -10.776  0.00  0.00    +0.055 C 
ENDBRANCH  22  23
ENDBRANCH  19  22
ENDBRANCH  17  18
ENDBRANCH  16  17
ENDBRANCH   4  16
TORSDOF 7
