REMARK  Name = ZINC24952638
REMARK  7 active torsions:
REMARK  status: ('A' for Active; 'I' for Inactive)
REMARK    1  A    between atoms: C_6  and  C_7
REMARK    2  A    between atoms: C_7  and  C_9
REMARK    3  A    between atoms: C_7  and  N_15
REMARK    4  A    between atoms: N_11  and  C_12
REMARK    5  A    between atoms: N_18  and  C_21
REMARK    6  A    between atoms: C_24  and  C_30
REMARK    7  A    between atoms: C_26  and  N_27
REMARK                            x       y       z     vdW  Elec       q    Type
REMARK                         _______ _______ _______ _____ _____    ______ ____
ROOT
ATOM      1  N   UNL     1       4.071  -1.196  -0.085  0.00  0.00    +0.392 N 
ATOM      2  C   UNL     1       3.918  -0.418   1.152  0.00  0.00    -0.058 C 
ATOM      3  C   UNL     1       2.539   0.246   1.167  0.00  0.00    +0.086 C 
ATOM      4  N   UNL     1       2.401   1.108  -0.015  0.00  0.00    -0.332 N 
ATOM      5  C   UNL     1       2.554   0.330  -1.252  0.00  0.00    +0.086 C 
ATOM      6  C   UNL     1       3.933  -0.334  -1.267  0.00  0.00    -0.058 C 
ATOM      7  H   UNL     1       3.268  -1.947  -0.116  0.00  0.00    -0.080 HD
ENDROOT
BRANCH   4   8
ATOM      8  C   UNL     1       1.181   1.788   0.000  0.00  0.00    +0.060 A 
ATOM      9  C   UNL     1      -0.013   1.076   0.008  0.00  0.00    +0.026 A 
ATOM     10  C   UNL     1      -1.217   1.751   0.017  0.00  0.00    +0.014 A 
ATOM     11  C   UNL     1      -1.237   3.134   0.031  0.00  0.00    +0.057 A 
ATOM     12  C   UNL     1      -0.051   3.845   0.023  0.00  0.00    +0.047 A 
ATOM     13  C   UNL     1       1.157   3.176   0.008  0.00  0.00    +0.148 A 
BRANCH  11  14
ATOM     14  C   UNL     1      -2.553   3.867   0.047  0.00  0.00    +0.417 C 
ATOM     15  F   UNL     1      -2.973   4.101  -1.266  0.00  0.00    -0.166 F 
ATOM     16  F   UNL     1      -3.510   3.092   0.712  0.00  0.00    -0.166 F 
ATOM     17  F   UNL     1      -2.399   5.088   0.712  0.00  0.00    -0.166 F 
ENDBRANCH  11  14
BRANCH  13  18
ATOM     18  N   UNL     1       2.426   3.939   0.001  0.00  0.00    +0.058 N 
ATOM     19  O   UNL     1       2.405   5.156   0.007  0.00  0.00    -0.126 OA
ATOM     20  O   UNL     1       3.491   3.348  -0.012  0.00  0.00    -0.126 OA
ENDBRANCH  13  18
ENDBRANCH   4   8
BRANCH   1  21
ATOM     21  C   UNL     1       5.355  -1.911  -0.101  0.00  0.00    +0.050 C 
BRANCH  21  27
ATOM     22  C   UNL     1       4.376  -3.361  -1.891  0.00  0.00    +0.005 A 
ATOM     23  C   UNL     1       4.485  -4.077  -3.068  0.00  0.00    +0.038 A 
ATOM     24  C   UNL     1       5.698  -4.137  -3.732  0.00  0.00    +0.123 A 
ATOM     25  C   UNL     1       6.801  -3.475  -3.218  0.00  0.00    +0.038 A 
ATOM     26  C   UNL     1       6.688  -2.755  -2.044  0.00  0.00    +0.005 A 
ATOM     27  C   UNL     1       5.476  -2.696  -1.382  0.00  0.00    -0.052 A 
ATOM     28  F   UNL     1       5.807  -4.842  -4.879  0.00  0.00    -0.205 F 
ENDBRANCH  21  27
BRANCH  21  29
ATOM     29  C   UNL     1       5.420  -2.853   1.073  0.00  0.00    +0.204 C 
ATOM     30  O   UNL     1       4.490  -2.922   1.848  0.00  0.00    -0.277 OA
ATOM     31  N   UNL     1       6.513  -3.618   1.263  0.00  0.00    -0.314 N 
ATOM     32  H   UNL     1       7.357  -3.555   0.560  0.00  0.00    +0.149 HD
BRANCH  31  33
ATOM     33  C   UNL     1       6.577  -4.533   2.405  0.00  0.00    +0.073 C 
ATOM     34  C   UNL     1       7.887  -4.588   3.194  0.00  0.00    +0.024 C 
ATOM     35  C   UNL     1       7.494  -5.752   2.283  0.00  0.00    +0.024 C 
ENDBRANCH  31  33
ENDBRANCH  21  29
ENDBRANCH   1  21
TORSDOF 7
