REMARK  Name = ZINC14744973
REMARK  7 active torsions:
REMARK  status: ('A' for Active; 'I' for Inactive)
REMARK    1  A    between atoms: C_4  and  C_7
REMARK    2  A    between atoms: C_7  and  C_8
REMARK    3  A    between atoms: C_8  and  N_9
REMARK    4  A    between atoms: N_12  and  C_26
REMARK    5  A    between atoms: C_20  and  C_21
REMARK    6  A    between atoms: C_20  and  N_56
REMARK    7  A    between atoms: C_26  and  C_27
REMARK                            x       y       z     vdW  Elec       q    Type
REMARK                         _______ _______ _______ _____ _____    ______ ____
ROOT
ATOM      1  N   UNL     1      -0.593  -4.247   0.818  0.00  0.00    -0.271 N 
ATOM      2  C   UNL     1      -0.877  -2.961   1.103  0.00  0.00    +0.312 C 
ATOM      3  O   UNL     1      -0.987  -2.528   2.233  0.00  0.00    -0.252 OA
ATOM      4  N   UNL     1      -1.027  -2.215   0.002  0.00  0.00    -0.215 N 
ATOM      5  C   UNL     1      -0.859  -2.946  -1.120  0.00  0.00    +0.247 C 
ATOM      6  O   UNL     1      -0.934  -2.558  -2.266  0.00  0.00    -0.273 OA
ATOM      7  C   UNL     1      -0.553  -4.347  -0.646  0.00  0.00    +0.112 C 
ATOM      8  C   UNL     1      -1.617  -5.319  -1.145  0.00  0.00    +0.017 C 
ATOM      9  C   UNL     1      -1.272  -6.735  -0.674  0.00  0.00    -0.076 C 
ATOM     10  C   UNL     1       1.096  -6.217  -0.644  0.00  0.00    -0.076 C 
ATOM     11  C   UNL     1       0.831  -4.784  -1.115  0.00  0.00    +0.017 C 
ATOM     12  N   UNL     1       0.056  -7.106  -1.206  0.00  0.00    +0.385 N 
ATOM     13  H   UNL     1       0.046  -7.001  -2.228  0.00  0.00    -0.081 HD
ENDROOT
BRANCH   1  14
ATOM     14  C   UNL     1      -0.369  -5.330   1.779  0.00  0.00    +0.115 C 
BRANCH  14  15
ATOM     15  C   UNL     1       0.916  -5.059   2.563  0.00  0.00    +0.054 C 
BRANCH  15  19
ATOM     16  C   UNL     1       1.753  -8.379   5.117  0.00  0.00    +0.000 A 
ATOM     17  C   UNL     1       2.259  -8.351   3.831  0.00  0.00    +0.000 A 
ATOM     18  C   UNL     1       1.987  -7.277   3.005  0.00  0.00    +0.004 A 
ATOM     19  C   UNL     1       1.211  -6.230   3.464  0.00  0.00    -0.046 A 
ATOM     20  C   UNL     1       0.710  -6.255   4.753  0.00  0.00    +0.004 A 
ATOM     21  C   UNL     1       0.977  -7.332   5.577  0.00  0.00    +0.000 A 
ENDBRANCH  15  19
ENDBRANCH  14  15
ENDBRANCH   1  14
BRANCH  12  22
ATOM     22  C   UNL     1       0.359  -8.512  -0.871  0.00  0.00    -0.003 C 
BRANCH  22  23
ATOM     23  C   UNL     1      -0.585  -9.406  -1.633  0.00  0.00    +0.089 A 
ATOM     24  C   UNL     1      -0.376  -9.903  -2.865  0.00  0.00    +0.042 A 
ATOM     25  C   UNL     1      -1.508 -10.684  -3.190  0.00  0.00    +0.041 A 
ATOM     26  C   UNL     1      -2.342 -10.618  -2.136  0.00  0.00    +0.195 A 
ATOM     27  O   UNL     1      -1.775  -9.847  -1.194  0.00  0.00    -0.470 OA
ENDBRANCH  22  23
ENDBRANCH  12  22
BRANCH   4  28
ATOM     28  C   UNL     1      -1.340  -0.784   0.013  0.00  0.00    +0.213 C 
BRANCH  28  29
ATOM     29  C   UNL     1      -0.060   0.011   0.034  0.00  0.00    +0.228 C 
ATOM     30  O   UNL     1       1.009  -0.562   0.039  0.00  0.00    -0.274 OA
ATOM     31  N   UNL     1      -0.102   1.358   0.048  0.00  0.00    -0.328 N 
ATOM     32  H   UNL     1       0.722   1.869   0.061  0.00  0.00    +0.145 HD
ATOM     33  H   UNL     1      -0.957   1.816   0.040  0.00  0.00    +0.145 HD
ENDBRANCH  28  29
ENDBRANCH   4  28
TORSDOF 7
