REMARK  Name = ZINC13164483
REMARK  10 active torsions:
REMARK  status: ('A' for Active; 'I' for Inactive)
REMARK    1  A    between atoms: C_1  and  C_2
REMARK    2  A    between atoms: C_2  and  C_3
REMARK    3  A    between atoms: C_3  and  C_4
REMARK    4  A    between atoms: C_4  and  N_5
REMARK    5  A    between atoms: C_6  and  N_35
REMARK    6  A    between atoms: C_7  and  N_14
REMARK    7  A    between atoms: N_14  and  C_15
REMARK    8  A    between atoms: C_15  and  C_16
REMARK    9  A    between atoms: C_22  and  C_24
REMARK   10  A    between atoms: C_24  and  C_25
REMARK                            x       y       z     vdW  Elec       q    Type
REMARK                         _______ _______ _______ _____ _____    ______ ____
ROOT
ATOM      1  N   UNL     1       3.892  -0.809  -1.340  0.00  0.00    -0.260 N 
ATOM      2  C   UNL     1       3.593  -2.045  -1.792  0.00  0.00    +0.225 C 
ATOM      3  O   UNL     1       3.981  -2.402  -2.885  0.00  0.00    -0.275 OA
ENDROOT
BRANCH   1   6
ATOM      4  N   UNL     1       6.788   1.200  -2.378  0.00  0.00    -0.280 N 
ATOM      5  C   UNL     1       5.987   0.378  -1.620  0.00  0.00    +0.127 A 
ATOM      6  C   UNL     1       4.738   0.032  -2.094  0.00  0.00    +0.140 A 
ATOM      7  C   UNL     1       4.324   0.527  -3.345  0.00  0.00    +0.277 A 
ATOM      8  O   UNL     1       3.227   0.233  -3.789  0.00  0.00    -0.266 OA
ATOM      9  N   UNL     1       5.146   1.333  -4.045  0.00  0.00    -0.273 N 
ATOM     10  H   UNL     1       4.850   1.692  -4.930  0.00  0.00    +0.173 HD
ATOM     11  C   UNL     1       6.360   1.659  -3.568  0.00  0.00    +0.331 A 
ATOM     12  O   UNL     1       7.084   2.384  -4.223  0.00  0.00    -0.246 OA
BRANCH   5  13
ATOM     13  N   UNL     1       6.424  -0.092  -0.405  0.00  0.00    -0.343 N 
ATOM     14  H   UNL     1       5.892  -0.737   0.086  0.00  0.00    +0.144 HD
ATOM     15  H   UNL     1       7.266   0.222  -0.038  0.00  0.00    +0.144 HD
ENDBRANCH   5  13
BRANCH   4  16
ATOM     16  C   UNL     1       8.117   1.575  -1.888  0.00  0.00    +0.128 C 
BRANCH  16  17
ATOM     17  C   UNL     1       9.146   0.551  -2.369  0.00  0.00    +0.021 C 
BRANCH  17  19
ATOM     18  C   UNL     1      11.563  -0.081  -2.337  0.00  0.00    +0.004 C 
ATOM     19  C   UNL     1      10.534   0.943  -1.856  0.00  0.00    -0.002 C 
ENDBRANCH  17  19
ENDBRANCH  16  17
ENDBRANCH   4  16
ENDBRANCH   1   6
BRANCH   1  20
ATOM     20  C   UNL     1       3.339  -0.341  -0.067  0.00  0.00    +0.149 C 
BRANCH  20  21
ATOM     21  C   UNL     1       2.095   0.470  -0.328  0.00  0.00    -0.030 A 
ATOM     22  C   UNL     1       0.857  -0.145  -0.332  0.00  0.00    +0.005 A 
ATOM     23  C   UNL     1      -0.283   0.598  -0.571  0.00  0.00    +0.000 A 
ATOM     24  C   UNL     1      -0.186   1.956  -0.808  0.00  0.00    +0.000 A 
ATOM     25  C   UNL     1       1.052   2.572  -0.804  0.00  0.00    +0.000 A 
ATOM     26  C   UNL     1       2.193   1.828  -0.565  0.00  0.00    +0.005 A 
ENDBRANCH  20  21
ENDBRANCH   1  20
BRANCH   2  27
ATOM     27  C   UNL     1       2.779  -2.983  -0.938  0.00  0.00    +0.132 C 
BRANCH  27  28
ATOM     28  C   UNL     1       2.472  -4.235  -1.719  0.00  0.00    -0.031 A 
ATOM     29  C   UNL     1       1.296  -4.349  -2.394  0.00  0.00    +0.005 A 
ATOM     30  C   UNL     1       0.995  -5.499  -3.121  0.00  0.00    +0.001 A 
ATOM     31  C   UNL     1       1.869  -6.541  -3.178  0.00  0.00    +0.008 A 
ATOM     32  C   UNL     1       3.093  -6.459  -2.494  0.00  0.00    -0.018 A 
ATOM     33  C   UNL     1       3.401  -5.288  -1.758  0.00  0.00    -0.014 A 
ATOM     34  C   UNL     1       4.625  -5.208  -1.071  0.00  0.00    +0.009 A 
ATOM     35  C   UNL     1       5.498  -6.250  -1.127  0.00  0.00    +0.001 A 
ATOM     36  C   UNL     1       5.197  -7.401  -1.854  0.00  0.00    +0.001 A 
ATOM     37  C   UNL     1       4.020  -7.515  -2.529  0.00  0.00    +0.008 A 
ENDBRANCH  27  28
ENDBRANCH   2  27
TORSDOF 9
