REMARK  Name = ZINC21289825
REMARK  7 active torsions:
REMARK  status: ('A' for Active; 'I' for Inactive)
REMARK    1  A    between atoms: C_7  and  C_13
REMARK    2  A    between atoms: C_13  and  C_14
REMARK    3  A    between atoms: N_16  and  N_17
REMARK    4  A    between atoms: C_18  and  C_20
REMARK    5  A    between atoms: C_23  and  C_26
REMARK    6  A    between atoms: C_26  and  S_27
REMARK    7  A    between atoms: S_27  and  C_28
REMARK                            x       y       z     vdW  Elec       q    Type
REMARK                         _______ _______ _______ _____ _____    ______ ____
ROOT
ATOM      1  N   UNL     1      11.540   5.784   1.094  0.00  0.00    -0.230 N 
ATOM      2  C   UNL     1      10.870   5.649  -0.068  0.00  0.00    +0.260 C 
ATOM      3  O   UNL     1      11.455   5.782  -1.126  0.00  0.00    -0.269 OA
ATOM      4  H   UNL     1      11.011   5.664   2.050  0.00  0.00    +0.173 HD
ENDROOT
BRANCH   2   5
ATOM      5  C   UNL     1       9.424   5.341  -0.057  0.00  0.00    +0.038 A 
ATOM      6  C   UNL     1       8.728   5.201  -1.258  0.00  0.00    +0.013 A 
ATOM      7  C   UNL     1       7.378   4.913  -1.240  0.00  0.00    +0.005 A 
ATOM      8  C   UNL     1       6.716   4.763  -0.035  0.00  0.00    -0.037 A 
ATOM      9  C   UNL     1       7.399   4.906   1.160  0.00  0.00    +0.005 A 
ATOM     10  C   UNL     1       8.750   5.188   1.156  0.00  0.00    +0.013 A 
BRANCH   8  11
ATOM     11  C   UNL     1       5.242   4.449  -0.023  0.00  0.00    +0.112 C 
BRANCH  11  12
ATOM     12  S   UNL     1       5.008   2.654  -0.030  0.00  0.00    -0.083 S 
BRANCH  12  13
ATOM     13  C   UNL     1       3.248   2.575  -0.015  0.00  0.00    +0.168 A 
ATOM     14  N   UNL     1       2.514   1.422  -0.014  0.00  0.00    -0.333 N 
ATOM     15  H   UNL     1       3.022   0.446  -0.024  0.00  0.00    +0.168 HD
ATOM     16  C   UNL     1       1.178   1.787   0.000  0.00  0.00    +0.067 A 
ATOM     17  C   UNL     1      -0.013   1.076   0.008  0.00  0.00    +0.028 A 
ATOM     18  C   UNL     1      -1.216   1.751   0.017  0.00  0.00    +0.002 A 
ATOM     19  C   UNL     1      -1.243   3.138   0.030  0.00  0.00    +0.002 A 
ATOM     20  C   UNL     1      -0.071   3.860   0.023  0.00  0.00    +0.030 A 
ATOM     21  C   UNL     1       1.156   3.191   0.008  0.00  0.00    +0.090 A 
ATOM     22  N   UNL     1       2.448   3.612  -0.001  0.00  0.00    -0.222 NA
ENDBRANCH  12  13
ENDBRANCH  11  12
ENDBRANCH   8  11
ENDBRANCH   2   5
BRANCH   1  25
ATOM     23  C   UNL     1      13.580   6.210   2.244  0.00  0.00    +0.235 C 
ATOM     24  O   UNL     1      12.996   6.078   3.299  0.00  0.00    -0.274 OA
ATOM     25  N   UNL     1      12.910   6.076   1.083  0.00  0.00    -0.234 N 
ATOM     26  H   UNL     1      13.439   6.195   0.126  0.00  0.00    +0.173 HD
BRANCH  23  27
ATOM     27  C   UNL     1      15.054   6.524   2.232  0.00  0.00    +0.155 C 
BRANCH  27  34
ATOM     28  C   UNL     1      19.185   7.399   3.156  0.00  0.00    +0.001 A 
ATOM     29  C   UNL     1      19.621   7.483   4.472  0.00  0.00    +0.001 A 
ATOM     30  C   UNL     1      18.745   7.289   5.518  0.00  0.00    +0.014 A 
ATOM     31  C   UNL     1      17.407   7.005   5.246  0.00  0.00    +0.050 A 
ATOM     32  C   UNL     1      16.969   6.914   3.905  0.00  0.00    +0.011 A 
ATOM     33  C   UNL     1      17.878   7.121   2.866  0.00  0.00    +0.010 A 
ATOM     34  C   UNL     1      15.558   6.622   3.649  0.00  0.00    +0.078 A 
ATOM     35  N   UNL     1      14.741   6.440   4.644  0.00  0.00    -0.175 NA
ATOM     36  N   UNL     1      15.147   6.517   5.976  0.00  0.00    -0.242 N 
ATOM     37  H   UNL     1      14.418   6.356   6.784  0.00  0.00    +0.192 HD
ATOM     38  C   UNL     1      16.425   6.787   6.315  0.00  0.00    +0.272 A 
ATOM     39  O   UNL     1      16.757   6.850   7.485  0.00  0.00    -0.266 OA
ENDBRANCH  27  34
ENDBRANCH  23  27
ENDBRANCH   1  25
TORSDOF 7
