REMARK  Name = ZINC23479097
REMARK  5 active torsions:
REMARK  status: ('A' for Active; 'I' for Inactive)
REMARK    1  A    between atoms: C_2  and  C_27
REMARK    2  A    between atoms: N_5  and  C_6
REMARK    3  A    between atoms: C_6  and  C_7
REMARK    4  A    between atoms: N_16  and  C_17
REMARK    5  A    between atoms: C_27  and  N_28
REMARK                            x       y       z     vdW  Elec       q    Type
REMARK                         _______ _______ _______ _____ _____    ______ ____
ROOT
ATOM      1  C   UNL     1      -0.012   1.085   0.008  0.00  0.00    +0.028 C 
ATOM      2  C   UNL     1       1.423   1.615  -0.003  0.00  0.00    +0.008 C 
ATOM      3  C   UNL     1       2.175   1.082   1.218  0.00  0.00    +0.019 C 
ATOM      4  C   UNL     1       1.486   1.577   2.494  0.00  0.00    +0.109 C 
ATOM      5  N   UNL     1       0.069   1.195   2.444  0.00  0.00    -0.285 N 
ATOM      6  C   UNL     1      -0.726   1.580   1.270  0.00  0.00    +0.114 C 
ATOM      7  C   UNL     1      -0.493   0.505   3.457  0.00  0.00    +0.303 C 
ATOM      8  O   UNL     1      -1.686   0.274   3.447  0.00  0.00    -0.253 OA
ATOM      9  N   UNL     1       0.269   0.070   4.480  0.00  0.00    -0.294 N 
ATOM     10  H   UNL     1       1.332   0.349   4.531  0.00  0.00    +0.151 HD
ENDROOT
BRANCH   9  11
ATOM     11  C   UNL     1      -0.318  -0.773   5.524  0.00  0.00    +0.037 C 
ATOM     12  C   UNL     1      -0.861  -2.058   4.896  0.00  0.00    +0.029 C 
ATOM     13  C   UNL     1      -1.475  -2.938   5.987  0.00  0.00    -0.008 C 
ATOM     14  C   UNL     1      -0.404  -3.290   7.022  0.00  0.00    +0.007 C 
ATOM     15  C   UNL     1       0.140  -2.005   7.649  0.00  0.00    -0.008 C 
ATOM     16  C   UNL     1       0.753  -1.124   6.559  0.00  0.00    +0.029 C 
ATOM     17  C   UNL     1      -1.001  -1.249   8.333  0.00  0.00    +0.007 C 
ATOM     18  C   UNL     1      -2.072  -0.898   7.299  0.00  0.00    -0.008 C 
ATOM     19  C   UNL     1      -2.616  -2.183   6.671  0.00  0.00    +0.007 C 
ATOM     20  C   UNL     1      -1.459  -0.017   6.208  0.00  0.00    +0.029 C 
ENDBRANCH   9  11
BRANCH   1  21
ATOM     21  C   UNL     1      -0.753   1.591  -1.231  0.00  0.00    +0.150 C 
BRANCH  21  26
ATOM     22  C   UNL     1      -3.259   1.662  -1.365  0.00  0.00    +0.131 A 
ATOM     23  C   UNL     1      -4.233   0.723  -1.386  0.00  0.00    +0.066 A 
ATOM     24  N   UNL     1      -3.618  -0.463  -1.316  0.00  0.00    -0.136 NA
ATOM     25  N   UNL     1      -2.348  -0.271  -1.261  0.00  0.00    -0.066 NA
ATOM     26  N   UNL     1      -2.088   0.989  -1.282  0.00  0.00    -0.251 N 
BRANCH  23  27
ATOM     27  C   UNL     1      -5.718   0.966  -1.472  0.00  0.00    -0.027 C 
BRANCH  27  28
ATOM     28  N   UNL     1      -6.147   0.881  -2.875  0.00  0.00    +0.382 N 
ATOM     29  H   UNL     1      -7.231   1.059  -2.938  0.00  0.00    -0.090 HD
ATOM     30  H   UNL     1      -5.915  -0.119  -3.270  0.00  0.00    -0.090 HD
ATOM     31  H   UNL     1      -5.616   1.641  -3.467  0.00  0.00    -0.090 HD
ENDBRANCH  27  28
ENDBRANCH  23  27
ENDBRANCH  21  26
ENDBRANCH   1  21
TORSDOF 5
