REMARK  Name = ZINC38596222
REMARK  9 active torsions:
REMARK  status: ('A' for Active; 'I' for Inactive)
REMARK    1  A    between atoms: C_1  and  C_2
REMARK    2  A    between atoms: C_2  and  C_4
REMARK    3  A    between atoms: C_2  and  N_24
REMARK    4  A    between atoms: C_4  and  C_6
REMARK    5  A    between atoms: C_4  and  N_11
REMARK    6  A    between atoms: N_14  and  C_17
REMARK    7  A    between atoms: C_17  and  C_18
REMARK    8  A    between atoms: N_24  and  S_25
REMARK    9  A    between atoms: S_25  and  C_28
REMARK                            x       y       z     vdW  Elec       q    Type
REMARK                         _______ _______ _______ _____ _____    ______ ____
ROOT
ATOM      1  C   UNL     1      -1.427  -0.534   0.139  0.00  0.00    +0.112 C 
ENDROOT
BRANCH   1   2
ATOM      2  N   UNL     1      -2.432  -0.059  -0.821  0.00  0.00    -0.297 NA
ATOM      3  C   UNL     1      -3.735  -0.693  -0.576  0.00  0.00    +0.066 C 
ATOM      4  C   UNL     1      -4.766  -0.127  -1.556  0.00  0.00    -0.063 C 
ATOM      5  N   UNL     1      -4.327  -0.387  -2.933  0.00  0.00    +0.384 N 
ATOM      6  C   UNL     1      -3.036   0.273  -3.170  0.00  0.00    -0.063 C 
ATOM      7  C   UNL     1      -1.991  -0.289  -2.204  0.00  0.00    +0.066 C 
ATOM      8  H   UNL     1      -4.226  -1.382  -3.072  0.00  0.00    -0.081 HD
BRANCH   5   9
ATOM      9  C   UNL     1      -5.325   0.139  -3.873  0.00  0.00    -0.043 C 
BRANCH   9  10
ATOM     10  C   UNL     1      -4.937  -0.234  -5.280  0.00  0.00    -0.064 A 
ATOM     11  C   UNL     1      -4.128   0.607  -6.021  0.00  0.00    +0.002 A 
ATOM     12  C   UNL     1      -3.771   0.264  -7.311  0.00  0.00    +0.000 A 
ATOM     13  C   UNL     1      -4.224  -0.920  -7.862  0.00  0.00    +0.000 A 
ATOM     14  C   UNL     1      -5.033  -1.762  -7.122  0.00  0.00    +0.000 A 
ATOM     15  C   UNL     1      -5.385  -1.421  -5.829  0.00  0.00    +0.002 A 
ENDBRANCH   9  10
ENDBRANCH   5   9
ENDBRANCH   1   2
BRANCH   1  16
ATOM     16  C   UNL     1      -1.909  -0.274   1.542  0.00  0.00    +0.008 A 
ATOM     17  C   UNL     1      -1.805  -1.062   2.640  0.00  0.00    +0.013 A 
ATOM     18  C   UNL     1      -2.327  -0.613   3.839  0.00  0.00    +0.008 A 
ATOM     19  C   UNL     1      -2.927   0.602   3.881  0.00  0.00    +0.045 A 
ATOM     20  S   UNL     1      -2.760   1.155   2.192  0.00  0.00    -0.100 S 
ENDBRANCH   1  16
BRANCH   1  22
ATOM     21  C   UNL     1      -0.352   1.716  -0.015  0.00  0.00    +0.027 C 
ATOM     22  C   UNL     1      -0.109   0.208  -0.093  0.00  0.00    +0.095 C 
BRANCH  22  23
ATOM     23  N   UNL     1       0.860  -0.184   0.933  0.00  0.00    -0.185 NA
ATOM     24  H   UNL     1       0.559  -0.373   1.836  0.00  0.00    +0.148 HD
BRANCH  23  25
ATOM     25  S   UNL     1       2.467  -0.304   0.553  0.00  0.00    +0.059 S 
ATOM     26  O   UNL     1       3.141  -0.671   1.749  0.00  0.00    -0.153 OA
ATOM     27  O   UNL     1       2.546  -1.080  -0.635  0.00  0.00    -0.153 OA
BRANCH  25  28
ATOM     28  C   UNL     1       3.026   1.314   0.136  0.00  0.00    +0.107 A 
ATOM     29  C   UNL     1       2.954   1.754  -1.173  0.00  0.00    +0.031 A 
ATOM     30  C   UNL     1       3.391   3.022  -1.502  0.00  0.00    +0.042 A 
ATOM     31  C   UNL     1       3.902   3.854  -0.520  0.00  0.00    +0.142 A 
ATOM     32  C   UNL     1       3.975   3.413   0.791  0.00  0.00    +0.078 A 
ATOM     33  C   UNL     1       3.531   2.144   1.119  0.00  0.00    +0.051 A 
ATOM     34 CL   UNL     1       4.615   4.454   2.024  0.00  0.00    -0.081 Cl
ATOM     35  F   UNL     1       4.331   5.095  -0.841  0.00  0.00    -0.204 F 
ENDBRANCH  25  28
ENDBRANCH  23  25
ENDBRANCH  22  23
ENDBRANCH   1  22
TORSDOF 8
