REMARK  Name = ZINC64773623
REMARK  9 active torsions:
REMARK  status: ('A' for Active; 'I' for Inactive)
REMARK    1  A    between atoms: C_1  and  O_2
REMARK    2  A    between atoms: O_2  and  C_3
REMARK    3  A    between atoms: C_5  and  C_14
REMARK    4  A    between atoms: C_8  and  O_9
REMARK    5  A    between atoms: O_9  and  C_10
REMARK    6  A    between atoms: C_10  and  C_11
REMARK    7  A    between atoms: C_22  and  S_28
REMARK    8  A    between atoms: S_28  and  C_29
REMARK    9  A    between atoms: C_29  and  C_30
REMARK                            x       y       z     vdW  Elec       q    Type
REMARK                         _______ _______ _______ _____ _____    ______ ____
ROOT
ATOM      1  C   UNL     1       2.403   0.379  -4.230  0.00  0.00    +0.047 C 
ATOM      2  C   UNL     1       1.737   0.049  -5.569  0.00  0.00    +0.105 C 
ATOM      3  C   UNL     1       2.518   0.625  -6.713  0.00  0.00    +0.219 C 
ATOM      4  O   UNL     1       1.953   0.769  -7.777  0.00  0.00    -0.275 OA
ATOM      5  N   UNL     1       3.804   0.991  -6.625  0.00  0.00    -0.273 N 
ATOM      6  C   UNL     1       4.472   0.927  -5.435  0.00  0.00    +0.117 C 
ATOM      7  N   UNL     1       5.569   1.604  -5.250  0.00  0.00    -0.212 NA
ATOM      8  C   UNL     1       6.184   1.655  -4.062  0.00  0.00    +0.182 C 
ATOM      9  N   UNL     1       5.694   1.055  -2.987  0.00  0.00    -0.154 NA
ATOM     10  C   UNL     1       4.602   0.305  -3.045  0.00  0.00    +0.249 C 
ATOM     11  O   UNL     1       4.165  -0.193  -2.026  0.00  0.00    -0.273 OA
ATOM     12  C   UNL     1       3.897   0.062  -4.343  0.00  0.00    +0.148 C 
ATOM     13  H   UNL     1       4.267   1.305  -7.417  0.00  0.00    +0.156 HD
ENDROOT
BRANCH   1  16
ATOM     14  C   UNL     1       0.606  -0.608  -1.056  0.00  0.00    +0.162 A 
ATOM     15  C   UNL     1       1.173   0.159  -2.062  0.00  0.00    +0.053 A 
ATOM     16  C   UNL     1       1.787  -0.456  -3.137  0.00  0.00    -0.039 A 
ATOM     17  C   UNL     1       1.837  -1.836  -3.212  0.00  0.00    +0.008 A 
ATOM     18  C   UNL     1       1.273  -2.606  -2.212  0.00  0.00    +0.050 A 
ATOM     19  C   UNL     1       0.662  -1.996  -1.129  0.00  0.00    +0.163 A 
BRANCH  14  21
ATOM     20  C   UNL     1      -0.017   1.425   0.010  0.00  0.00    +0.277 C 
ATOM     21  O   UNL     1       0.002  -0.004   0.002  0.00  0.00    -0.491 OA
ENDBRANCH  14  21
BRANCH  19  22
ATOM     22  O   UNL     1       0.112  -2.753  -0.142  0.00  0.00    -0.479 OA
BRANCH  22  23
ATOM     23  C   UNL     1       0.206  -4.171  -0.283  0.00  0.00    +0.324 C 
BRANCH  23  24
ATOM     24  C   UNL     1      -0.453  -4.838   0.897  0.00  0.00    +0.248 C 
ATOM     25  O   UNL     1      -0.954  -4.165   1.772  0.00  0.00    -0.272 OA
ATOM     26  N   UNL     1      -0.485  -6.183   0.979  0.00  0.00    -0.327 N 
ATOM     27  H   UNL     1      -0.084  -6.722   0.279  0.00  0.00    +0.145 HD
ATOM     28  H   UNL     1      -0.910  -6.613   1.738  0.00  0.00    +0.145 HD
ENDBRANCH  23  24
ENDBRANCH  22  23
ENDBRANCH  19  22
ENDBRANCH   1  16
BRANCH   8  29
ATOM     29  S   UNL     1       7.696   2.549  -3.924  0.00  0.00    -0.084 S 
BRANCH  29  30
ATOM     30  C   UNL     1       8.163   2.355  -2.181  0.00  0.00    +0.112 C 
BRANCH  30  31
ATOM     31  C   UNL     1       9.457   3.083  -1.924  0.00  0.00    -0.037 A 
ATOM     32  C   UNL     1      10.663   2.425  -2.086  0.00  0.00    +0.007 A 
ATOM     33  C   UNL     1      11.851   3.091  -1.851  0.00  0.00    +0.038 A 
ATOM     34  C   UNL     1      11.833   4.417  -1.453  0.00  0.00    +0.123 A 
ATOM     35  C   UNL     1      10.626   5.075  -1.291  0.00  0.00    +0.038 A 
ATOM     36  C   UNL     1       9.439   4.408  -1.532  0.00  0.00    +0.007 A 
ATOM     37  F   UNL     1      12.994   5.069  -1.222  0.00  0.00    -0.205 F 
ENDBRANCH  30  31
ENDBRANCH  29  30
ENDBRANCH   8  29
TORSDOF 8
