REMARK  Name = ZINC20208739
REMARK  9 active torsions:
REMARK  status: ('A' for Active; 'I' for Inactive)
REMARK    1  A    between atoms: C_1  and  C_2
REMARK    2  A    between atoms: C_2  and  C_3
REMARK    3  A    between atoms: C_2  and  C_4
REMARK    4  A    between atoms: C_4  and  S_5
REMARK    5  A    between atoms: S_5  and  C_8
REMARK    6  A    between atoms: C_14  and  C_15
REMARK    7  A    between atoms: C_18  and  O_21
REMARK    8  A    between atoms: O_21  and  C_22
REMARK    9  A    between atoms: C_22  and  C_24
REMARK                            x       y       z     vdW  Elec       q    Type
REMARK                         _______ _______ _______ _____ _____    ______ ____
ROOT
ATOM      1  C   UNL     1      -4.583  -0.014  -2.481  0.00  0.00    +0.235 C 
ATOM      2  N   UNL     1      -5.692   0.399  -1.936  0.00  0.00    -0.145 NA
ATOM      3  N   UNL     1      -6.677  -0.487  -1.557  0.00  0.00    -0.150 N 
ATOM      4  C   UNL     1      -7.946  -0.141  -1.044  0.00  0.00    +0.153 C 
ATOM      5  N   UNL     1      -8.509   1.020  -1.246  0.00  0.00    -0.283 NA
ATOM      6  C   UNL     1      -8.579  -1.232  -0.250  0.00  0.00    +0.081 C 
ATOM      7  C   UNL     1      -9.393  -0.966   0.828  0.00  0.00    +0.024 C 
ATOM      8  C   UNL     1      -8.286  -2.621  -0.683  0.00  0.00    +0.273 C 
ATOM      9  O   UNL     1      -9.057  -3.533  -0.434  0.00  0.00    -0.268 OA
ATOM     10  N   UNL     1      -7.143  -2.845  -1.361  0.00  0.00    -0.152 NA
ATOM     11  C   UNL     1      -6.402  -1.828  -1.722  0.00  0.00    +0.182 C 
ATOM     12  S   UNL     1      -4.818  -1.786  -2.519  0.00  0.00    -0.015 S 
ATOM     13  H   UNL     1      -8.024   1.720  -1.709  0.00  0.00    +0.188 HD
ENDROOT
BRANCH   7  14
ATOM     14  C   UNL     1      -9.508   0.403   1.338  0.00  0.00    -0.024 A 
ATOM     15  C   UNL     1     -10.729   0.862   1.852  0.00  0.00    +0.011 A 
ATOM     16  C   UNL     1     -10.831   2.144   2.328  0.00  0.00    +0.047 A 
ATOM     17  C   UNL     1      -9.726   2.988   2.302  0.00  0.00    +0.132 A 
ATOM     18  C   UNL     1      -8.511   2.538   1.794  0.00  0.00    +0.047 A 
ATOM     19  C   UNL     1      -8.396   1.257   1.320  0.00  0.00    +0.011 A 
BRANCH  17  20
ATOM     20  O   UNL     1      -9.833   4.256   2.774  0.00  0.00    -0.422 OA
BRANCH  20  21
ATOM     21  C   UNL     1     -10.055   4.424   4.094  0.00  0.00    +0.351 C 
ATOM     22  O   UNL     1     -10.058   3.461   4.838  0.00  0.00    -0.244 OA
BRANCH  21  23
ATOM     23  C   UNL     1     -10.291   5.764   4.632  0.00  0.00    +0.097 A 
ATOM     24  C   UNL     1     -10.532   6.151   5.943  0.00  0.00    +0.022 A 
ATOM     25  C   UNL     1     -10.719   7.497   6.143  0.00  0.00    +0.008 A 
ATOM     26  C   UNL     1     -10.659   8.336   5.079  0.00  0.00    +0.046 A 
ATOM     27  S   UNL     1     -10.339   7.327   3.775  0.00  0.00    -0.090 S 
ENDBRANCH  21  23
ENDBRANCH  20  21
ENDBRANCH  17  20
ENDBRANCH   7  14
BRANCH   1  28
ATOM     28  S   UNL     1      -3.207   0.931  -3.043  0.00  0.00    +0.022 S 
ATOM     29  O   UNL     1      -3.723   2.241  -3.239  0.00  0.00    -0.167 OA
ATOM     30  O   UNL     1      -2.678   0.190  -4.133  0.00  0.00    -0.167 OA
BRANCH  28  31
ATOM     31  C   UNL     1      -2.038   0.923  -1.656  0.00  0.00    +0.177 C 
BRANCH  31  33
ATOM     32  C   UNL     1      -1.169   3.192  -2.236  0.00  0.00    +0.009 C 
ATOM     33  C   UNL     1      -0.790   1.723  -2.035  0.00  0.00    +0.004 C 
ATOM     34  C   UNL     1       0.247   1.613  -0.916  0.00  0.00    +0.009 C 
ENDBRANCH  31  33
ENDBRANCH  28  31
ENDBRANCH   1  28
TORSDOF 7
