REMARK  Name = ZINC17326500
REMARK  5 active torsions:
REMARK  status: ('A' for Active; 'I' for Inactive)
REMARK    1  A    between atoms: C_1  and  C_2
REMARK    2  A    between atoms: C_5  and  C_8
REMARK    3  A    between atoms: C_9  and  C_10
REMARK    4  A    between atoms: C_10  and  C_16
REMARK    5  A    between atoms: N_11  and  N_12
REMARK                            x       y       z     vdW  Elec       q    Type
REMARK                         _______ _______ _______ _____ _____    ______ ____
ROOT
ATOM      1  C   UNL     1      -0.051   1.454   0.079  0.00  0.00    +0.091 C 
ATOM      2  N   UNL     1      -1.193   2.053  -0.198  0.00  0.00    -0.171 NA
ENDROOT
BRANCH   2   3
ATOM      3  N   UNL     1      -2.250   1.351  -0.428  0.00  0.00    -0.248 N 
ATOM      4  C   UNL     1      -3.394   1.951  -0.705  0.00  0.00    +0.187 C 
ATOM      5  N   UNL     1      -3.458   3.319  -0.748  0.00  0.00    -0.370 N 
ATOM      6  N   UNL     1      -4.517   1.205  -0.950  0.00  0.00    -0.370 N 
ATOM      7  H   UNL     1      -4.410   3.818  -0.978  0.00  0.00    +0.159 HD
ATOM      8  H   UNL     1      -2.556   3.917  -0.551  0.00  0.00    +0.159 HD
ATOM      9  H   UNL     1      -5.470   1.704  -1.180  0.00  0.00    +0.159 HD
ATOM     10  H   UNL     1      -4.466   0.106  -0.915  0.00  0.00    +0.159 HD
ATOM     11  H   UNL     1      -2.199   0.252  -0.394  0.00  0.00    +0.192 HD
ENDBRANCH   2   3
BRANCH   1  12
ATOM     12  C   UNL     1       1.088   2.239   0.605  0.00  0.00    +0.002 A 
ATOM     13  C   UNL     1       2.298   1.609   0.899  0.00  0.00    +0.010 A 
ATOM     14  C   UNL     1       3.357   2.348   1.383  0.00  0.00    +0.001 A 
ATOM     15  C   UNL     1       3.219   3.708   1.590  0.00  0.00    +0.000 A 
ATOM     16  C   UNL     1       2.020   4.339   1.307  0.00  0.00    +0.001 A 
ATOM     17  C   UNL     1       0.955   3.612   0.816  0.00  0.00    +0.010 A 
ENDBRANCH   1  12
BRANCH   1  19
ATOM     18  C   UNL     1      -0.881  -0.672  -0.774  0.00  0.00    +0.010 C 
ATOM     19  C   UNL     1       0.092   0.013  -0.141  0.00  0.00    +0.030 C 
BRANCH  18  24
ATOM     20  C   UNL     1      -0.674  -6.413  -0.998  0.00  0.00    +0.044 C 
ATOM     21  C   UNL     1      -0.728  -4.908  -0.940  0.00  0.00    -0.050 A 
ATOM     22  C   UNL     1      -1.779  -4.234  -1.536  0.00  0.00    +0.004 A 
ATOM     23  C   UNL     1      -1.836  -2.857  -1.487  0.00  0.00    +0.008 A 
ATOM     24  C   UNL     1      -0.828  -2.142  -0.832  0.00  0.00    -0.025 A 
ATOM     25  C   UNL     1       0.233  -2.831  -0.236  0.00  0.00    +0.008 A 
ATOM     26  C   UNL     1       0.273  -4.208  -0.289  0.00  0.00    +0.004 A 
ENDBRANCH  18  24
ENDBRANCH   1  19
TORSDOF 4
