REMARK  Name = ZINC36704384
REMARK  9 active torsions:
REMARK  status: ('A' for Active; 'I' for Inactive)
REMARK    1  A    between atoms: C_1  and  N_2
REMARK    2  A    between atoms: N_2  and  C_3
REMARK    3  A    between atoms: N_2  and  C_4
REMARK    4  A    between atoms: C_4  and  C_5
REMARK    5  A    between atoms: C_5  and  C_6
REMARK    6  A    between atoms: C_6  and  N_7
REMARK    7  A    between atoms: C_19  and  C_21
REMARK    8  A    between atoms: N_26  and  S_27
REMARK    9  A    between atoms: S_27  and  C_30
REMARK                            x       y       z     vdW  Elec       q    Type
REMARK                         _______ _______ _______ _____ _____    ______ ____
ROOT
ATOM      1  N   UNL     1      -2.123  -4.242  -0.422  0.00  0.00    -0.249 N 
ATOM      2  C   UNL     1      -1.988  -5.084   0.671  0.00  0.00    +0.168 A 
ATOM      3  N   UNL     1      -1.274  -4.912   1.758  0.00  0.00    -0.221 NA
ATOM      4  C   UNL     1      -1.236  -5.826   2.754  0.00  0.00    +0.116 A 
ATOM      5  C   UNL     1      -0.513  -5.764   3.969  0.00  0.00    +0.152 A 
ATOM      6  C   UNL     1      -0.584  -6.787   4.881  0.00  0.00    +0.079 A 
ATOM      7  C   UNL     1      -1.363  -7.913   4.646  0.00  0.00    +0.127 A 
ATOM      8  C   UNL     1      -2.084  -8.005   3.468  0.00  0.00    +0.055 A 
ATOM      9  C   UNL     1      -2.018  -6.985   2.551  0.00  0.00    +0.046 A 
ATOM     10  S   UNL     1      -2.748  -6.675   0.961  0.00  0.00    -0.052 S 
ATOM     11  F   UNL     1      -1.417  -8.908   5.559  0.00  0.00    -0.205 F 
ATOM     12  F   UNL     1       0.258  -4.686   4.234  0.00  0.00    -0.203 F 
ATOM     13  C   UNL     1      -2.917  -4.597  -1.452  0.00  0.00    +0.240 C 
ATOM     14  O   UNL     1      -3.583  -5.608  -1.383  0.00  0.00    -0.273 OA
ENDROOT
BRANCH  13  15
ATOM     15  C   UNL     1      -2.978  -3.737  -2.688  0.00  0.00    +0.166 C 
ATOM     16  C   UNL     1      -4.128  -2.716  -2.561  0.00  0.00    +0.031 C 
ATOM     17  C   UNL     1      -4.707  -2.664  -3.999  0.00  0.00    +0.019 C 
ATOM     18  C   UNL     1      -4.541  -4.136  -4.455  0.00  0.00    +0.110 C 
ATOM     19  N   UNL     1      -3.258  -4.572  -3.865  0.00  0.00    -0.164 NA
BRANCH  19  20
ATOM     20  S   UNL     1      -2.297  -5.795  -4.432  0.00  0.00    +0.068 S 
ATOM     21  O   UNL     1      -2.603  -5.946  -5.811  0.00  0.00    -0.152 OA
ATOM     22  O   UNL     1      -0.981  -5.525  -3.969  0.00  0.00    -0.152 OA
BRANCH  20  23
ATOM     23  C   UNL     1      -2.816  -7.278  -3.635  0.00  0.00    +0.143 A 
ATOM     24  C   UNL     1      -3.750  -8.178  -4.030  0.00  0.00    +0.036 A 
ATOM     25  C   UNL     1      -3.995  -9.282  -3.237  0.00  0.00    +0.010 A 
ATOM     26  C   UNL     1      -3.295  -9.434  -2.086  0.00  0.00    +0.047 A 
ATOM     27  S   UNL     1      -2.244  -7.990  -2.101  0.00  0.00    -0.077 S 
ENDBRANCH  20  23
ENDBRANCH  19  20
ENDBRANCH  13  15
BRANCH   1  28
ATOM     28  C   UNL     1      -1.401  -2.968  -0.459  0.00  0.00    +0.114 C 
BRANCH  28  29
ATOM     29  C   UNL     1      -0.000  -3.191  -1.032  0.00  0.00    +0.001 C 
BRANCH  29  30
ATOM     30  C   UNL     1       0.753  -1.859  -1.070  0.00  0.00    -0.078 C 
BRANCH  30  32
ATOM     31  C   UNL     1       2.778  -0.780  -1.768  0.00  0.00    -0.097 C 
ATOM     32  N   UNL     1       2.098  -2.074  -1.620  0.00  0.00    +0.376 N 
ATOM     33  C   UNL     1       2.869  -2.930  -0.709  0.00  0.00    -0.097 C 
ATOM     34  H   UNL     1       2.025  -2.521  -2.522  0.00  0.00    -0.083 HD
ENDBRANCH  30  32
ENDBRANCH  29  30
ENDBRANCH  28  29
ENDBRANCH   1  28
TORSDOF 7
