REMARK  Name = ZINC36207681
REMARK  9 active torsions:
REMARK  status: ('A' for Active; 'I' for Inactive)
REMARK    1  A    between atoms: C_1  and  C_2
REMARK    2  A    between atoms: C_7  and  C_8
REMARK    3  A    between atoms: C_17  and  C_19
REMARK    4  A    between atoms: C_19  and  N_20
REMARK    5  A    between atoms: N_20  and  C_21
REMARK    6  A    between atoms: N_20  and  C_26
REMARK    7  A    between atoms: C_21  and  C_22
REMARK    8  A    between atoms: C_22  and  C_24
REMARK    9  A    between atoms: C_22  and  O_25
REMARK                            x       y       z     vdW  Elec       q    Type
REMARK                         _______ _______ _______ _____ _____    ______ ____
ROOT
ATOM      1  C   UNL     1      -0.639  -0.677   2.851  0.00  0.00    +0.004 A 
ATOM      2  C   UNL     1       0.417  -0.844   3.683  0.00  0.00    +0.056 A 
ATOM      3  S   UNL     1       0.111   0.341   4.980  0.00  0.00    -0.076 S 
ATOM      4  C   UNL     1      -1.411   1.026   4.379  0.00  0.00    +0.116 A 
ATOM      5  C   UNL     1      -1.644   0.325   3.185  0.00  0.00    +0.080 A 
ATOM      6  C   UNL     1      -2.832   0.689   2.474  0.00  0.00    +0.260 A 
ATOM      7  O   UNL     1      -3.123   0.132   1.429  0.00  0.00    -0.267 OA
ATOM      8  N   UNL     1      -3.624   1.654   2.978  0.00  0.00    -0.312 N 
ATOM      9  H   UNL     1      -4.430   1.904   2.500  0.00  0.00    +0.170 HD
ATOM     10  C   UNL     1      -3.316   2.283   4.141  0.00  0.00    +0.094 A 
ATOM     11  N   UNL     1      -2.244   1.967   4.816  0.00  0.00    -0.229 NA
ENDROOT
BRANCH   1  18
ATOM     12  C   UNL     1      -0.490   0.606   0.261  0.00  0.00    +0.044 C 
ATOM     13  C   UNL     1      -0.696  -0.884   0.367  0.00  0.00    -0.043 A 
ATOM     14  C   UNL     1      -0.809  -1.649  -0.776  0.00  0.00    +0.004 A 
ATOM     15  C   UNL     1      -0.997  -3.016  -0.681  0.00  0.00    +0.000 A 
ATOM     16  C   UNL     1      -1.073  -3.624   0.559  0.00  0.00    +0.001 A 
ATOM     17  C   UNL     1      -0.962  -2.870   1.709  0.00  0.00    +0.009 A 
ATOM     18  C   UNL     1      -0.766  -1.492   1.619  0.00  0.00    -0.014 A 
ENDBRANCH   1  18
BRANCH  10  19
ATOM     19  C   UNL     1      -4.233   3.358   4.666  0.00  0.00    -0.003 C 
BRANCH  19  20
ATOM     20  N   UNL     1      -3.695   3.887   5.926  0.00  0.00    +0.388 N 
ATOM     21  H   UNL     1      -3.555   3.129   6.577  0.00  0.00    -0.081 HD
BRANCH  20  22
ATOM     22  C   UNL     1      -4.644   4.853   6.497  0.00  0.00    -0.068 C 
ATOM     23  C   UNL     1      -4.029   5.500   7.739  0.00  0.00    -0.015 C 
ATOM     24  C   UNL     1      -5.017   6.505   8.333  0.00  0.00    -0.002 C 
ATOM     25  C   UNL     1      -6.308   5.783   8.721  0.00  0.00    -0.000 C 
ATOM     26  C   UNL     1      -6.924   5.136   7.479  0.00  0.00    -0.002 C 
ATOM     27  C   UNL     1      -5.935   4.130   6.885  0.00  0.00    -0.015 C 
ENDBRANCH  20  22
BRANCH  20  28
ATOM     28  C   UNL     1      -2.412   4.555   5.669  0.00  0.00    -0.046 C 
BRANCH  28  29
ATOM     29  C   UNL     1      -2.648   5.800   4.812  0.00  0.00    +0.095 C 
ATOM     30  C   UNL     1      -1.352   6.608   4.718  0.00  0.00    +0.035 C 
BRANCH  29  31
ATOM     31  O   UNL     1      -3.059   5.406   3.502  0.00  0.00    -0.394 OA
ATOM     32  H   UNL     1      -2.449   4.797   3.065  0.00  0.00    +0.210 HD
ENDBRANCH  29  31
ENDBRANCH  28  29
ENDBRANCH  20  28
ENDBRANCH  19  20
ENDBRANCH  10  19
TORSDOF 7
