REMARK  Name = ZINC39710947
REMARK  13 active torsions:
REMARK  status: ('A' for Active; 'I' for Inactive)
REMARK    1  A    between atoms: C_1  and  C_2
REMARK    2  A    between atoms: C_2  and  C_3
REMARK    3  A    between atoms: C_3  and  C_4
REMARK    4  A    between atoms: C_3  and  C_5
REMARK    5  A    between atoms: C_3  and  N_6
REMARK    6  A    between atoms: C_7  and  C_12
REMARK    7  A    between atoms: C_12  and  C_14
REMARK    8  A    between atoms: C_12  and  N_27
REMARK    9  A    between atoms: C_21  and  C_26
REMARK   10  A    between atoms: N_27  and  C_28
REMARK   11  A    between atoms: N_27  and  C_35
REMARK   12  A    between atoms: C_28  and  C_29
REMARK   13  A    between atoms: C_35  and  C_36
REMARK                            x       y       z     vdW  Elec       q    Type
REMARK                         _______ _______ _______ _____ _____    ______ ____
ROOT
ATOM      1  C   UNL     1       3.059  -1.624   2.422  0.00  0.00    -0.009 C 
ENDROOT
BRANCH   1   2
ATOM      2  C   UNL     1       1.533  -1.516   2.400  0.00  0.00    +0.088 C 
ATOM      3  C   UNL     1       1.154  -0.173   2.994  0.00  0.00    -0.006 C 
ATOM      4  C   UNL     1       0.332  -0.181   4.082  0.00  0.00    -0.007 A 
ATOM      5  C   UNL     1      -0.083   1.070   4.718  0.00  0.00    +0.009 A 
ATOM      6  C   UNL     1      -0.902   1.013   5.800  0.00  0.00    +0.001 A 
ATOM      7  C   UNL     1      -1.349  -0.206   6.311  0.00  0.00    +0.005 A 
ATOM      8  C   UNL     1      -0.999  -1.400   5.766  0.00  0.00    -0.029 A 
ATOM      9  C   UNL     1      -0.155  -1.454   4.642  0.00  0.00    +0.043 A 
ATOM     10  N   UNL     1       0.180  -2.631   4.116  0.00  0.00    -0.284 N 
ATOM     11  C   UNL     1       0.970  -2.752   3.063  0.00  0.00    +0.223 C 
ATOM     12  O   UNL     1       1.242  -3.856   2.628  0.00  0.00    -0.275 OA
ATOM     13  C   UNL     1      -1.520  -2.679   6.372  0.00  0.00    +0.045 C 
ATOM     14  H   UNL     1      -0.171  -3.437   4.526  0.00  0.00    +0.155 HD
ENDBRANCH   1   2
BRANCH   1  16
ATOM     15  N   UNL     1       3.293  -0.113   0.482  0.00  0.00    -0.182 NA
ATOM     16  C   UNL     1       3.603  -1.462   1.002  0.00  0.00    +0.205 C 
ATOM     17  N   UNL     1       2.918  -2.378   0.080  0.00  0.00    -0.152 NA
ATOM     18  N   UNL     1       2.339  -1.716  -0.784  0.00  0.00    -0.070 NA
ATOM     19  N   UNL     1       2.510  -0.342  -0.619  0.00  0.00    -0.179 N 
ATOM     20  H   UNL     1       2.134   0.344  -1.194  0.00  0.00    +0.191 HD
BRANCH  15  21
ATOM     21  C   UNL     1       2.572   0.684   1.483  0.00  0.00    +0.037 C 
ATOM     22  C   UNL     1       2.986   0.235   2.886  0.00  0.00    +0.029 C 
ATOM     23  C   UNL     1       1.066   0.484   1.307  0.00  0.00    +0.029 C 
BRANCH  21  25
ATOM     24  C   UNL     1       2.265   2.981   2.418  0.00  0.00    +0.006 C 
ATOM     25  C   UNL     1       2.915   2.164   1.300  0.00  0.00    +0.020 C 
ENDBRANCH  21  25
ENDBRANCH  15  21
ENDBRANCH   1  16
BRANCH   1  26
ATOM     26  N   UNL     1       3.449  -2.939   2.948  0.00  0.00    +0.390 N 
ATOM     27  H   UNL     1       2.986  -3.663   2.419  0.00  0.00    -0.080 HD
BRANCH  26  28
ATOM     28  C   UNL     1       4.904  -3.102   2.832  0.00  0.00    -0.042 C 
BRANCH  28  29
ATOM     29  C   UNL     1       5.271  -4.541   3.088  0.00  0.00    -0.064 A 
ATOM     30  C   UNL     1       5.434  -4.993   4.384  0.00  0.00    +0.002 A 
ATOM     31  C   UNL     1       5.770  -6.313   4.619  0.00  0.00    +0.000 A 
ATOM     32  C   UNL     1       5.944  -7.181   3.557  0.00  0.00    +0.000 A 
ATOM     33  C   UNL     1       5.780  -6.729   2.261  0.00  0.00    +0.000 A 
ATOM     34  C   UNL     1       5.439  -5.410   2.026  0.00  0.00    +0.002 A 
ENDBRANCH  28  29
ENDBRANCH  26  28
BRANCH  26  35
ATOM     35  C   UNL     1       3.056  -3.038   4.360  0.00  0.00    -0.042 C 
BRANCH  35  36
ATOM     36  C   UNL     1       3.867  -2.064   5.176  0.00  0.00    -0.064 A 
ATOM     37  C   UNL     1       5.162  -2.380   5.542  0.00  0.00    +0.004 A 
ATOM     38  C   UNL     1       5.906  -1.488   6.290  0.00  0.00    +0.038 A 
ATOM     39  C   UNL     1       5.354  -0.277   6.673  0.00  0.00    +0.123 A 
ATOM     40  C   UNL     1       4.057   0.038   6.306  0.00  0.00    +0.038 A 
ATOM     41  C   UNL     1       3.317  -0.854   5.554  0.00  0.00    +0.004 A 
ATOM     42  F   UNL     1       6.081   0.596   7.405  0.00  0.00    -0.205 F 
ENDBRANCH  35  36
ENDBRANCH  26  35
ENDBRANCH   1  26
TORSDOF 9
