REMARK  Name = ZINC13450491
REMARK  4 active torsions:
REMARK  status: ('A' for Active; 'I' for Inactive)
REMARK    1  A    between atoms: C_1  and  C_2
REMARK    2  A    between atoms: C_15  and  C_17
REMARK    3  A    between atoms: C_21  and  C_32
REMARK    4  A    between atoms: C_24  and  C_28
REMARK                            x       y       z     vdW  Elec       q    Type
REMARK                         _______ _______ _______ _____ _____    ______ ____
ROOT
ATOM      1  C   UNL     1       4.596  -1.415  -1.291  0.00  0.00    +0.110 C 
ATOM      2  C   UNL     1       5.510  -0.735  -2.026  0.00  0.00    +0.072 C 
ATOM      3  C   UNL     1       5.817  -1.551  -3.199  0.00  0.00    +0.114 C 
ATOM      4  N   UNL     1       6.625  -1.315  -4.193  0.00  0.00    -0.362 N 
ATOM      5  C   UNL     1       6.725  -2.297  -5.280  0.00  0.00    +0.149 C 
ATOM      6  C   UNL     1       6.506  -3.713  -4.746  0.00  0.00    +0.065 C 
ATOM      7  C   UNL     1       5.133  -3.803  -4.062  0.00  0.00    +0.202 C 
ATOM      8  N   UNL     1       5.064  -2.713  -3.082  0.00  0.00    -0.226 N 
ATOM      9  N   UNL     1       4.309  -2.616  -1.920  0.00  0.00    -0.258 N 
ATOM     10  H   UNL     1       3.679  -3.281  -1.601  0.00  0.00    +0.170 HD
ATOM     11  H   UNL     1       7.154  -0.502  -4.216  0.00  0.00    +0.162 HD
ENDROOT
BRANCH   1  23
ATOM     12  C   UNL     1       0.053   1.639   0.006  0.00  0.00    +0.008 C 
ATOM     13  C   UNL     1       0.031   0.110  -0.042  0.00  0.00    -0.008 C 
ATOM     14  C   UNL     1       0.758  -0.373  -1.300  0.00  0.00    +0.022 C 
ATOM     15  C   UNL     1       2.205   0.128  -1.285  0.00  0.00    +0.109 C 
ATOM     16  N   UNL     1       2.841  -0.274  -0.021  0.00  0.00    -0.293 N 
ATOM     17  C   UNL     1       2.172   0.084   1.235  0.00  0.00    +0.080 C 
ATOM     18  C   UNL     1       0.735  -0.450   1.193  0.00  0.00    +0.012 C 
ATOM     19  C   UNL     1       0.006  -0.029   2.468  0.00  0.00    +0.005 C 
ATOM     20  C   UNL     1       0.728  -0.631   3.677  0.00  0.00    +0.000 C 
ATOM     21  C   UNL     1       2.174  -0.137   3.719  0.00  0.00    +0.002 C 
ATOM     22  C   UNL     1       2.902  -0.534   2.427  0.00  0.00    +0.023 C 
ATOM     23  C   UNL     1       4.005  -0.952  -0.016  0.00  0.00    +0.262 C 
ATOM     24  O   UNL     1       4.570  -1.183   1.035  0.00  0.00    -0.269 OA
ENDBRANCH   1  23
BRANCH   5  25
ATOM     25  C   UNL     1       5.681  -1.992  -6.323  0.00  0.00    +0.127 A 
ATOM     26  C   UNL     1       5.852  -2.074  -7.654  0.00  0.00    +0.047 A 
ATOM     27  C   UNL     1       4.624  -1.702  -8.249  0.00  0.00    +0.041 A 
ATOM     28  C   UNL     1       3.776  -1.416  -7.245  0.00  0.00    +0.195 A 
ATOM     29  O   UNL     1       4.420  -1.599  -6.080  0.00  0.00    -0.466 OA
ENDBRANCH   5  25
BRANCH   7  30
ATOM     30  C   UNL     1       4.990  -5.152  -3.354  0.00  0.00    +0.410 C 
ATOM     31  F   UNL     1       5.995  -5.281  -2.390  0.00  0.00    -0.169 F 
ATOM     32  F   UNL     1       3.737  -5.223  -2.735  0.00  0.00    -0.169 F 
ATOM     33  F   UNL     1       5.107  -6.184  -4.291  0.00  0.00    -0.169 F 
ENDBRANCH   7  30
TORSDOF 3
