REMARK  Name = ZINC08053761
REMARK  7 active torsions:
REMARK  status: ('A' for Active; 'I' for Inactive)
REMARK    1  A    between atoms: C_1  and  C_2
REMARK    2  A    between atoms: C_2  and  C_3
REMARK    3  A    between atoms: C_6  and  C_9
REMARK    4  A    between atoms: N_11  and  C_12
REMARK    5  A    between atoms: C_12  and  N_14
REMARK    6  A    between atoms: N_14  and  C_15
REMARK    7  A    between atoms: C_16  and  C_23
REMARK                            x       y       z     vdW  Elec       q    Type
REMARK                         _______ _______ _______ _____ _____    ______ ____
ROOT
ATOM      1  N   UNL     1       2.077  -2.848   8.030  0.00  0.00    -0.291 N 
ATOM      2  H   UNL     1       1.118  -2.703   8.063  0.00  0.00    +0.154 HD
ENDROOT
BRANCH   1   3
ATOM      3  C   UNL     1       2.747  -3.308   9.153  0.00  0.00    +0.084 A 
ATOM      4  C   UNL     1       2.217  -3.615  10.393  0.00  0.00    +0.068 A 
ATOM      5  C   UNL     1       3.146  -4.085  11.419  0.00  0.00    -0.023 A 
ATOM      6  C   UNL     1       4.426  -4.156  11.011  0.00  0.00    -0.004 A 
ATOM      7  S   UNL     1       4.385  -3.625   9.318  0.00  0.00    -0.077 S 
ATOM      8  C   UNL     1       5.338  -4.640  12.105  0.00  0.00    +0.043 C 
ATOM      9  C   UNL     1       4.520  -4.461  13.403  0.00  0.00    +0.010 C 
ATOM     10  C   UNL     1       3.073  -4.537  12.876  0.00  0.00    +0.037 C 
BRANCH   4  11
ATOM     11  C   UNL     1       0.784  -3.476  10.666  0.00  0.00    +0.244 C 
ATOM     12  O   UNL     1       0.033  -4.412  10.467  0.00  0.00    -0.270 OA
ATOM     13  N   UNL     1       0.299  -2.311  11.139  0.00  0.00    -0.325 N 
ATOM     14  H   UNL     1       0.898  -1.565  11.298  0.00  0.00    +0.145 HD
ATOM     15  H   UNL     1      -0.650  -2.218  11.320  0.00  0.00    +0.145 HD
ENDBRANCH   4  11
ENDBRANCH   1   3
BRANCH   1  16
ATOM     16  C   UNL     1       2.757  -2.603   6.893  0.00  0.00    +0.141 C 
ATOM     17  S   UNL     1       4.449  -2.859   6.835  0.00  0.00    -0.018 S 
BRANCH  16  20
ATOM     18  C   UNL     1       2.785  -1.911   4.663  0.00  0.00    +0.250 C 
ATOM     19  O   UNL     1       3.986  -2.092   4.622  0.00  0.00    -0.270 OA
ATOM     20  N   UNL     1       2.105  -2.156   5.801  0.00  0.00    -0.264 N 
ATOM     21  H   UNL     1       1.146  -2.011   5.834  0.00  0.00    +0.157 HD
BRANCH  18  25
ATOM     22  C   UNL     1       0.731  -0.503   1.223  0.00  0.00    -0.048 A 
ATOM     23  C   UNL     1       2.098  -0.709   1.173  0.00  0.00    +0.004 A 
ATOM     24  C   UNL     1       2.772  -1.165   2.287  0.00  0.00    +0.013 A 
ATOM     25  C   UNL     1       2.070  -1.421   3.466  0.00  0.00    +0.037 A 
ATOM     26  C   UNL     1       0.691  -1.211   3.510  0.00  0.00    +0.013 A 
ATOM     27  C   UNL     1       0.031  -0.749   2.391  0.00  0.00    +0.004 A 
BRANCH  22  29
ATOM     28  C   UNL     1      -0.019   1.526   0.010  0.00  0.00    +0.009 C 
ATOM     29  C   UNL     1       0.002  -0.004   0.002  0.00  0.00    +0.032 C 
ENDBRANCH  22  29
ENDBRANCH  18  25
ENDBRANCH  16  20
ENDBRANCH   1  16
TORSDOF 6
