REMARK  Name = ZINC38535849
REMARK  8 active torsions:
REMARK  status: ('A' for Active; 'I' for Inactive)
REMARK    1  A    between atoms: C_4  and  O_7
REMARK    2  A    between atoms: O_7  and  C_8
REMARK    3  A    between atoms: C_8  and  C_9
REMARK    4  A    between atoms: N_17  and  C_18
REMARK    5  A    between atoms: C_18  and  C_19
REMARK    6  A    between atoms: N_22  and  C_25
REMARK    7  A    between atoms: C_25  and  C_26
REMARK    8  A    between atoms: C_30  and  N_32
REMARK                            x       y       z     vdW  Elec       q    Type
REMARK                         _______ _______ _______ _____ _____    ______ ____
ROOT
ATOM      1  C   UNL     1       5.246  -2.743   2.438  0.00  0.00    +0.127 C 
ENDROOT
BRANCH   1  10
ATOM      2  C   UNL     1       4.932  -2.615  -0.061  0.00  0.00    +0.149 A 
ATOM      3  N   UNL     1       5.616  -2.879  -1.136  0.00  0.00    -0.229 NA
ATOM      4  C   UNL     1       6.836  -3.366  -0.793  0.00  0.00    +0.089 A 
ATOM      5  C   UNL     1       7.942  -3.800  -1.528  0.00  0.00    +0.030 A 
ATOM      6  C   UNL     1       9.058  -4.248  -0.879  0.00  0.00    +0.002 A 
ATOM      7  C   UNL     1       9.107  -4.277   0.507  0.00  0.00    +0.002 A 
ATOM      8  C   UNL     1       8.027  -3.853   1.253  0.00  0.00    +0.028 A 
ATOM      9  C   UNL     1       6.885  -3.395   0.611  0.00  0.00    +0.069 A 
ATOM     10  N   UNL     1       5.668  -2.909   1.045  0.00  0.00    -0.325 N 
BRANCH   2  11
ATOM     11  C   UNL     1       3.531  -2.060  -0.044  0.00  0.00    +0.303 C 
BRANCH  11  12
ATOM     12  O   UNL     1       3.586  -0.632  -0.037  0.00  0.00    -0.484 OA
BRANCH  12  16
ATOM     13  C   UNL     1      -0.017   1.378   0.010  0.00  0.00    +0.000 A 
ATOM     14  C   UNL     1       1.170   2.088   0.002  0.00  0.00    +0.004 A 
ATOM     15  C   UNL     1       2.377   1.417  -0.013  0.00  0.00    +0.045 A 
ATOM     16  C   UNL     1       2.399   0.030  -0.021  0.00  0.00    +0.121 A 
ATOM     17  C   UNL     1       1.207  -0.680  -0.013  0.00  0.00    +0.045 A 
ATOM     18  C   UNL     1       0.002  -0.004   0.002  0.00  0.00    +0.004 A 
ENDBRANCH  12  16
ENDBRANCH  11  12
ENDBRANCH   2  11
ENDBRANCH   1  10
BRANCH   1  19
ATOM     19  C   UNL     1       4.567  -4.026   2.921  0.00  0.00    +0.005 C 
ATOM     20  C   UNL     1       3.270  -4.245   2.138  0.00  0.00    -0.014 C 
ATOM     21  C   UNL     1       2.556  -5.486   2.681  0.00  0.00    -0.078 C 
ATOM     22  N   UNL     1       2.245  -5.293   4.102  0.00  0.00    +0.382 N 
ATOM     23  C   UNL     1       3.488  -5.153   4.870  0.00  0.00    -0.078 C 
ATOM     24  C   UNL     1       4.237  -3.900   4.412  0.00  0.00    -0.014 C 
ATOM     25  H   UNL     1       1.687  -4.459   4.213  0.00  0.00    -0.081 HD
BRANCH  22  26
ATOM     26  C   UNL     1       1.492  -6.452   4.599  0.00  0.00    -0.043 C 
BRANCH  26  27
ATOM     27  C   UNL     1       1.066  -6.202   6.022  0.00  0.00    -0.062 A 
ATOM     28  C   UNL     1       1.891  -6.575   7.067  0.00  0.00    +0.002 A 
ATOM     29  C   UNL     1       1.500  -6.346   8.373  0.00  0.00    +0.002 A 
ATOM     30  C   UNL     1       0.283  -5.743   8.634  0.00  0.00    +0.033 A 
ATOM     31  C   UNL     1      -0.541  -5.368   7.590  0.00  0.00    +0.126 A 
ATOM     32  C   UNL     1      -0.148  -5.594   6.284  0.00  0.00    +0.034 A 
BRANCH  31  33
ATOM     33  N   UNL     1      -1.843  -4.723   7.870  0.00  0.00    +0.056 N 
ATOM     34  O   UNL     1      -2.186  -4.523   9.012  0.00  0.00    -0.126 OA
ATOM     35  O   UNL     1      -2.564  -4.396   6.956  0.00  0.00    -0.126 OA
ENDBRANCH  31  33
ENDBRANCH  26  27
ENDBRANCH  22  26
ENDBRANCH   1  19
TORSDOF 8
