REMARK  Name = ZINC63182659
REMARK  8 active torsions:
REMARK  status: ('A' for Active; 'I' for Inactive)
REMARK    1  A    between atoms: C_7  and  C_10
REMARK    2  A    between atoms: C_10  and  C_11
REMARK    3  A    between atoms: C_11  and  C_13
REMARK    4  A    between atoms: C_11  and  N_26
REMARK    5  A    between atoms: N_15  and  C_16
REMARK    6  A    between atoms: C_19  and  S_22
REMARK    7  A    between atoms: S_22  and  N_25
REMARK    8  A    between atoms: C_27  and  C_29
REMARK                            x       y       z     vdW  Elec       q    Type
REMARK                         _______ _______ _______ _____ _____    ______ ____
ROOT
ATOM      1  C   UNL     1       0.458  -3.654  -1.468  0.00  0.00    +0.163 C 
ENDROOT
BRANCH   1   2
ATOM      2  C   UNL     1      -0.385  -4.903  -1.451  0.00  0.00    +0.238 C 
ATOM      3  O   UNL     1      -1.576  -4.834  -1.669  0.00  0.00    -0.273 OA
ATOM      4  N   UNL     1       0.185  -6.097  -1.193  0.00  0.00    -0.284 N 
ATOM      5  H   UNL     1       1.147  -6.162  -1.084  0.00  0.00    +0.155 HD
BRANCH   4   6
ATOM      6  C   UNL     1      -0.611  -7.243  -1.081  0.00  0.00    +0.034 A 
ATOM      7  C   UNL     1      -0.276  -8.237  -0.171  0.00  0.00    +0.025 A 
ATOM      8  C   UNL     1      -1.063  -9.366  -0.063  0.00  0.00    +0.030 A 
ATOM      9  C   UNL     1      -2.185  -9.508  -0.859  0.00  0.00    +0.105 A 
ATOM     10  C   UNL     1      -2.521  -8.520  -1.766  0.00  0.00    +0.030 A 
ATOM     11  C   UNL     1      -1.741  -7.385  -1.875  0.00  0.00    +0.025 A 
BRANCH   9  12
ATOM     12  S   UNL     1      -3.187 -10.950  -0.718  0.00  0.00    +0.056 S 
ATOM     13  O   UNL     1      -3.871 -11.092  -1.955  0.00  0.00    -0.153 OA
ATOM     14  O   UNL     1      -2.355 -11.972  -0.185  0.00  0.00    -0.153 OA
BRANCH  12  15
ATOM     15  N   UNL     1      -4.341 -10.634   0.427  0.00  0.00    -0.204 NA
ATOM     16  H   UNL     1      -5.211 -11.060   0.369  0.00  0.00    +0.144 HD
ATOM     17  H   UNL     1      -4.147 -10.024   1.156  0.00  0.00    +0.144 HD
ENDBRANCH  12  15
ENDBRANCH   9  12
ENDBRANCH   4   6
ENDBRANCH   1   2
BRANCH   1  18
ATOM     18  N   UNL     1      -0.240  -2.604  -2.214  0.00  0.00    -0.299 N 
ATOM     19  C   UNL     1      -1.450  -2.175  -1.801  0.00  0.00    +0.251 C 
ATOM     20  O   UNL     1      -1.961  -2.660  -0.809  0.00  0.00    -0.270 OA
ATOM     21  H   UNL     1       0.167  -2.218  -3.005  0.00  0.00    +0.150 HD
BRANCH  19  22
ATOM     22  C   UNL     1      -2.149  -1.125  -2.547  0.00  0.00    +0.074 A 
ATOM     23  C   UNL     1      -3.382  -0.544  -2.292  0.00  0.00    +0.021 A 
ATOM     24  C   UNL     1      -3.779   0.428  -3.178  0.00  0.00    +0.008 A 
ATOM     25  C   UNL     1      -2.965   0.747  -4.214  0.00  0.00    +0.046 A 
ATOM     26  S   UNL     1      -1.631  -0.255  -4.014  0.00  0.00    -0.092 S 
ENDBRANCH  19  22
ENDBRANCH   1  18
BRANCH   1  27
ATOM     27  C   UNL     1       0.703  -3.184  -0.033  0.00  0.00    +0.065 C 
BRANCH  27  34
ATOM     28  C   UNL     1       0.002   1.351  -0.003  0.00  0.00    +0.001 A 
ATOM     29  C   UNL     1       1.185   2.102  -0.020  0.00  0.00    +0.002 A 
ATOM     30  C   UNL     1       2.410   1.534  -0.043  0.00  0.00    +0.026 A 
ATOM     31  C   UNL     1       2.546   0.119  -0.050  0.00  0.00    +0.043 A 
ATOM     32  N   UNL     1       3.602  -0.657  -0.071  0.00  0.00    -0.380 N 
ATOM     33  C   UNL     1       3.157  -2.055  -0.069  0.00  0.00    +0.144 C 
ATOM     34  C   UNL     1       1.645  -2.008  -0.044  0.00  0.00    -0.039 C 
ATOM     35  C   UNL     1       1.311  -0.698  -0.033  0.00  0.00    -0.001 A 
ATOM     36  C   UNL     1       0.019  -0.002  -0.008  0.00  0.00    +0.010 A 
ATOM     37  H   UNL     1       4.524  -0.357  -0.086  0.00  0.00    +0.160 HD
ENDBRANCH  27  34
ENDBRANCH   1  27
TORSDOF 8
