REMARK  Name = ZINC36531461
REMARK  13 active torsions:
REMARK  status: ('A' for Active; 'I' for Inactive)
REMARK    1  A    between atoms: C_1  and  C_2
REMARK    2  A    between atoms: C_5  and  S_8
REMARK    3  A    between atoms: S_8  and  C_11
REMARK    4  A    between atoms: C_11  and  N_12
REMARK    5  A    between atoms: C_13  and  C_15
REMARK    6  A    between atoms: C_15  and  C_17
REMARK    7  A    between atoms: C_15  and  N_25
REMARK    8  A    between atoms: C_20  and  O_23
REMARK    9  A    between atoms: O_23  and  C_24
REMARK   10  A    between atoms: N_25  and  C_26
REMARK   11  A    between atoms: C_27  and  C_29
REMARK   12  A    between atoms: C_33  and  O_36
REMARK   13  A    between atoms: C_34  and  O_35
REMARK                            x       y       z     vdW  Elec       q    Type
REMARK                         _______ _______ _______ _____ _____    ______ ____
ROOT
ATOM      1  C   UNL     1       4.615  -6.322   4.919  0.00  0.00    +0.192 C 
ENDROOT
BRANCH   1   2
ATOM      2  C   UNL     1       5.181  -6.805   6.230  0.00  0.00    -0.018 A 
ATOM      3  C   UNL     1       4.502  -7.758   6.966  0.00  0.00    +0.009 A 
ATOM      4  C   UNL     1       5.018  -8.202   8.168  0.00  0.00    +0.046 A 
ATOM      5  C   UNL     1       6.220  -7.691   8.635  0.00  0.00    +0.120 A 
ATOM      6  C   UNL     1       6.901  -6.736   7.894  0.00  0.00    +0.046 A 
ATOM      7  C   UNL     1       6.383  -6.299   6.691  0.00  0.00    +0.009 A 
BRANCH   5   8
ATOM      8  O   UNL     1       6.731  -8.126   9.818  0.00  0.00    -0.495 OA
ATOM      9  C   UNL     1       7.972  -7.557  10.237  0.00  0.00    +0.277 C 
ENDBRANCH   5   8
ENDBRANCH   1   2
BRANCH   1  11
ATOM     10  N   UNL     1       5.774  -7.258   2.944  0.00  0.00    -0.294 N 
ATOM     11  C   UNL     1       4.801  -7.387   3.869  0.00  0.00    +0.239 C 
ATOM     12  O   UNL     1       4.076  -8.359   3.855  0.00  0.00    -0.273 OA
ATOM     13  H   UNL     1       6.354  -6.481   2.955  0.00  0.00    +0.150 HD
BRANCH  10  14
ATOM     14  C   UNL     1       5.955  -8.293   1.923  0.00  0.00    +0.278 C 
BRANCH  14  15
ATOM     15  S   UNL     1       5.060  -7.821   0.418  0.00  0.00    +0.013 S 
ATOM     16  O   UNL     1       3.744  -7.395   0.744  0.00  0.00    -0.168 OA
ATOM     17  O   UNL     1       5.278  -8.784  -0.604  0.00  0.00    -0.168 OA
BRANCH  15  22
ATOM     18  C   UNL     1       7.843  -2.840  -1.545  0.00  0.00    +0.044 C 
ATOM     19  C   UNL     1       7.148  -4.084  -1.055  0.00  0.00    -0.050 A 
ATOM     20  C   UNL     1       7.574  -5.327  -1.483  0.00  0.00    +0.005 A 
ATOM     21  C   UNL     1       6.936  -6.469  -1.033  0.00  0.00    +0.027 A 
ATOM     22  C   UNL     1       5.873  -6.366  -0.155  0.00  0.00    +0.090 A 
ATOM     23  C   UNL     1       5.449  -5.122   0.274  0.00  0.00    +0.027 A 
ATOM     24  C   UNL     1       6.089  -3.982  -0.173  0.00  0.00    +0.005 A 
ENDBRANCH  15  22
ENDBRANCH  14  15
ENDBRANCH  10  14
ENDBRANCH   1  11
BRANCH   1  25
ATOM     25  N   UNL     1       3.187  -6.039   5.079  0.00  0.00    -0.285 N 
ATOM     26  C   UNL     1       2.196  -7.071   4.765  0.00  0.00    +0.133 C 
ATOM     27  C   UNL     1       2.784  -4.829   5.515  0.00  0.00    +0.251 C 
ATOM     28  O   UNL     1       1.606  -4.621   5.729  0.00  0.00    -0.270 OA
BRANCH  27  29
ATOM     29  C   UNL     1       3.774  -3.757   5.733  0.00  0.00    +0.082 A 
ATOM     30  C   UNL     1       4.664  -3.404   4.713  0.00  0.00    +0.017 A 
ATOM     31  C   UNL     1       5.586  -2.402   4.920  0.00  0.00    +0.005 A 
ATOM     32  C   UNL     1       5.639  -1.739   6.135  0.00  0.00    +0.049 A 
ATOM     33  C   UNL     1       4.765  -2.077   7.155  0.00  0.00    +0.159 A 
ATOM     34  C   UNL     1       3.824  -3.083   6.959  0.00  0.00    +0.171 A 
BRANCH  34  35
ATOM     35  O   UNL     1       2.962  -3.414   7.954  0.00  0.00    -0.503 OA
ATOM     36  H   UNL     1       3.290  -4.105   8.546  0.00  0.00    +0.292 HD
ENDBRANCH  34  35
BRANCH  33  37
ATOM     37  O   UNL     1       4.823  -1.422   8.345  0.00  0.00    -0.503 OA
ATOM     38  H   UNL     1       4.260  -0.637   8.390  0.00  0.00    +0.292 HD
ENDBRANCH  33  37
ENDBRANCH  27  29
ENDBRANCH   1  25
TORSDOF 10
