REMARK  Name = ZINC38628865
REMARK  7 active torsions:
REMARK  status: ('A' for Active; 'I' for Inactive)
REMARK    1  A    between atoms: C_4  and  C_7
REMARK    2  A    between atoms: C_7  and  N_8
REMARK    3  A    between atoms: C_9  and  C_11
REMARK    4  A    between atoms: C_11  and  S_12
REMARK    5  A    between atoms: S_12  and  C_13
REMARK    6  A    between atoms: C_17  and  C_25
REMARK    7  A    between atoms: N_18  and  C_19
REMARK                            x       y       z     vdW  Elec       q    Type
REMARK                         _______ _______ _______ _____ _____    ______ ____
ROOT
ATOM      1  C   UNL     1       7.464  -2.756   4.508  0.00  0.00    +0.241 C 
ATOM      2  N   UNL     1       7.619  -1.561   5.354  0.00  0.00    -0.237 N 
ATOM      3  N   UNL     1       6.974  -1.842   6.563  0.00  0.00    -0.169 NA
ATOM      4  C   UNL     1       6.454  -3.042   6.556  0.00  0.00    +0.151 C 
ATOM      5  N   UNL     1       6.697  -3.696   5.342  0.00  0.00    -0.254 N 
ATOM      6  H   UNL     1       8.079  -0.739   5.118  0.00  0.00    +0.171 HD
ENDROOT
BRANCH   4   7
ATOM      7  C   UNL     1       5.746  -3.604   7.629  0.00  0.00    +0.022 C 
ATOM      8  C   UNL     1       5.556  -3.051   8.896  0.00  0.00    +0.006 A 
ATOM      9  C   UNL     1       5.979  -1.838   9.480  0.00  0.00    +0.010 A 
ATOM     10  C   UNL     1       5.640  -1.554  10.764  0.00  0.00    +0.001 A 
ATOM     11  C   UNL     1       4.876  -2.438  11.531  0.00  0.00    +0.002 A 
ATOM     12  C   UNL     1       4.437  -3.620  11.034  0.00  0.00    +0.026 A 
ATOM     13  C   UNL     1       4.751  -3.986   9.700  0.00  0.00    +0.043 A 
ATOM     14  N   UNL     1       4.449  -5.058   8.995  0.00  0.00    -0.380 N 
ATOM     15  C   UNL     1       5.022  -4.932   7.652  0.00  0.00    +0.152 C 
ATOM     16  H   UNL     1       3.926  -5.811   9.314  0.00  0.00    +0.160 HD
ENDBRANCH   4   7
BRANCH   5  17
ATOM     17  C   UNL     1       6.290  -4.985   4.989  0.00  0.00    +0.038 A 
ATOM     18  C   UNL     1       5.026  -5.194   4.451  0.00  0.00    +0.023 A 
ATOM     19  C   UNL     1       4.628  -6.469   4.103  0.00  0.00    +0.002 A 
ATOM     20  C   UNL     1       5.485  -7.538   4.288  0.00  0.00    +0.000 A 
ATOM     21  C   UNL     1       6.744  -7.334   4.823  0.00  0.00    +0.002 A 
ATOM     22  C   UNL     1       7.151  -6.060   5.168  0.00  0.00    +0.023 A 
ENDBRANCH   5  17
BRANCH   1  23
ATOM     23  S   UNL     1       6.545  -2.350   2.998  0.00  0.00    -0.108 S 
BRANCH  23  24
ATOM     24  C   UNL     1       4.984  -1.656   3.608  0.00  0.00    +0.168 C 
BRANCH  24  26
ATOM     25  N   UNL     1       2.898  -0.731   2.652  0.00  0.00    -0.311 N 
ATOM     26  C   UNL     1       4.114  -1.272   2.438  0.00  0.00    +0.223 C 
ATOM     27  O   UNL     1       4.509  -1.449   1.305  0.00  0.00    -0.275 OA
ATOM     28  H   UNL     1       2.583  -0.589   3.558  0.00  0.00    +0.149 HD
BRANCH  25  29
ATOM     29  C   UNL     1       2.053  -0.357   1.515  0.00  0.00    +0.139 C 
BRANCH  29  33
ATOM     30  C   UNL     1      -1.623   1.278   2.948  0.00  0.00    +0.000 A 
ATOM     31  C   UNL     1      -0.542   2.108   2.715  0.00  0.00    +0.000 A 
ATOM     32  C   UNL     1       0.648   1.578   2.252  0.00  0.00    +0.005 A 
ATOM     33  C   UNL     1       0.756   0.220   2.021  0.00  0.00    -0.030 A 
ATOM     34  C   UNL     1      -0.325  -0.610   2.255  0.00  0.00    +0.005 A 
ATOM     35  C   UNL     1      -1.515  -0.080   2.718  0.00  0.00    +0.000 A 
ENDBRANCH  29  33
ENDBRANCH  25  29
ENDBRANCH  24  26
ENDBRANCH  23  24
ENDBRANCH   1  23
TORSDOF 7
