REMARK  Name = ZINC36205705
REMARK  15 active torsions:
REMARK  status: ('A' for Active; 'I' for Inactive)
REMARK    1  A    between atoms: C_1  and  C_2
REMARK    2  A    between atoms: C_7  and  C_8
REMARK    3  A    between atoms: C_17  and  C_19
REMARK    4  A    between atoms: C_19  and  N_20
REMARK    5  A    between atoms: N_20  and  C_21
REMARK    6  A    between atoms: N_20  and  C_27
REMARK    7  A    between atoms: C_21  and  C_22
REMARK    8  A    between atoms: C_27  and  C_28
REMARK    9  A    between atoms: C_28  and  C_30
REMARK   10  A    between atoms: C_28  and  O_36
REMARK   11  A    between atoms: C_30  and  O_31
REMARK   12  A    between atoms: O_31  and  C_32
REMARK   13  A    between atoms: C_32  and  C_33
REMARK   14  A    between atoms: C_32  and  C_34
REMARK   15  A    between atoms: C_32  and  C_35
REMARK                            x       y       z     vdW  Elec       q    Type
REMARK                         _______ _______ _______ _____ _____    ______ ____
ROOT
ATOM      1  C   UNL     1      -3.948   3.184   5.095  0.00  0.00    -0.003 C 
ENDROOT
BRANCH   1  11
ATOM      2  C   UNL     1       0.415  -0.173   3.616  0.00  0.00    +0.004 A 
ATOM      3  C   UNL     1       1.460  -0.072   4.473  0.00  0.00    +0.056 A 
ATOM      4  S   UNL     1       0.893   1.113   5.678  0.00  0.00    -0.076 S 
ATOM      5  C   UNL     1      -0.717   1.442   5.011  0.00  0.00    +0.116 A 
ATOM      6  C   UNL     1      -0.776   0.630   3.866  0.00  0.00    +0.080 A 
ATOM      7  C   UNL     1      -1.993   0.704   3.116  0.00  0.00    +0.260 A 
ATOM      8  O   UNL     1      -2.140   0.033   2.109  0.00  0.00    -0.267 OA
ATOM      9  N   UNL     1      -2.972   1.525   3.539  0.00  0.00    -0.312 N 
ATOM     10  H   UNL     1      -3.798   1.579   3.035  0.00  0.00    +0.170 HD
ATOM     11  C   UNL     1      -2.825   2.279   4.659  0.00  0.00    +0.094 A 
ATOM     12  N   UNL     1      -1.730   2.227   5.369  0.00  0.00    -0.229 NA
BRANCH   2  19
ATOM     13  C   UNL     1       0.378   0.938   0.945  0.00  0.00    +0.044 C 
ATOM     14  C   UNL     1       0.467  -0.552   1.153  0.00  0.00    -0.043 A 
ATOM     15  C   UNL     1       0.536  -1.398   0.065  0.00  0.00    +0.004 A 
ATOM     16  C   UNL     1       0.618  -2.766   0.254  0.00  0.00    +0.000 A 
ATOM     17  C   UNL     1       0.629  -3.294   1.533  0.00  0.00    +0.001 A 
ATOM     18  C   UNL     1       0.559  -2.457   2.628  0.00  0.00    +0.009 A 
ATOM     19  C   UNL     1       0.484  -1.077   2.444  0.00  0.00    -0.014 A 
ENDBRANCH   2  19
ENDBRANCH   1  11
BRANCH   1  20
ATOM     20  N   UNL     1      -3.559   3.892   6.322  0.00  0.00    +0.391 N 
ATOM     21  H   UNL     1      -3.253   3.223   7.013  0.00  0.00    -0.080 HD
BRANCH  20  22
ATOM     22  C   UNL     1      -2.463   4.824   6.023  0.00  0.00    -0.002 C 
BRANCH  22  23
ATOM     23  C   UNL     1      -2.002   5.482   7.297  0.00  0.00    +0.089 A 
ATOM     24  C   UNL     1      -1.108   4.975   8.166  0.00  0.00    +0.042 A 
ATOM     25  C   UNL     1      -0.973   5.917   9.211  0.00  0.00    +0.041 A 
ATOM     26  C   UNL     1      -1.792   6.943   8.920  0.00  0.00    +0.195 A 
ATOM     27  O   UNL     1      -2.409   6.676   7.756  0.00  0.00    -0.470 OA
ENDBRANCH  22  23
ENDBRANCH  20  22
BRANCH  20  28
ATOM     28  C   UNL     1      -4.711   4.641   6.841  0.00  0.00    -0.044 C 
BRANCH  28  29
ATOM     29  C   UNL     1      -5.773   3.660   7.343  0.00  0.00    +0.124 C 
BRANCH  29  30
ATOM     30  O   UNL     1      -6.369   2.993   6.228  0.00  0.00    -0.391 OA
ATOM     31  H   UNL     1      -6.803   3.587   5.601  0.00  0.00    +0.210 HD
ENDBRANCH  29  30
BRANCH  29  32
ATOM     32  C   UNL     1      -6.849   4.424   8.116  0.00  0.00    +0.189 C 
BRANCH  32  33
ATOM     33  O   UNL     1      -7.777   3.498   8.682  0.00  0.00    -0.372 OA
BRANCH  33  34
ATOM     34  C   UNL     1      -8.829   4.112   9.429  0.00  0.00    +0.061 C 
ATOM     35  C   UNL     1      -9.625   5.047   8.516  0.00  0.00    +0.041 C 
ATOM     36  C   UNL     1      -9.758   3.031   9.986  0.00  0.00    +0.041 C 
ATOM     37  C   UNL     1      -8.231   4.916  10.585  0.00  0.00    +0.041 C 
ENDBRANCH  33  34
ENDBRANCH  32  33
ENDBRANCH  29  32
ENDBRANCH  28  29
ENDBRANCH  20  28
ENDBRANCH   1  20
TORSDOF 11
