REMARK  Name = ZINC64746102
REMARK  7 active torsions:
REMARK  status: ('A' for Active; 'I' for Inactive)
REMARK    1  A    between atoms: C_1  and  C_2
REMARK    2  A    between atoms: C_2  and  O_3
REMARK    3  A    between atoms: O_3  and  C_4
REMARK    4  A    between atoms: C_7  and  C_10
REMARK    5  A    between atoms: C_11  and  N_30
REMARK    6  A    between atoms: N_21  and  C_24
REMARK    7  A    between atoms: N_30  and  C_31
REMARK                            x       y       z     vdW  Elec       q    Type
REMARK                         _______ _______ _______ _____ _____    ______ ____
ROOT
ATOM      1  C   UNL     1       1.107  -6.019  -1.845  0.00  0.00    +0.114 A 
ATOM      2  C   UNL     1       1.068  -6.690  -3.030  0.00  0.00    +0.150 A 
ATOM      3  N   UNL     1       1.211  -8.042  -2.752  0.00  0.00    -0.190 N 
ATOM      4  C   UNL     1       1.331  -8.119  -1.387  0.00  0.00    +0.199 A 
ATOM      5  N   UNL     1       1.276  -6.934  -0.855  0.00  0.00    -0.218 NA
ATOM      6  S   UNL     1       1.509  -9.867  -1.116  0.00  0.00    -0.013 S 
ATOM      7  C   UNL     1       1.413 -10.383  -2.822  0.00  0.00    +0.184 A 
ATOM      8  N   UNL     1       1.261  -9.247  -3.446  0.00  0.00    -0.140 NA
ATOM      9  N   UNL     1       1.483 -11.662  -3.350  0.00  0.00    -0.312 N 
ATOM     10  C   UNL     1       1.389 -11.889  -4.800  0.00  0.00    +0.088 C 
ATOM     11  C   UNL     1       2.561 -12.777  -5.230  0.00  0.00    -0.059 C 
ATOM     12  N   UNL     1       2.565 -14.005  -4.424  0.00  0.00    +0.384 N 
ATOM     13  C   UNL     1       2.814 -13.677  -3.015  0.00  0.00    -0.059 C 
ATOM     14  C   UNL     1       1.660 -12.832  -2.476  0.00  0.00    +0.088 C 
ATOM     15  H   UNL     1       1.670 -14.464  -4.508  0.00  0.00    -0.081 HD
ENDROOT
BRANCH   1  19
ATOM     16  C   UNL     1       0.777  -1.810  -1.336  0.00  0.00    +0.121 A 
ATOM     17  C   UNL     1       0.241  -2.667  -0.384  0.00  0.00    +0.046 A 
ATOM     18  C   UNL     1       0.346  -4.033  -0.546  0.00  0.00    +0.014 A 
ATOM     19  C   UNL     1       0.992  -4.553  -1.668  0.00  0.00    +0.004 A 
ATOM     20  C   UNL     1       1.528  -3.689  -2.623  0.00  0.00    +0.014 A 
ATOM     21  C   UNL     1       1.415  -2.324  -2.457  0.00  0.00    +0.046 A 
BRANCH  16  22
ATOM     22  O   UNL     1       0.671  -0.465  -1.174  0.00  0.00    -0.492 OA
BRANCH  22  24
ATOM     23  C   UNL     1      -0.019   1.526   0.010  0.00  0.00    +0.048 C 
ATOM     24  C   UNL     1       0.002  -0.004   0.002  0.00  0.00    +0.225 C 
ENDBRANCH  22  24
ENDBRANCH  16  22
ENDBRANCH   1  19
BRANCH  12  25
ATOM     25  C   UNL     1       3.620 -14.904  -4.910  0.00  0.00    -0.068 C 
ATOM     26  C   UNL     1       3.356 -15.256  -6.375  0.00  0.00    -0.015 C 
ATOM     27  C   UNL     1       4.455 -16.193  -6.881  0.00  0.00    -0.002 C 
ATOM     28  C   UNL     1       4.460 -17.473  -6.042  0.00  0.00    -0.000 C 
ATOM     29  C   UNL     1       4.724 -17.121  -4.576  0.00  0.00    -0.002 C 
ATOM     30  C   UNL     1       3.625 -16.184  -4.071  0.00  0.00    -0.015 C 
ENDBRANCH  12  25
BRANCH   2  31
ATOM     31  N   UNL     1       0.911  -6.120  -4.298  0.00  0.00    -0.324 N 
ATOM     32  H   UNL     1       0.818  -5.159  -4.389  0.00  0.00    +0.148 HD
BRANCH  31  33
ATOM     33  C   UNL     1       0.888  -6.974  -5.487  0.00  0.00    +0.072 C 
ATOM     34  C   UNL     1       2.324  -7.198  -6.005  0.00  0.00    +0.022 C 
ATOM     35  C   UNL     1       2.176  -7.199  -7.547  0.00  0.00    +0.002 C 
ATOM     36  C   UNL     1       1.109  -6.103  -7.789  0.00  0.00    +0.002 C 
ATOM     37  C   UNL     1       0.116  -6.278  -6.622  0.00  0.00    +0.022 C 
ENDBRANCH  31  33
ENDBRANCH   2  31
TORSDOF 6
