REMARK  Name = ZINC44452903
REMARK  5 active torsions:
REMARK  status: ('A' for Active; 'I' for Inactive)
REMARK    1  A    between atoms: C_1  and  C_2
REMARK    2  A    between atoms: N_4  and  N_5
REMARK    3  A    between atoms: C_6  and  C_8
REMARK    4  A    between atoms: C_12  and  N_13
REMARK    5  A    between atoms: C_14  and  C_16
REMARK                            x       y       z     vdW  Elec       q    Type
REMARK                         _______ _______ _______ _____ _____    ______ ____
ROOT
ATOM      1  C   UNL     1       0.037  -4.206  -2.355  0.00  0.00    +0.070 A 
ATOM      2  C   UNL     1      -1.197  -4.979  -2.353  0.00  0.00    -0.023 A 
ATOM      3  C   UNL     1      -1.005  -6.316  -2.356  0.00  0.00    -0.004 A 
ATOM      4  S   UNL     1       0.754  -6.519  -2.373  0.00  0.00    -0.077 S 
ATOM      5  C   UNL     1       1.230  -4.910  -2.371  0.00  0.00    +0.085 A 
ATOM      6  C   UNL     1      -2.047  -7.389  -2.336  0.00  0.00    +0.043 C 
ATOM      7  C   UNL     1      -3.103  -7.086  -3.407  0.00  0.00    +0.005 C 
ATOM      8  C   UNL     1      -4.191  -6.216  -2.785  0.00  0.00    +0.001 C 
ATOM      9  C   UNL     1      -3.589  -5.293  -1.728  0.00  0.00    +0.005 C 
ATOM     10  C   UNL     1      -2.578  -4.342  -2.362  0.00  0.00    +0.037 C 
ENDROOT
BRANCH   1  12
ATOM     11  N   UNL     1       0.019  -2.072  -1.177  0.00  0.00    -0.230 N 
ATOM     12  C   UNL     1       0.017  -2.740  -2.347  0.00  0.00    +0.263 C 
ATOM     13  O   UNL     1      -0.001  -2.126  -3.398  0.00  0.00    -0.269 OA
ATOM     14  H   UNL     1       0.034  -2.562  -0.339  0.00  0.00    +0.173 HD
BRANCH  11  18
ATOM     15  C   UNL     1      -0.018   1.503   0.010  0.00  0.00    +0.110 C 
ATOM     16  C   UNL     1       0.002  -0.004   0.002  0.00  0.00    +0.226 C 
ATOM     17  O   UNL     1       0.020  -0.616   1.049  0.00  0.00    -0.275 OA
ATOM     18  N   UNL     1       0.000  -0.672  -1.169  0.00  0.00    -0.234 N 
ATOM     19  H   UNL     1      -0.015  -0.182  -2.006  0.00  0.00    +0.173 HD
ENDBRANCH  11  18
ENDBRANCH   1  12
BRANCH   5  20
ATOM     20  N   UNL     1       2.518  -4.402  -2.381  0.00  0.00    -0.273 N 
ATOM     21  C   UNL     1       3.573  -5.241  -2.396  0.00  0.00    +0.284 C 
ATOM     22  O   UNL     1       3.393  -6.442  -2.401  0.00  0.00    -0.266 OA
ATOM     23  H   UNL     1       2.661  -3.443  -2.376  0.00  0.00    +0.156 HD
BRANCH  21  24
ATOM     24  C   UNL     1       4.950  -4.698  -2.406  0.00  0.00    +0.194 A 
ATOM     25  C   UNL     1       5.991  -5.567  -2.426  0.00  0.00    +0.103 A 
ATOM     26  C   UNL     1       7.358  -5.018  -2.419  0.00  0.00    +0.193 A 
ATOM     27  O   UNL     1       8.332  -5.708  -2.661  0.00  0.00    -0.287 OA
ATOM     28  C   UNL     1       7.476  -3.580  -2.103  0.00  0.00    +0.064 A 
ATOM     29  C   UNL     1       8.708  -2.997  -1.813  0.00  0.00    +0.015 A 
ATOM     30  C   UNL     1       8.772  -1.663  -1.519  0.00  0.00    +0.001 A 
ATOM     31  C   UNL     1       7.618  -0.891  -1.507  0.00  0.00    +0.004 A 
ATOM     32  C   UNL     1       6.392  -1.451  -1.792  0.00  0.00    +0.047 A 
ATOM     33  C   UNL     1       6.303  -2.806  -2.099  0.00  0.00    +0.139 A 
ATOM     34  O   UNL     1       5.116  -3.368  -2.400  0.00  0.00    -0.450 OA
ENDBRANCH  21  24
ENDBRANCH   5  20
TORSDOF 4
