REMARK  Name = ZINC52518705
REMARK  5 active torsions:
REMARK  status: ('A' for Active; 'I' for Inactive)
REMARK    1  A    between atoms: C_7  and  C_11
REMARK    2  A    between atoms: C_11  and  C_12
REMARK    3  A    between atoms: C_12  and  C_14
REMARK    4  A    between atoms: C_12  and  N_25
REMARK    5  A    between atoms: N_16  and  C_17
REMARK                            x       y       z     vdW  Elec       q    Type
REMARK                         _______ _______ _______ _____ _____    ______ ____
ROOT
ATOM      1  C   UNL     1       0.118  -3.899  -1.294  0.00  0.00    +0.148 C 
ENDROOT
BRANCH   1   2
ATOM      2  N   UNL     1       1.209  -4.651  -1.928  0.00  0.00    -0.288 NA
ATOM      3  C   UNL     1       2.459  -3.888  -1.897  0.00  0.00    +0.108 C 
ATOM      4  C   UNL     1       3.647  -4.823  -2.148  0.00  0.00    +0.181 C 
ATOM      5  S   UNL     1       3.472  -5.548  -3.807  0.00  0.00    -0.029 S 
ATOM      6  O   UNL     1       4.369  -6.645  -3.918  0.00  0.00    -0.174 OA
ATOM      7  O   UNL     1       3.533  -4.503  -4.767  0.00  0.00    -0.174 OA
ATOM      8  C   UNL     1       1.772  -6.193  -3.751  0.00  0.00    +0.181 C 
ATOM      9  C   UNL     1       0.841  -5.071  -3.282  0.00  0.00    +0.108 C 
ENDBRANCH   1   2
BRANCH   1  10
ATOM     10  C   UNL     1      -1.126  -4.749  -1.265  0.00  0.00    +0.235 C 
ATOM     11  O   UNL     1      -1.041  -5.954  -1.378  0.00  0.00    -0.274 OA
ATOM     12  N   UNL     1      -2.334  -4.170  -1.114  0.00  0.00    -0.282 N 
ATOM     13  H   UNL     1      -2.398  -3.215  -0.958  0.00  0.00    +0.155 HD
BRANCH  12  14
ATOM     14  C   UNL     1      -3.497  -4.948  -1.182  0.00  0.00    +0.069 A 
ATOM     15  C   UNL     1      -3.457  -6.291  -0.833  0.00  0.00    +0.027 A 
ATOM     16  C   UNL     1      -4.606  -7.056  -0.900  0.00  0.00    +0.022 A 
ATOM     17  C   UNL     1      -5.796  -6.486  -1.317  0.00  0.00    +0.044 A 
ATOM     18  C   UNL     1      -5.840  -5.148  -1.666  0.00  0.00    +0.060 A 
ATOM     19  C   UNL     1      -4.695  -4.375  -1.595  0.00  0.00    +0.146 A 
ATOM     20  F   UNL     1      -4.739  -3.067  -1.931  0.00  0.00    -0.203 F 
ATOM     21 CL   UNL     1      -7.236  -7.452  -1.401  0.00  0.00    -0.083 Cl
ENDBRANCH  12  14
ENDBRANCH   1  10
BRANCH   1  22
ATOM     22  C   UNL     1       0.517  -3.530   0.136  0.00  0.00    +0.065 C 
BRANCH  22  29
ATOM     23  C   UNL     1      -3.293  -4.697   2.605  0.00  0.00    +0.001 A 
ATOM     24  C   UNL     1      -4.040  -3.596   3.000  0.00  0.00    +0.002 A 
ATOM     25  C   UNL     1      -3.643  -2.321   2.663  0.00  0.00    +0.026 A 
ATOM     26  C   UNL     1      -2.482  -2.131   1.921  0.00  0.00    +0.047 A 
ATOM     27  C   UNL     1      -1.728  -3.251   1.525  0.00  0.00    +0.003 A 
ATOM     28  C   UNL     1      -2.149  -4.535   1.876  0.00  0.00    +0.010 A 
ATOM     29  C   UNL     1      -0.587  -2.724   0.772  0.00  0.00    -0.020 A 
ATOM     30  C   UNL     1      -0.709  -1.387   0.758  0.00  0.00    +0.087 A 
ATOM     31  N   UNL     1      -1.836  -1.015   1.440  0.00  0.00    -0.360 N 
ATOM     32  H   UNL     1      -2.135  -0.101   1.565  0.00  0.00    +0.165 HD
ENDBRANCH  22  29
ENDBRANCH   1  22
TORSDOF 5
