REMARK  Name = ZINC40619792
REMARK  13 active torsions:
REMARK  status: ('A' for Active; 'I' for Inactive)
REMARK    1  A    between atoms: C_1  and  C_2
REMARK    2  A    between atoms: C_2  and  C_4
REMARK    3  A    between atoms: C_2  and  N_15
REMARK    4  A    between atoms: C_9  and  C_12
REMARK    5  A    between atoms: C_12  and  C_13
REMARK    6  A    between atoms: N_15  and  S_16
REMARK    7  A    between atoms: S_16  and  C_19
REMARK    8  A    between atoms: C_24  and  N_25
REMARK    9  A    between atoms: N_25  and  CA_26
REMARK   10  A    between atoms: CA_26  and  CB_28
REMARK   11  A    between atoms: CA_26  and  C_35
REMARK   12  A    between atoms: CB_28  and  CG_29
REMARK   13  A    between atoms: C_35  and  O_36
REMARK                            x       y       z     vdW  Elec       q    Type
REMARK                         _______ _______ _______ _____ _____    ______ ____
ROOT
ATOM      1  C   UNL     1      -1.402  -2.258   1.993  0.00  0.00    +0.142 A 
ATOM      2  C   UNL     1      -0.977  -3.268   1.156  0.00  0.00    +0.113 A 
ATOM      3  N   UNL     1      -1.641  -4.406   1.077  0.00  0.00    -0.365 N 
ATOM      4  C   UNL     1      -2.730  -4.630   1.789  0.00  0.00    +0.084 A 
ATOM      5  C   UNL     1      -3.220  -3.671   2.650  0.00  0.00    +0.042 A 
ATOM      6  C   ACE A   0      -2.546  -2.456   2.767  0.00  0.00    +0.057 A 
ATOM      7  H   UNL     1      -1.319  -5.099   0.479  0.00  0.00    +0.165 HD
ENDROOT
BRANCH   1   8
ATOM      8  S   UNL     1      -0.509  -0.743   2.090  0.00  0.00    +0.062 S 
ATOM      9  O   UNL     1       0.302  -0.823   3.254  0.00  0.00    -0.153 OA
ATOM     10  O   UNL     1      -1.454   0.299   1.891  0.00  0.00    -0.153 OA
BRANCH   8  11
ATOM     11  N   UNL     1       0.524  -0.700   0.796  0.00  0.00    -0.178 NA
ATOM     12  H   UNL     1       1.483  -0.707   0.941  0.00  0.00    +0.149 HD
BRANCH  11  14
ATOM     13  C   UNL     1      -0.090   0.806  -1.031  0.00  0.00    +0.035 C 
ATOM     14  C   UNL     1      -0.011  -0.650  -0.567  0.00  0.00    +0.159 C 
BRANCH  14  15
ATOM     15  C   UNL     1       0.894  -1.424  -1.490  0.00  0.00    +0.234 C 
ATOM     16  O   UNL     1       2.036  -1.663  -1.159  0.00  0.00    -0.274 OA
ATOM     17  N   UNL     1       0.435  -1.849  -2.683  0.00  0.00    -0.300 N 
ATOM     18  C   UNL     1      -0.975  -1.662  -3.053  0.00  0.00    +0.108 C 
ATOM     19  C   UNL     1      -1.039  -0.944  -4.405  0.00  0.00    +0.022 C 
ATOM     20  C   UNL     1      -0.218  -1.726  -5.433  0.00  0.00    -0.006 C 
ATOM     21  C   UNL     1       1.244  -1.782  -4.984  0.00  0.00    +0.022 C 
ATOM     22  C   UNL     1       1.335  -2.504  -3.642  0.00  0.00    +0.108 C 
BRANCH  20  23
ATOM     23  C   UNL     1      -0.307  -1.030  -6.792  0.00  0.00    +0.037 C 
BRANCH  23  24
ATOM     24  C   UNL     1       0.408  -1.876  -7.847  0.00  0.00    +0.213 C 
ATOM     25  F   UNL     1       0.326  -1.240  -9.090  0.00  0.00    -0.249 F 
ENDBRANCH  23  24
ENDBRANCH  20  23
ENDBRANCH  14  15
ENDBRANCH  11  14
ENDBRANCH   8  11
ENDBRANCH   1   8
BRANCH   6  26
ATOM     26  N   UNL     1      -3.005  -1.464   3.629  0.00  0.00    -0.337 N 
ATOM     27  H   UNL     1      -2.561  -0.602   3.656  0.00  0.00    +0.146 HD
BRANCH  26  28
ATOM     28  CA  UNL     1      -4.158  -1.722   4.495  0.00  0.00    +0.100 C 
BRANCH  28  29
ATOM     29  CB  UNL     1      -4.106  -0.788   5.705  0.00  0.00    +0.059 C 
BRANCH  29  30
ATOM     30  CG  UNL     1      -2.897  -1.117   6.542  0.00  0.00    -0.046 A 
ATOM     31  CD2 UNL     1      -2.991  -2.055   7.554  0.00  0.00    +0.004 A 
ATOM     32  CE2 UNL     1      -1.882  -2.357   8.322  0.00  0.00    +0.000 A 
ATOM     33  CZ  UNL     1      -0.678  -1.722   8.078  0.00  0.00    +0.000 A 
ATOM     34  CE1 UNL     1      -0.584  -0.785   7.066  0.00  0.00    +0.000 A 
ATOM     35  CD1 UNL     1      -1.692  -0.486   6.295  0.00  0.00    +0.004 A 
ENDBRANCH  29  30
ENDBRANCH  28  29
BRANCH  28  36
ATOM     36  C   UNL     1      -5.449  -1.472   3.713  0.00  0.00    +0.178 C 
BRANCH  36  37
ATOM     37  O   UNL     1      -5.534  -0.089   3.364  0.00  0.00    -0.393 OA
ATOM     38  H   UNL     1      -6.364   0.157   2.932  0.00  0.00    +0.209 HD
ENDBRANCH  36  37
ENDBRANCH  28  36
ENDBRANCH  26  28
ENDBRANCH   6  26
TORSDOF 12
