REMARK  Name = ZINC39469624
REMARK  6 active torsions:
REMARK  status: ('A' for Active; 'I' for Inactive)
REMARK    1  A    between atoms: C_4  and  O_7
REMARK    2  A    between atoms: O_7  and  S_8
REMARK    3  A    between atoms: S_8  and  P_11
REMARK    4  A    between atoms: C_19  and  O_36
REMARK    5  A    between atoms: C_20  and  C_29
REMARK    6  A    between atoms: C_34  and  O_35
REMARK                            x       y       z     vdW  Elec       q    Type
REMARK                         _______ _______ _______ _____ _____    ______ ____
ROOT
ATOM      1  P   UNL     1       3.000  -2.544   2.135  0.00  0.00    +0.431 P 
ATOM      2  O   UNL     1       3.152  -3.748   1.288  0.00  0.00    -0.246 OA
ATOM      3  N   UNL     1       3.464  -2.869   3.686  0.00  0.00    -0.271 NA
ATOM      4  N   UNL     1       2.583  -3.559   4.490  0.00  0.00    +0.398 N 
ATOM      5  C   UNL     1       3.199  -3.605   5.825  0.00  0.00    -0.046 C 
ATOM      6  C   UNL     1       2.319  -4.367   6.806  0.00  0.00    +0.008 C 
ATOM      7  C   UNL     1       2.118  -5.785   6.342  0.00  0.00    +0.021 C 
ATOM      8  C   UNL     1       1.065  -6.478   6.779  0.00  0.00    +0.121 C 
ATOM      9  C   UNL     1       0.117  -5.840   7.724  0.00  0.00    +0.023 C 
ATOM     10  C   UNL     1       0.056  -4.502   7.796  0.00  0.00    -0.011 C 
ATOM     11  C   UNL     1       0.955  -3.677   6.908  0.00  0.00    +0.016 C 
ATOM     12  C   UNL     1       0.344  -3.598   5.508  0.00  0.00    -0.003 C 
ATOM     13  C   UNL     1       1.292  -2.870   4.547  0.00  0.00    -0.020 C 
ATOM     14  C   UNL     1       0.607  -2.843   3.174  0.00  0.00    +0.158 C 
ATOM     15  O   UNL     1       1.431  -2.123   2.240  0.00  0.00    -0.301 OA
ATOM     16  H   UNL     1       4.329  -2.583   4.020  0.00  0.00    +0.113 HD
ATOM     17  H   UNL     1       2.454  -4.493   4.130  0.00  0.00    -0.055 HD
ENDROOT
BRANCH   9  18
ATOM     18  C   UNL     1      -0.756  -6.676   8.583  0.00  0.00    +0.027 A 
ATOM     19  C   UNL     1      -2.110  -6.810   8.284  0.00  0.00    +0.012 A 
ATOM     20  C   UNL     1      -2.919  -7.589   9.086  0.00  0.00    +0.001 A 
ATOM     21  C   UNL     1      -2.390  -8.237  10.188  0.00  0.00    +0.004 A 
ATOM     22  C   UNL     1      -1.048  -8.111  10.495  0.00  0.00    +0.046 A 
ATOM     23  C   UNL     1      -0.223  -7.337   9.694  0.00  0.00    +0.125 A 
BRANCH  23  24
ATOM     24  O   UNL     1       1.097  -7.217   9.990  0.00  0.00    -0.506 OA
ATOM     25  H   UNL     1       1.302  -6.479  10.580  0.00  0.00    +0.292 HD
ENDBRANCH  23  24
ENDBRANCH   9  18
BRANCH   1  26
ATOM     26  S   UNL     1       4.140  -0.941   1.346  0.00  0.00    +0.209 S 
ATOM     27  O   UNL     1       5.458  -1.436   1.154  0.00  0.00    -0.126 OA
ATOM     28  O   UNL     1       3.863   0.192   2.158  0.00  0.00    -0.126 OA
BRANCH  26  29
ATOM     29  O   UNL     1       3.586  -0.632  -0.037  0.00  0.00    -0.339 OA
BRANCH  29  33
ATOM     30  C   UNL     1      -0.017   1.378   0.010  0.00  0.00    +0.000 A 
ATOM     31  C   UNL     1       1.170   2.088   0.002  0.00  0.00    +0.004 A 
ATOM     32  C   UNL     1       2.377   1.417  -0.013  0.00  0.00    +0.048 A 
ATOM     33  C   UNL     1       2.399   0.030  -0.021  0.00  0.00    +0.157 A 
ATOM     34  C   UNL     1       1.207  -0.680  -0.013  0.00  0.00    +0.048 A 
ATOM     35  C   UNL     1       0.002  -0.004   0.002  0.00  0.00    +0.004 A 
ENDBRANCH  29  33
ENDBRANCH  26  29
ENDBRANCH   1  26
BRANCH   8  36
ATOM     36  O   UNL     1       0.862  -7.755   6.361  0.00  0.00    -0.506 OA
ATOM     37  H   UNL     1       1.535  -8.078   5.746  0.00  0.00    +0.292 HD
ENDBRANCH   8  36
TORSDOF 6
