REMARK  Name = ZINC00809204
REMARK  10 active torsions:
REMARK  status: ('A' for Active; 'I' for Inactive)
REMARK    1  A    between atoms: C_1  and  C_2
REMARK    2  A    between atoms: C_5  and  N_8
REMARK    3  A    between atoms: N_8  and  S_9
REMARK    4  A    between atoms: S_9  and  C_12
REMARK    5  A    between atoms: C_15  and  N_18
REMARK    6  A    between atoms: N_18  and  C_19
REMARK    7  A    between atoms: C_21  and  C_34
REMARK    8  A    between atoms: N_23  and  C_26
REMARK    9  A    between atoms: C_29  and  C_33
REMARK   10  A    between atoms: C_31  and  C_32
REMARK                            x       y       z     vdW  Elec       q    Type
REMARK                         _______ _______ _______ _____ _____    ______ ____
ROOT
ATOM      1  C   UNL     1       0.439  -4.541   2.679  0.00  0.00    +0.109 A 
ATOM      2  C   UNL     1       0.786  -3.357   3.304  0.00  0.00    +0.030 A 
ATOM      3  C   UNL     1       0.298  -3.071   4.564  0.00  0.00    +0.025 A 
ATOM      4  C   UNL     1      -0.543  -3.974   5.203  0.00  0.00    +0.031 A 
ATOM      5  C   UNL     1      -0.890  -5.162   4.572  0.00  0.00    +0.025 A 
ATOM      6  C   UNL     1      -0.402  -5.439   3.310  0.00  0.00    +0.030 A 
ENDROOT
BRANCH   1   7
ATOM      7  S   UNL     1       1.064  -4.901   1.071  0.00  0.00    +0.072 S 
ATOM      8  O   UNL     1       0.912  -6.301   0.881  0.00  0.00    -0.150 OA
ATOM      9  O   UNL     1       2.323  -4.251   0.970  0.00  0.00    -0.150 OA
BRANCH   7  10
ATOM     10  N   UNL     1       0.060  -4.164  -0.021  0.00  0.00    -0.216 N 
ATOM     11  H   UNL     1       0.408  -3.479  -0.613  0.00  0.00    +0.174 HD
BRANCH  10  16
ATOM     12  C   UNL     1      -5.408  -5.641  -0.296  0.00  0.00    +0.044 C 
ATOM     13  C   UNL     1      -3.954  -5.249  -0.223  0.00  0.00    -0.050 A 
ATOM     14  C   UNL     1      -3.601  -3.912  -0.211  0.00  0.00    +0.005 A 
ATOM     15  C   UNL     1      -2.270  -3.549  -0.144  0.00  0.00    +0.025 A 
ATOM     16  C   UNL     1      -1.286  -4.528  -0.088  0.00  0.00    +0.048 A 
ATOM     17  C   UNL     1      -1.645  -5.870  -0.100  0.00  0.00    +0.025 A 
ATOM     18  C   UNL     1      -2.978  -6.226  -0.162  0.00  0.00    +0.005 A 
ENDBRANCH  10  16
ENDBRANCH   7  10
ENDBRANCH   1   7
BRANCH   4  19
ATOM     19  N   UNL     1      -1.039  -3.688   6.478  0.00  0.00    -0.320 N 
ATOM     20  H   UNL     1      -0.796  -2.859   6.918  0.00  0.00    +0.152 HD
BRANCH  19  21
ATOM     21  C   UNL     1      -1.855  -4.567   7.097  0.00  0.00    +0.087 C 
ATOM     22  C   UNL     1      -2.346  -4.283   8.361  0.00  0.00    +0.075 C 
ATOM     23  C   UNL     1      -3.235  -5.117   9.184  0.00  0.00    +0.070 C 
ATOM     24  N   UNL     1      -3.450  -4.481  10.295  0.00  0.00    -0.176 NA
ATOM     25  N   UNL     1      -2.779  -3.259  10.318  0.00  0.00    -0.156 N 
ATOM     26  C   UNL     1      -2.088  -3.088   9.173  0.00  0.00    +0.273 C 
ATOM     27  O   UNL     1      -1.391  -2.133   8.872  0.00  0.00    -0.268 OA
ATOM     28  C   UNL     1      -3.795  -6.464   8.806  0.00  0.00    +0.068 C 
BRANCH  25  29
ATOM     29  C   UNL     1      -2.812  -2.346  11.379  0.00  0.00    +0.063 A 
ATOM     30  C   UNL     1      -1.628  -1.903  11.954  0.00  0.00    +0.026 A 
ATOM     31  C   UNL     1      -1.664  -1.002  13.000  0.00  0.00    +0.005 A 
ATOM     32  C   UNL     1      -2.878  -0.540  13.475  0.00  0.00    -0.050 A 
ATOM     33  C   UNL     1      -4.059  -0.979  12.905  0.00  0.00    +0.008 A 
ATOM     34  C   UNL     1      -4.029  -1.876  11.855  0.00  0.00    -0.027 A 
ATOM     35  C   UNL     1      -5.316  -2.349  11.230  0.00  0.00    +0.046 C 
ATOM     36  C   UNL     1      -2.915   0.443  14.616  0.00  0.00    +0.044 C 
ENDBRANCH  25  29
ENDBRANCH  19  21
ENDBRANCH   4  19
TORSDOF 6
