REMARK  Name = ZINC65292080
REMARK  6 active torsions:
REMARK  status: ('A' for Active; 'I' for Inactive)
REMARK    1  A    between atoms: C_1  and  C_2
REMARK    2  A    between atoms: C_2  and  C_3
REMARK    3  A    between atoms: C_3  and  N_12
REMARK    4  A    between atoms: N_10  and  C_11
REMARK    5  A    between atoms: N_20  and  C_21
REMARK    6  A    between atoms: C_26  and  C_27
REMARK                            x       y       z     vdW  Elec       q    Type
REMARK                         _______ _______ _______ _____ _____    ______ ____
ROOT
ATOM      1  N   UNL     1       0.762  -1.816  -1.000  0.00  0.00    -0.292 NA
ATOM      2  C   UNL     1      -0.654  -2.198  -0.922  0.00  0.00    +0.104 C 
ATOM      3  C   UNL     1      -0.797  -3.687  -1.255  0.00  0.00    +0.124 C 
ATOM      4  N   UNL     1       0.102  -4.450  -0.377  0.00  0.00    -0.283 N 
ATOM      5  C   UNL     1       1.512  -4.039  -0.297  0.00  0.00    +0.124 C 
ATOM      6  C   UNL     1       1.564  -2.536  -0.002  0.00  0.00    +0.104 C 
ATOM      7  C   UNL     1      -0.354  -5.500   0.336  0.00  0.00    +0.307 C 
ATOM      8  O   UNL     1      -1.539  -5.769   0.330  0.00  0.00    -0.252 OA
ATOM      9  N   UNL     1       0.505  -6.250   1.054  0.00  0.00    -0.269 N 
ATOM     10  H   UNL     1       1.440  -5.997   1.111  0.00  0.00    +0.156 HD
ENDROOT
BRANCH   1  11
ATOM     11  C   UNL     1       0.925  -0.363  -0.857  0.00  0.00    +0.039 C 
ATOM     12  C   UNL     1       0.105   0.380  -1.937  0.00  0.00    +0.043 C 
ATOM     13  C   UNL     1       1.043   1.546  -2.340  0.00  0.00    +0.111 C 
ATOM     14  N   UNL     1       2.389   0.929  -2.295  0.00  0.00    -0.284 N 
ATOM     15  C   UNL     1       2.388   0.040  -1.118  0.00  0.00    +0.131 C 
ATOM     16  C   UNL     1       3.407   1.137  -3.154  0.00  0.00    +0.302 C 
ATOM     17  O   UNL     1       4.465   0.559  -2.995  0.00  0.00    -0.253 OA
ATOM     18  N   UNL     1       3.252   1.986  -4.189  0.00  0.00    -0.302 N 
ATOM     19  C   UNL     1       4.358   2.212  -5.123  0.00  0.00    +0.129 C 
ATOM     20  H   UNL     1       2.408   2.447  -4.316  0.00  0.00    +0.150 HD
BRANCH  11  22
ATOM     21  C   UNL     1       0.634   1.603   0.657  0.00  0.00    +0.006 C 
ATOM     22  C   UNL     1       0.491   0.084   0.540  0.00  0.00    +0.020 C 
ENDBRANCH  11  22
ENDBRANCH   1  11
BRANCH   9  23
ATOM     23  C   UNL     1       0.048  -7.395   1.718  0.00  0.00    +0.038 A 
ATOM     24  C   UNL     1      -1.161  -7.973   1.355  0.00  0.00    +0.025 A 
ATOM     25  C   UNL     1      -1.610  -9.102   2.011  0.00  0.00    +0.022 A 
ATOM     26  C   UNL     1      -0.856  -9.657   3.031  0.00  0.00    +0.041 A 
ATOM     27  C   UNL     1       0.349  -9.082   3.395  0.00  0.00    +0.025 A 
ATOM     28  C   UNL     1       0.805  -7.957   2.737  0.00  0.00    -0.028 A 
ATOM     29  C   UNL     1       2.121  -7.335   3.130  0.00  0.00    +0.046 C 
ATOM     30 CL   UNL     1      -1.423 -11.077   3.854  0.00  0.00    -0.084 Cl
ENDBRANCH   9  23
TORSDOF 3
