REMARK  Name = ZINC39685781
REMARK  12 active torsions:
REMARK  status: ('A' for Active; 'I' for Inactive)
REMARK    1  A    between atoms: C_1  and  C_2
REMARK    2  A    between atoms: C_2  and  C_3
REMARK    3  A    between atoms: C_2  and  C_4
REMARK    4  A    between atoms: C_4  and  C_6
REMARK    5  A    between atoms: C_4  and  N_13
REMARK    6  A    between atoms: N_8  and  C_9
REMARK    7  A    between atoms: C_9  and  C_10
REMARK    8  A    between atoms: C_9  and  C_11
REMARK    9  A    between atoms: C_9  and  C_12
REMARK   10  A    between atoms: C_14  and  C_16
REMARK   11  A    between atoms: C_27  and  C_29
REMARK   12  A    between atoms: C_29  and  C_30
REMARK                            x       y       z     vdW  Elec       q    Type
REMARK                         _______ _______ _______ _____ _____    ______ ____
ROOT
ATOM      1  C   UNL     1      -1.296  -0.763  -3.804  0.00  0.00    +0.100 C 
ATOM      2  C   UNL     1      -0.492   0.505  -4.167  0.00  0.00    +0.121 C 
ATOM      3  N   UNL     1       0.826  -0.003  -4.615  0.00  0.00    -0.300 N 
ATOM      4  C   UNL     1       0.505  -1.221  -5.397  0.00  0.00    +0.115 C 
ATOM      5  C   UNL     1      -0.641  -1.893  -4.616  0.00  0.00    -0.004 C 
ATOM      6  C   UNL     1      -1.652  -2.504  -5.582  0.00  0.00    -0.010 C 
ATOM      7  C   UNL     1      -0.994  -3.663  -6.336  0.00  0.00    -0.082 C 
ATOM      8  N   UNL     1      -0.530  -4.673  -5.377  0.00  0.00    +0.379 N 
ATOM      9  C   UNL     1       0.509  -4.103  -4.512  0.00  0.00    -0.082 C 
ATOM     10  C   UNL     1      -0.085  -2.962  -3.680  0.00  0.00    -0.010 C 
ATOM     11  C   UNL     1       2.042   0.523  -4.367  0.00  0.00    +0.220 C 
ATOM     12  O   UNL     1       3.036  -0.014  -4.807  0.00  0.00    -0.275 OA
ATOM     13  H   UNL     1      -1.308  -4.979  -4.810  0.00  0.00    -0.086 HD
ATOM     14  H   UNL     1      -0.152  -5.463  -5.879  0.00  0.00    -0.086 HD
ENDROOT
BRANCH   1  16
ATOM     15  N   UNL     1      -2.193  -1.679  -1.688  0.00  0.00    -0.303 N 
ATOM     16  C   UNL     1      -1.189  -1.048  -2.328  0.00  0.00    +0.219 C 
ATOM     17  O   UNL     1      -0.198  -0.708  -1.715  0.00  0.00    -0.275 OA
ATOM     18  H   UNL     1      -2.985  -1.950  -2.178  0.00  0.00    +0.149 HD
BRANCH  15  19
ATOM     19  C   UNL     1      -2.089  -1.956  -0.253  0.00  0.00    +0.161 C 
BRANCH  19  20
ATOM     20  C   UNL     1      -2.958  -3.136   0.096  0.00  0.00    +0.234 C 
ATOM     21  O   UNL     1      -3.837  -3.487  -0.662  0.00  0.00    -0.274 OA
ATOM     22  N   UNL     1      -2.758  -3.803   1.250  0.00  0.00    -0.309 N 
ATOM     23  H   UNL     1      -2.013  -3.565   1.824  0.00  0.00    +0.149 HD
BRANCH  22  24
ATOM     24  C   UNL     1      -3.665  -4.886   1.637  0.00  0.00    +0.026 C 
ATOM     25  C   UNL     1      -3.638  -5.980   0.569  0.00  0.00    +0.031 C 
ATOM     26  C   UNL     1      -3.218  -5.470   2.978  0.00  0.00    +0.031 C 
ATOM     27  C   UNL     1      -5.088  -4.337   1.769  0.00  0.00    +0.031 C 
ENDBRANCH  22  24
ENDBRANCH  19  20
BRANCH  19  29
ATOM     28  C   UNL     1      -1.625   0.450   0.237  0.00  0.00    +0.009 C 
ATOM     29  C   UNL     1      -2.551  -0.730   0.537  0.00  0.00    +0.012 C 
ATOM     30  C   UNL     1      -3.982  -0.372   0.131  0.00  0.00    +0.009 C 
ENDBRANCH  19  29
ENDBRANCH  15  19
ENDBRANCH   1  16
BRANCH  11  31
ATOM     31  C   UNL     1       2.166   1.778  -3.543  0.00  0.00    +0.131 C 
BRANCH  31  32
ATOM     32  C   UNL     1       3.619   2.154  -3.415  0.00  0.00    -0.039 A 
ATOM     33  C   UNL     1       4.371   1.661  -2.365  0.00  0.00    +0.005 A 
ATOM     34  C   UNL     1       5.704   2.005  -2.247  0.00  0.00    +0.020 A 
ATOM     35  C   UNL     1       6.287   2.843  -3.180  0.00  0.00    +0.041 A 
ATOM     36  C   UNL     1       5.534   3.337  -4.231  0.00  0.00    +0.020 A 
ATOM     37  C   UNL     1       4.202   2.988  -4.351  0.00  0.00    +0.005 A 
ATOM     38 CL   UNL     1       7.961   3.277  -3.033  0.00  0.00    -0.084 Cl
ENDBRANCH  31  32
ENDBRANCH  11  31
TORSDOF 7
