REMARK  Name = ZINC57317643
REMARK  11 active torsions:
REMARK  status: ('A' for Active; 'I' for Inactive)
REMARK    1  A    between atoms: C_1  and  C_2
REMARK    2  A    between atoms: C_2  and  C_3
REMARK    3  A    between atoms: N_5  and  C_6
REMARK    4  A    between atoms: C_9  and  S_14
REMARK    5  A    between atoms: S_14  and  C_15
REMARK    6  A    between atoms: C_15  and  C_16
REMARK    7  A    between atoms: C_16  and  O_17
REMARK    8  A    between atoms: O_17  and  C_18
REMARK    9  A    between atoms: C_18  and  C_20
REMARK   10  A    between atoms: C_22  and  N_31
REMARK   11  A    between atoms: C_25  and  N_26
REMARK                            x       y       z     vdW  Elec       q    Type
REMARK                         _______ _______ _______ _____ _____    ______ ____
ROOT
ATOM      1  C   UNL     1      -9.650  -3.107   0.498  0.00  0.00    +0.243 C 
ENDROOT
BRANCH   1   2
ATOM      2  C   UNL     1      -8.191  -2.661   0.395  0.00  0.00    +0.115 C 
BRANCH   2   3
ATOM      3  S   UNL     1      -7.110  -4.118   0.431  0.00  0.00    -0.120 S 
BRANCH   3   7
ATOM      4  C   UNL     1      -2.932  -2.389   0.108  0.00  0.00    +0.053 A 
ATOM      5  C   UNL     1      -4.035  -1.546   0.111  0.00  0.00    +0.026 A 
ATOM      6  C   UNL     1      -5.307  -2.072   0.210  0.00  0.00    +0.018 A 
ATOM      7  C   UNL     1      -5.486  -3.446   0.305  0.00  0.00    +0.028 A 
ATOM      8  C   UNL     1      -4.382  -4.292   0.302  0.00  0.00    +0.074 A 
ATOM      9  C   UNL     1      -3.108  -3.765   0.198  0.00  0.00    +0.081 A 
ATOM     10 CL   UNL     1      -1.730  -4.820   0.187  0.00  0.00    -0.080 Cl
ATOM     11 CL   UNL     1      -4.604  -6.010   0.421  0.00  0.00    -0.081 Cl
BRANCH   4  14
ATOM     12  C   UNL     1      -1.355  -0.670   0.585  0.00  0.00    +0.217 C 
ATOM     13  O   UNL     1      -2.234  -0.029   1.121  0.00  0.00    -0.275 OA
ATOM     14  N   UNL     1      -1.640  -1.854   0.008  0.00  0.00    -0.284 N 
ATOM     15  H   UNL     1      -0.952  -2.336  -0.477  0.00  0.00    +0.155 HD
BRANCH  12  17
ATOM     16  C   UNL     1       0.107   1.208   1.282  0.00  0.00    +0.013 C 
ATOM     17  C   UNL     1       0.057  -0.142   0.565  0.00  0.00    +0.093 C 
ENDBRANCH  12  17
ENDBRANCH   4  14
ENDBRANCH   3   7
ENDBRANCH   2   3
ENDBRANCH   1   2
BRANCH   1  18
ATOM     18  O   UNL     1     -10.502  -1.959   0.470  0.00  0.00    -0.460 OA
BRANCH  18  19
ATOM     19  C   UNL     1     -11.829  -2.180   0.552  0.00  0.00    +0.341 C 
ATOM     20  O   UNL     1     -12.251  -3.316   0.646  0.00  0.00    -0.245 OA
BRANCH  19  21
ATOM     21  C   UNL     1     -12.767  -1.045   0.530  0.00  0.00    +0.082 A 
ATOM     22  C   UNL     1     -12.286   0.263   0.417  0.00  0.00    +0.049 A 
ATOM     23  C   UNL     1     -13.168   1.320   0.396  0.00  0.00    +0.127 A 
ATOM     24  C   UNL     1     -14.533   1.095   0.486  0.00  0.00    +0.034 A 
ATOM     25  C   UNL     1     -15.024  -0.189   0.598  0.00  0.00    +0.026 A 
ATOM     26  C   UNL     1     -14.150  -1.269   0.615  0.00  0.00    +0.044 A 
BRANCH  26  27
ATOM     27  N   UNL     1     -14.642  -2.563   0.721  0.00  0.00    -0.329 N 
ATOM     28  C   UNL     1     -14.890  -3.285   1.978  0.00  0.00    +0.105 C 
ATOM     29  C   UNL     1     -15.407  -4.691   1.604  0.00  0.00    +0.020 C 
ATOM     30  C   UNL     1     -14.885  -4.879   0.155  0.00  0.00    +0.020 C 
ATOM     31  C   UNL     1     -15.008  -3.438  -0.407  0.00  0.00    +0.105 C 
ENDBRANCH  26  27
BRANCH  23  32
ATOM     32  N   UNL     1     -12.657   2.704   0.277  0.00  0.00    +0.056 N 
ATOM     33  O   UNL     1     -11.467   2.904   0.199  0.00  0.00    -0.126 OA
ATOM     34  O   UNL     1     -13.429   3.635   0.259  0.00  0.00    -0.126 OA
ENDBRANCH  23  32
ENDBRANCH  19  21
ENDBRANCH  18  19
ENDBRANCH   1  18
TORSDOF 10
