REMARK  Name = ZINC66443980
REMARK  10 active torsions:
REMARK  status: ('A' for Active; 'I' for Inactive)
REMARK    1  A    between atoms: C_1  and  C_2
REMARK    2  A    between atoms: C_5  and  C_9
REMARK    3  A    between atoms: C_6  and  C_8
REMARK    4  A    between atoms: C_9  and  C_10
REMARK    5  A    between atoms: C_10  and  C_12
REMARK    6  A    between atoms: C_10  and  N_13
REMARK    7  A    between atoms: C_14  and  C_16
REMARK    8  A    between atoms: C_16  and  C_17
REMARK    9  A    between atoms: C_17  and  C_19
REMARK   10  A    between atoms: C_17  and  N_24
REMARK                            x       y       z     vdW  Elec       q    Type
REMARK                         _______ _______ _______ _____ _____    ______ ____
ROOT
ATOM      1  N   UNL     1      -2.600  -4.318   1.761  0.00  0.00    -0.312 N 
ATOM      2  C   UNL     1      -3.902  -3.970   1.736  0.00  0.00    +0.215 C 
ATOM      3  O   UNL     1      -4.568  -4.181   0.744  0.00  0.00    -0.276 OA
ATOM      4  H   UNL     1      -2.068  -4.149   2.554  0.00  0.00    +0.149 HD
ENDROOT
BRANCH   1   5
ATOM      5  C   UNL     1      -1.990  -4.952   0.590  0.00  0.00    +0.074 C 
ATOM      6  C   UNL     1      -2.219  -6.464   0.651  0.00  0.00    +0.028 C 
BRANCH   5   7
ATOM      7  C   UNL     1      -0.487  -4.665   0.580  0.00  0.00    +0.057 C 
BRANCH   7  12
ATOM      8  C   UNL     1       0.388   1.001  -0.144  0.00  0.00    +0.044 C 
ATOM      9  C   UNL     1       0.160  -0.476   0.045  0.00  0.00    -0.050 A 
ATOM     10  C   UNL     1       0.247  -1.033   1.307  0.00  0.00    +0.003 A 
ATOM     11  C   UNL     1       0.037  -2.389   1.480  0.00  0.00    +0.004 A 
ATOM     12  C   UNL     1      -0.260  -3.187   0.391  0.00  0.00    -0.043 A 
ATOM     13  C   UNL     1      -0.347  -2.630  -0.871  0.00  0.00    -0.047 A 
ATOM     14  C   UNL     1      -0.142  -1.274  -1.043  0.00  0.00    +0.007 A 
ATOM     15  C   UNL     1      -0.671  -3.500  -2.058  0.00  0.00    +0.044 C 
ENDBRANCH   7  12
ENDBRANCH   5   7
ENDBRANCH   1   5
BRANCH   2  16
ATOM     16  C   UNL     1      -4.531  -3.317   2.940  0.00  0.00    +0.123 C 
BRANCH  16  17
ATOM     17  C   UNL     1      -6.005  -3.026   2.652  0.00  0.00    +0.120 C 
BRANCH  17  18
ATOM     18  N   UNL     1      -6.726  -4.289   2.474  0.00  0.00    -0.292 N 
ATOM     19  C   UNL     1      -6.762  -5.190   3.475  0.00  0.00    +0.298 C 
ATOM     20  O   UNL     1      -6.196  -4.956   4.525  0.00  0.00    -0.253 OA
ATOM     21  N   UNL     1      -7.426  -6.352   3.312  0.00  0.00    -0.313 N 
ATOM     22  H   UNL     1      -7.178  -4.476   1.637  0.00  0.00    +0.151 HD
ATOM     23  H   UNL     1      -7.878  -6.539   2.474  0.00  0.00    +0.146 HD
ATOM     24  H   UNL     1      -7.452  -7.001   4.032  0.00  0.00    +0.146 HD
ENDBRANCH  17  18
BRANCH  17  25
ATOM     25  C   UNL     1      -6.602  -2.264   3.807  0.00  0.00    +0.010 A 
ATOM     26  C   UNL     1      -6.841  -0.935   3.920  0.00  0.00    +0.013 A 
ATOM     27  C   UNL     1      -7.404  -0.452   5.086  0.00  0.00    +0.008 A 
ATOM     28  C   UNL     1      -7.700  -1.322   6.083  0.00  0.00    +0.045 A 
ATOM     29  S   UNL     1      -7.185  -2.879   5.378  0.00  0.00    -0.100 S 
ENDBRANCH  17  25
ENDBRANCH  16  17
ENDBRANCH   2  16
TORSDOF 7
