REMARK  Name = ZINC43737283
REMARK  8 active torsions:
REMARK  status: ('A' for Active; 'I' for Inactive)
REMARK    1  A    between atoms: C_1  and  C_2
REMARK    2  A    between atoms: C_2  and  C_8
REMARK    3  A    between atoms: N_3  and  N_4
REMARK    4  A    between atoms: N_4  and  C_5
REMARK    5  A    between atoms: C_5  and  N_7
REMARK    6  A    between atoms: C_14  and  C_33
REMARK    7  A    between atoms: C_25  and  C_32
REMARK    8  A    between atoms: C_28  and  O_31
REMARK                            x       y       z     vdW  Elec       q    Type
REMARK                         _______ _______ _______ _____ _____    ______ ____
ROOT
ATOM      1  C   UNL     1       0.042  -0.654  -1.366  0.00  0.00    +0.041 C 
ATOM      2  C   UNL     1      -1.260  -0.371  -2.139  0.00  0.00    +0.010 C 
ATOM      3  C   UNL     1      -1.937  -1.740  -2.378  0.00  0.00    +0.005 C 
ATOM      4  C   UNL     1      -1.349  -2.630  -1.268  0.00  0.00    -0.001 C 
ATOM      5  C   UNL     1       0.127  -2.195  -1.201  0.00  0.00    -0.021 C 
ATOM      6  C   UNL     1       0.902  -2.723  -2.411  0.00  0.00    +0.008 C 
ATOM      7  C   UNL     1       0.740  -4.236  -2.539  0.00  0.00    +0.005 C 
ATOM      8  C   UNL     1      -0.742  -4.550  -2.774  0.00  0.00    -0.001 C 
ATOM      9  C   UNL     1      -1.519  -4.102  -1.554  0.00  0.00    -0.004 C 
ATOM     10  C   UNL     1      -2.997  -4.439  -1.764  0.00  0.00    +0.004 C 
ATOM     11  C   UNL     1      -3.153  -5.946  -1.973  0.00  0.00    +0.004 C 
ATOM     12  C   UNL     1      -2.352  -6.376  -3.203  0.00  0.00    -0.002 C 
ATOM     13  C   UNL     1      -0.911  -6.055  -2.990  0.00  0.00    -0.026 C 
ATOM     14  C   UNL     1      -0.121  -6.484  -4.229  0.00  0.00    +0.010 C 
ATOM     15  C   UNL     1      -0.292  -7.989  -4.447  0.00  0.00    +0.032 C 
ATOM     16  C   UNL     1      -1.775  -8.309  -4.651  0.00  0.00    +0.115 C 
ATOM     17  C   UNL     1      -2.511  -7.883  -3.414  0.00  0.00    +0.035 C 
ATOM     18  C   UNL     1      -0.388  -6.808  -1.766  0.00  0.00    +0.012 C 
ATOM     19  C   UNL     1       0.781  -2.594   0.123  0.00  0.00    +0.012 C 
ENDROOT
BRANCH   1  21
ATOM     20  C   UNL     1       1.192  -0.057   0.900  0.00  0.00    +0.062 C 
ATOM     21  C   UNL     1      -0.005   0.009  -0.013  0.00  0.00    +0.037 C 
ATOM     22  N   UNL     1      -1.062   0.628   0.360  0.00  0.00    -0.190 NA
BRANCH  22  23
ATOM     23  N   UNL     1      -1.072   1.330   1.573  0.00  0.00    -0.219 N 
ATOM     24  H   UNL     1      -0.304   1.286   2.164  0.00  0.00    +0.176 HD
BRANCH  23  25
ATOM     25  C   UNL     1      -2.147   2.065   1.917  0.00  0.00    +0.147 C 
ATOM     26  S   UNL     1      -2.110   3.024   3.334  0.00  0.00    -0.017 S 
BRANCH  25  27
ATOM     27  N   UNL     1      -3.252   2.046   1.145  0.00  0.00    -0.339 N 
ATOM     28  H   UNL     1      -3.301   1.448   0.383  0.00  0.00    +0.144 HD
ATOM     29  H   UNL     1      -3.998   2.630   1.352  0.00  0.00    +0.144 HD
ENDBRANCH  25  27
ENDBRANCH  23  25
ENDBRANCH  22  23
ENDBRANCH   1  21
BRANCH  16  30
ATOM     30  O   UNL     1      -2.262  -7.602  -5.794  0.00  0.00    -0.392 OA
ATOM     31  H   UNL     1      -1.806  -7.824  -6.617  0.00  0.00    +0.210 HD
ENDBRANCH  16  30
TORSDOF 5
