REMARK  Name = ZINC35332069
REMARK  7 active torsions:
REMARK  status: ('A' for Active; 'I' for Inactive)
REMARK    1  A    between atoms: C_1  and  C_2
REMARK    2  A    between atoms: C_5  and  C_20
REMARK    3  A    between atoms: C_6  and  O_9
REMARK    4  A    between atoms: C_7  and  C_8
REMARK    5  A    between atoms: O_9  and  C_10
REMARK    6  A    between atoms: C_13  and  C_17
REMARK    7  A    between atoms: C_15  and  N_16
REMARK                            x       y       z     vdW  Elec       q    Type
REMARK                         _______ _______ _______ _____ _____    ______ ____
ROOT
ATOM      1  C   UNL     1       1.255  -3.083   2.903  0.00  0.00    +0.149 A 
ATOM      2  C   UNL     1       2.424  -2.691   2.265  0.00  0.00    +0.049 A 
ATOM      3  C   UNL     1       3.649  -3.000   2.813  0.00  0.00    +0.017 A 
ATOM      4  C   UNL     1       3.719  -3.710   4.014  0.00  0.00    +0.038 A 
ATOM      5  C   UNL     1       2.544  -4.106   4.658  0.00  0.00    +0.039 A 
ATOM      6  C   UNL     1       1.317  -3.788   4.106  0.00  0.00    +0.068 A 
ENDROOT
BRANCH   4   7
ATOM      7  C   UNL     1       5.032  -4.042   4.601  0.00  0.00    +0.242 C 
ATOM      8  O   UNL     1       5.091  -4.661   5.647  0.00  0.00    -0.270 OA
ATOM      9  N   UNL     1       6.165  -3.660   3.979  0.00  0.00    -0.325 N 
ATOM     10  H   UNL     1       6.117  -3.167   3.145  0.00  0.00    +0.145 HD
ATOM     11  H   UNL     1       7.028  -3.879   4.365  0.00  0.00    +0.145 HD
ENDBRANCH   4   7
BRANCH   6  12
ATOM     12  N   UNL     1       0.137  -4.178   4.750  0.00  0.00    -0.355 N 
ATOM     13  H   UNL     1      -0.724  -3.958   4.361  0.00  0.00    +0.142 HD
ATOM     14  H   UNL     1       0.180  -4.668   5.586  0.00  0.00    +0.142 HD
ENDBRANCH   6  12
BRANCH   1  15
ATOM     15  O   UNL     1       0.050  -2.776   2.358  0.00  0.00    -0.454 OA
BRANCH  15  21
ATOM     16  C   UNL     1      -0.018   1.503   0.010  0.00  0.00    +0.044 C 
ATOM     17  C   UNL     1       0.002  -0.004   0.002  0.00  0.00    -0.044 A 
ATOM     18  C   UNL     1       0.006  -0.688  -1.200  0.00  0.00    +0.004 A 
ATOM     19  C   UNL     1       0.024  -2.071  -1.211  0.00  0.00    +0.007 A 
ATOM     20  C   UNL     1       0.039  -2.772  -0.021  0.00  0.00    -0.008 A 
ATOM     21  C   UNL     1       0.035  -2.088   1.186  0.00  0.00    +0.135 A 
ATOM     22  C   UNL     1       0.023  -0.700   1.195  0.00  0.00    -0.005 A 
ATOM     23  C   UNL     1       0.025   0.046   2.504  0.00  0.00    +0.048 C 
ATOM     24  C   UNL     1       0.058  -4.279  -0.034  0.00  0.00    +0.047 C 
ENDBRANCH  15  21
ENDBRANCH   1  15
TORSDOF 4
