REMARK  Name = ZINC41593547
REMARK  11 active torsions:
REMARK  status: ('A' for Active; 'I' for Inactive)
REMARK    1  A    between atoms: C_1  and  C_2
REMARK    2  A    between atoms: N_5  and  C_8
REMARK    3  A    between atoms: C_8  and  C_10
REMARK    4  A    between atoms: C_8  and  C_27
REMARK    5  A    between atoms: C_10  and  N_11
REMARK    6  A    between atoms: C_12  and  C_14
REMARK    7  A    between atoms: N_16  and  C_17
REMARK    8  A    between atoms: C_22  and  C_23
REMARK    9  A    between atoms: C_23  and  C_24
REMARK   10  A    between atoms: C_27  and  C_28
REMARK   11  A    between atoms: C_27  and  C_29
REMARK                            x       y       z     vdW  Elec       q    Type
REMARK                         _______ _______ _______ _____ _____    ______ ____
ROOT
ATOM      1  N   UNL     1       1.778  -3.816  -2.318  0.00  0.00    -0.309 N 
ATOM      2  C   UNL     1       2.341  -4.085  -3.513  0.00  0.00    +0.299 C 
ATOM      3  O   UNL     1       3.350  -4.757  -3.570  0.00  0.00    -0.265 OA
ATOM      4  H   UNL     1       0.972  -3.279  -2.272  0.00  0.00    +0.149 HD
ENDROOT
BRANCH   2   5
ATOM      5  C   UNL     1       1.723  -3.556  -4.765  0.00  0.00    +0.303 C 
ATOM      6  O   UNL     1       0.714  -2.884  -4.707  0.00  0.00    -0.265 OA
ATOM      7  N   UNL     1       2.286  -3.825  -5.960  0.00  0.00    -0.277 N 
ATOM      8  H   UNL     1       3.054  -4.416  -6.012  0.00  0.00    +0.155 HD
BRANCH   7   9
ATOM      9  C   UNL     1       1.764  -3.253  -7.123  0.00  0.00    +0.037 A 
ATOM     10  C   UNL     1       0.425  -2.886  -7.177  0.00  0.00    +0.023 A 
ATOM     11  C   UNL     1      -0.088  -2.321  -8.328  0.00  0.00    +0.002 A 
ATOM     12  C   UNL     1       0.729  -2.121  -9.426  0.00  0.00    +0.000 A 
ATOM     13  C   UNL     1       2.062  -2.487  -9.376  0.00  0.00    +0.006 A 
ATOM     14  C   UNL     1       2.583  -3.046  -8.225  0.00  0.00    -0.017 A 
BRANCH  14  15
ATOM     15  C   UNL     1       4.037  -3.438  -8.169  0.00  0.00    +0.132 C 
BRANCH  15  16
ATOM     16  C   UNL     1       4.179  -4.896  -8.519  0.00  0.00    +0.215 C 
ATOM     17  O   UNL     1       3.196  -5.554  -8.789  0.00  0.00    -0.276 OA
ATOM     18  N   UNL     1       5.398  -5.471  -8.534  0.00  0.00    -0.329 N 
ATOM     19  H   UNL     1       6.184  -4.945  -8.318  0.00  0.00    +0.145 HD
ATOM     20  H   UNL     1       5.489  -6.410  -8.759  0.00  0.00    +0.145 HD
ENDBRANCH  15  16
ENDBRANCH  14  15
ENDBRANCH   7   9
ENDBRANCH   2   5
BRANCH   1  21
ATOM     21  C   UNL     1       2.385  -4.334  -1.089  0.00  0.00    +0.089 C 
BRANCH  21  22
ATOM     22  C   UNL     1       1.657  -3.752   0.124  0.00  0.00    -0.049 C 
BRANCH  22  27
ATOM     23  C   UNL     1       3.618   1.587  -0.303  0.00  0.00    +0.007 C 
ATOM     24  C   UNL     1       3.342   0.103  -0.555  0.00  0.00    -0.018 C 
ATOM     25  C   UNL     1       3.798  -0.716   0.656  0.00  0.00    -0.016 C 
ATOM     26  C   UNL     1       3.448  -2.188   0.431  0.00  0.00    -0.078 C 
ATOM     27  N   UNL     1       1.996  -2.329   0.262  0.00  0.00    +0.383 N 
ATOM     28  C   UNL     1       1.562  -1.605  -0.939  0.00  0.00    -0.078 C 
ATOM     29  C   UNL     1       1.840  -0.110  -0.766  0.00  0.00    -0.016 C 
ATOM     30  H   UNL     1       1.526  -1.950   1.070  0.00  0.00    -0.081 HD
ENDBRANCH  22  27
BRANCH  22  31
ATOM     31  C   UNL     1       2.086  -4.503   1.386  0.00  0.00    -0.029 C 
ATOM     32  C   UNL     1       1.311  -3.963   2.589  0.00  0.00    +0.005 C 
ATOM     33  C   UNL     1       1.790  -5.995   1.216  0.00  0.00    +0.005 C 
ENDBRANCH  22  31
ENDBRANCH  21  22
ENDBRANCH   1  21
TORSDOF 8
