REMARK  Name = ZINC63385761
REMARK  4 active torsions:
REMARK  status: ('A' for Active; 'I' for Inactive)
REMARK    1  A    between atoms: C_1  and  O_2
REMARK    2  A    between atoms: O_2  and  C_3
REMARK    3  A    between atoms: N_23  and  C_26
REMARK    4  A    between atoms: C_26  and  C_27
REMARK                            x       y       z     vdW  Elec       q    Type
REMARK                         _______ _______ _______ _____ _____    ______ ____
ROOT
ATOM      1  C   UNL     1      -1.200  -0.637   0.010  0.00  0.00    +0.121 A 
ATOM      2  C   UNL     1      -2.360   0.151   0.020  0.00  0.00    +0.047 A 
ATOM      3  C   UNL     1      -3.623  -0.348   0.022  0.00  0.00    +0.029 A 
ATOM      4  C   UNL     1      -3.759  -1.811   0.014  0.00  0.00    +0.043 A 
ATOM      5  N   UNL     1      -4.821  -2.560   0.035  0.00  0.00    -0.375 N 
ATOM      6  C   UNL     1      -4.399  -3.956  -0.076  0.00  0.00    +0.140 C 
ATOM      7  C   UNL     1      -2.878  -3.931   0.028  0.00  0.00    -0.035 C 
ATOM      8  C   UNL     1      -2.523  -2.654   0.016  0.00  0.00    +0.003 A 
ATOM      9  C   UNL     1      -1.206  -1.999   0.003  0.00  0.00    +0.055 A 
ATOM     10  C   UNL     1      -2.075  -5.197   0.205  0.00  0.00    +0.048 C 
ATOM     11  C   UNL     1      -2.759  -5.989   1.334  0.00  0.00    +0.086 C 
ATOM     12  N   UNL     1      -4.196  -6.107   1.069  0.00  0.00    -0.297 NA
ATOM     13  C   UNL     1      -4.914  -4.824   1.067  0.00  0.00    +0.148 C 
ATOM     14  C   UNL     1      -4.766  -4.131   2.384  0.00  0.00    +0.006 A 
ATOM     15  C   UNL     1      -3.653  -3.674   3.057  0.00  0.00    +0.023 A 
ATOM     16  C   UNL     1      -3.867  -3.061   4.288  0.00  0.00    +0.018 A 
ATOM     17  C   UNL     1      -5.138  -2.919   4.809  0.00  0.00    +0.017 A 
ATOM     18  C   UNL     1      -6.261  -3.377   4.138  0.00  0.00    +0.025 A 
ATOM     19  C   UNL     1      -6.060  -3.993   2.902  0.00  0.00    +0.042 A 
ATOM     20  N   UNL     1      -6.987  -4.534   2.029  0.00  0.00    -0.265 N 
ATOM     21  C   UNL     1      -6.405  -5.044   0.924  0.00  0.00    +0.247 C 
ATOM     22  O   UNL     1      -6.969  -5.578  -0.008  0.00  0.00    -0.273 OA
ATOM     23 BR   UNL     1      -2.387  -2.409   5.267  0.00  0.00    -0.050 Br
ATOM     24  H   UNL     1      -4.365  -6.605   0.207  0.00  0.00    +0.123 HD
ATOM     25  H   UNL     1      -5.736  -2.247   0.111  0.00  0.00    +0.160 HD
ENDROOT
BRANCH   1  27
ATOM     26  C   UNL     1      -0.017   1.425   0.010  0.00  0.00    +0.277 C 
ATOM     27  O   UNL     1       0.002  -0.004   0.002  0.00  0.00    -0.495 OA
ENDBRANCH   1  27
BRANCH  20  28
ATOM     28  C   UNL     1      -8.431  -4.551   2.276  0.00  0.00    +0.140 C 
BRANCH  28  29
ATOM     29  C   UNL     1      -9.052  -3.298   1.713  0.00  0.00    -0.015 C 
ATOM     30  C   UNL     1     -10.041  -3.383   0.858  0.00  0.00    +0.005 C 
ENDBRANCH  28  29
ENDBRANCH  20  28
TORSDOF 3
