REMARK  Name = ZINC36558770
REMARK  14 active torsions:
REMARK  status: ('A' for Active; 'I' for Inactive)
REMARK    1  A    between atoms: C_1  and  C_2
REMARK    2  A    between atoms: C_5  and  C_7
REMARK    3  A    between atoms: C_7  and  N_8
REMARK    4  A    between atoms: N_8  and  C_9
REMARK    5  A    between atoms: C_9  and  C_11
REMARK    6  A    between atoms: C_9  and  C_20
REMARK    7  A    between atoms: C_12  and  O_19
REMARK    8  A    between atoms: C_14  and  O_18
REMARK    9  A    between atoms: C_16  and  O_17
REMARK   10  A    between atoms: N_22  and  C_23
REMARK   11  A    between atoms: C_23  and  C_24
REMARK   12  A    between atoms: C_23  and  C_25
REMARK   13  A    between atoms: C_23  and  C_26
REMARK   14  A    between atoms: C_27  and  C_29
REMARK                            x       y       z     vdW  Elec       q    Type
REMARK                         _______ _______ _______ _____ _____    ______ ____
ROOT
ATOM      1  C   UNL     1       3.338  -2.704  -2.924  0.00  0.00    +0.200 C 
ENDROOT
BRANCH   1   2
ATOM      2  C   UNL     1       3.115  -1.326  -3.491  0.00  0.00    +0.065 A 
ATOM      3  C   UNL     1       2.797  -0.272  -2.648  0.00  0.00    +0.129 A 
ATOM      4  C   UNL     1       2.592   0.996  -3.170  0.00  0.00    +0.091 A 
ATOM      5  C   UNL     1       2.705   1.210  -4.536  0.00  0.00    +0.124 A 
ATOM      6  C   UNL     1       3.024   0.156  -5.379  0.00  0.00    +0.091 A 
ATOM      7  C   UNL     1       3.233  -1.111  -4.856  0.00  0.00    +0.129 A 
BRANCH   7   8
ATOM      8  O   UNL     1       3.550  -2.143  -5.682  0.00  0.00    -0.506 OA
ATOM      9  H   UNL     1       2.784  -2.623  -6.024  0.00  0.00    +0.292 HD
ENDBRANCH   7   8
BRANCH   5  10
ATOM     10  O   UNL     1       2.503   2.453  -5.048  0.00  0.00    -0.507 OA
ATOM     11  H   UNL     1       3.304   2.993  -5.096  0.00  0.00    +0.292 HD
ENDBRANCH   5  10
BRANCH   3  12
ATOM     12  O   UNL     1       2.686  -0.482  -1.310  0.00  0.00    -0.506 OA
ATOM     13  H   UNL     1       3.491  -0.281  -0.812  0.00  0.00    +0.292 HD
ENDBRANCH   3  12
ENDBRANCH   1   2
BRANCH   1  14
ATOM     14  C   UNL     1       3.821  -2.590  -1.501  0.00  0.00    +0.239 C 
ATOM     15  O   UNL     1       3.178  -3.085  -0.600  0.00  0.00    -0.273 OA
ATOM     16  N   UNL     1       4.968  -1.936  -1.230  0.00  0.00    -0.309 N 
ATOM     17  H   UNL     1       5.483  -1.540  -1.950  0.00  0.00    +0.149 HD
BRANCH  16  18
ATOM     18  C   UNL     1       5.438  -1.825   0.153  0.00  0.00    +0.026 C 
ATOM     19  C   UNL     1       5.665  -3.224   0.730  0.00  0.00    +0.031 C 
ATOM     20  C   UNL     1       6.753  -1.042   0.184  0.00  0.00    +0.031 C 
ATOM     21  C   UNL     1       4.388  -1.092   0.991  0.00  0.00    +0.031 C 
ENDBRANCH  16  18
ENDBRANCH   1  14
BRANCH   1  22
ATOM     22  N   UNL     1       2.080  -3.454  -2.953  0.00  0.00    -0.274 N 
ATOM     23  C   UNL     1       2.082  -4.762  -3.276  0.00  0.00    +0.248 C 
ATOM     24  O   UNL     1       1.031  -5.364  -3.385  0.00  0.00    -0.270 OA
BRANCH  23  25
ATOM     25  C   UNL     1       3.362  -5.466  -3.498  0.00  0.00    +0.037 A 
ATOM     26  C   UNL     1       4.537  -4.983  -2.920  0.00  0.00    +0.014 A 
ATOM     27  C   UNL     1       5.729  -5.644  -3.131  0.00  0.00    +0.021 A 
ATOM     28  C   UNL     1       5.762  -6.786  -3.914  0.00  0.00    +0.041 A 
ATOM     29  C   UNL     1       4.599  -7.270  -4.491  0.00  0.00    +0.021 A 
ATOM     30  C   UNL     1       3.401  -6.621  -4.283  0.00  0.00    +0.014 A 
ATOM     31 CL   UNL     1       7.266  -7.612  -4.176  0.00  0.00    -0.084 Cl
ENDBRANCH  23  25
BRANCH  22  32
ATOM     32  C   UNL     1       0.819  -2.781  -2.631  0.00  0.00    +0.183 C 
BRANCH  32  37
ATOM     33  C   UNL     1       0.242   0.448  -6.462  0.00  0.00    +0.086 C 
ATOM     34  C   UNL     1       0.018  -0.719  -5.536  0.00  0.00    +0.102 A 
ATOM     35  C   UNL     1      -0.956  -1.640  -5.653  0.00  0.00    +0.045 A 
ATOM     36  C   UNL     1      -0.794  -2.545  -4.579  0.00  0.00    +0.046 A 
ATOM     37  C   UNL     1       0.269  -2.124  -3.870  0.00  0.00    +0.122 A 
ATOM     38  O   UNL     1       0.760  -1.021  -4.458  0.00  0.00    -0.463 OA
ENDBRANCH  32  37
ENDBRANCH  22  32
ENDBRANCH   1  22
TORSDOF 10
