REMARK  Name = ZINC34748668
REMARK  14 active torsions:
REMARK  status: ('A' for Active; 'I' for Inactive)
REMARK    1  A    between atoms: C_1  and  C_2
REMARK    2  A    between atoms: C_2  and  N_3
REMARK    3  A    between atoms: N_3  and  C_4
REMARK    4  A    between atoms: C_4  and  C_5
REMARK    5  A    between atoms: C_6  and  C_8
REMARK    6  A    between atoms: C_8  and  N_9
REMARK    7  A    between atoms: C_13  and  C_34
REMARK    8  A    between atoms: C_14  and  C_33
REMARK    9  A    between atoms: N_22  and  C_25
REMARK   10  A    between atoms: C_25  and  C_26
REMARK   11  A    between atoms: N_28  and  C_29
REMARK   12  A    between atoms: N_28  and  C_31
REMARK   13  A    between atoms: C_29  and  C_30
REMARK   14  A    between atoms: C_31  and  C_32
REMARK                            x       y       z     vdW  Elec       q    Type
REMARK                         _______ _______ _______ _____ _____    ______ ____
ROOT
ATOM      1  N   UNL     1      -2.123  -0.777  -3.653  0.00  0.00    -0.271 N 
ATOM      2  C   UNL     1      -2.275   0.210  -4.555  0.00  0.00    +0.264 A 
ATOM      3  O   UNL     1      -2.064   1.369  -4.243  0.00  0.00    -0.267 OA
ATOM      4  C   UNL     1      -2.686  -0.119  -5.885  0.00  0.00    +0.075 A 
ATOM      5  C   UNL     1      -2.915   0.758  -7.021  0.00  0.00    -0.026 A 
ATOM      6  C   UNL     1      -3.302   0.228  -8.190  0.00  0.00    -0.008 A 
ATOM      7  S   UNL     1      -3.388  -1.519  -7.845  0.00  0.00    -0.073 S 
ATOM      8  C   UNL     1      -2.902  -1.487  -6.139  0.00  0.00    +0.117 A 
ATOM      9  N   UNL     1      -2.733  -2.412  -5.201  0.00  0.00    -0.208 NA
ATOM     10  C   UNL     1      -2.349  -2.081  -3.986  0.00  0.00    +0.202 A 
ATOM     11  N   UNL     1      -2.177  -3.060  -3.040  0.00  0.00    -0.304 N 
ATOM     12  C   UNL     1      -0.875  -3.720  -2.862  0.00  0.00    +0.089 C 
ATOM     13  C   UNL     1      -1.092  -5.237  -2.877  0.00  0.00    -0.059 C 
ATOM     14  N   UNL     1      -2.097  -5.596  -1.869  0.00  0.00    +0.387 N 
ATOM     15  C   UNL     1      -3.394  -5.008  -2.223  0.00  0.00    -0.059 C 
ATOM     16  C   UNL     1      -3.289  -3.476  -2.171  0.00  0.00    +0.089 C 
ATOM     17  C   UNL     1      -3.595   0.939  -9.486  0.00  0.00    +0.052 C 
ATOM     18  C   UNL     1      -2.721   2.246  -6.885  0.00  0.00    +0.045 C 
ATOM     19  H   UNL     1      -1.806  -5.249  -0.967  0.00  0.00    -0.081 HD
ENDROOT
BRANCH   1  20
ATOM     20  C   UNL     1      -1.702  -0.447  -2.290  0.00  0.00    +0.224 C 
BRANCH  20  22
ATOM     21  N   UNL     1       0.417  -0.059  -1.075  0.00  0.00    -0.301 N 
ATOM     22  C   UNL     1      -0.199  -0.354  -2.236  0.00  0.00    +0.236 C 
ATOM     23  O   UNL     1       0.456  -0.546  -3.239  0.00  0.00    -0.274 OA
BRANCH  21  25
ATOM     24  C   UNL     1      -0.725   1.658   0.240  0.00  0.00    +0.024 C 
ATOM     25  C   UNL     1      -0.374   0.173   0.136  0.00  0.00    +0.104 C 
ENDBRANCH  21  25
BRANCH  21  26
ATOM     26  C   UNL     1       1.879   0.031  -1.023  0.00  0.00    +0.104 C 
ATOM     27  C   UNL     1       2.462  -1.343  -0.688  0.00  0.00    +0.024 C 
ENDBRANCH  21  26
ENDBRANCH  20  22
ENDBRANCH   1  20
BRANCH  14  28
ATOM     28  C   UNL     1      -2.225  -7.059  -1.808  0.00  0.00    +0.019 C 
BRANCH  28  29
ATOM     29  C   UNL     1      -3.164  -7.434  -0.690  0.00  0.00    +0.199 C 
ATOM     30  O   UNL     1      -3.675  -6.569  -0.011  0.00  0.00    -0.278 OA
ATOM     31  N   UNL     1      -3.434  -8.732  -0.445  0.00  0.00    -0.304 N 
BRANCH  31  32
ATOM     32  C   UNL     1      -2.816  -9.777  -1.265  0.00  0.00    +0.104 C 
ATOM     33  C   UNL     1      -1.488 -10.200  -0.635  0.00  0.00    +0.024 C 
ENDBRANCH  31  32
BRANCH  31  34
ATOM     34  C   UNL     1      -4.347  -9.097   0.642  0.00  0.00    +0.104 C 
ATOM     35  C   UNL     1      -5.778  -9.165   0.105  0.00  0.00    +0.024 C 
ENDBRANCH  31  34
ENDBRANCH  28  29
ENDBRANCH  14  28
TORSDOF 8
