REMARK  Name = ZINC39545028
REMARK  10 active torsions:
REMARK  status: ('A' for Active; 'I' for Inactive)
REMARK    1  A    between atoms: C_1  and  C_2
REMARK    2  A    between atoms: C_2  and  C_3
REMARK    3  A    between atoms: C_2  and  C_4
REMARK    4  A    between atoms: C_4  and  N_5
REMARK    5  A    between atoms: N_5  and  S_30
REMARK    6  A    between atoms: C_6  and  C_8
REMARK    7  A    between atoms: C_11  and  C_23
REMARK    8  A    between atoms: C_28  and  O_29
REMARK    9  A    between atoms: S_30  and  O_33
REMARK   10  A    between atoms: O_33  and  C_34
REMARK                            x       y       z     vdW  Elec       q    Type
REMARK                         _______ _______ _______ _____ _____    ______ ____
ROOT
ATOM      1  C   UNL     1       4.027  -1.374  -2.461  0.00  0.00    +0.172 C 
ATOM      2  C   UNL     1       5.171  -0.501  -1.900  0.00  0.00    +0.050 C 
ATOM      3  C   UNL     1       6.205  -1.585  -1.511  0.00  0.00    +0.086 C 
ATOM      4  C   UNL     1       5.852  -2.756  -2.395  0.00  0.00    +0.083 C 
ATOM      5  N   UNL     1       6.666  -3.837  -2.656  0.00  0.00    -0.304 N 
ATOM      6  C   UNL     1       6.331  -4.660  -3.740  0.00  0.00    +0.037 A 
ATOM      7  C   UNL     1       7.263  -5.564  -4.232  0.00  0.00    +0.023 A 
ATOM      8  C   UNL     1       6.939  -6.373  -5.303  0.00  0.00    +0.002 A 
ATOM      9  C   UNL     1       5.686  -6.282  -5.882  0.00  0.00    +0.000 A 
ATOM     10  C   UNL     1       4.757  -5.384  -5.393  0.00  0.00    +0.007 A 
ATOM     11  C   UNL     1       5.073  -4.570  -4.319  0.00  0.00    -0.007 A 
ATOM     12  C   UNL     1       4.042  -3.606  -3.796  0.00  0.00    +0.155 C 
ATOM     13  N   UNL     1       4.664  -2.623  -2.902  0.00  0.00    -0.346 N 
ATOM     14  H   UNL     1       7.446  -4.021  -2.108  0.00  0.00    +0.153 HD
ENDROOT
BRANCH   3  15
ATOM     15  C   UNL     1       7.606  -1.107  -1.795  0.00  0.00    +0.004 A 
ATOM     16  C   UNL     1       7.946  -0.681  -3.065  0.00  0.00    +0.008 A 
ATOM     17  C   UNL     1       9.231  -0.242  -3.326  0.00  0.00    +0.001 A 
ATOM     18  C   UNL     1      10.178  -0.229  -2.319  0.00  0.00    +0.004 A 
ATOM     19  C   UNL     1       9.842  -0.653  -1.048  0.00  0.00    +0.046 A 
ATOM     20  C   UNL     1       8.552  -1.088  -0.781  0.00  0.00    +0.121 A 
BRANCH  20  21
ATOM     21  O   UNL     1       8.218  -1.501   0.469  0.00  0.00    -0.506 OA
ATOM     22  H   UNL     1       8.431  -2.427   0.648  0.00  0.00    +0.292 HD
ENDBRANCH  20  21
ENDBRANCH   3  15
BRANCH   1  24
ATOM     23  N   UNL     1       1.966  -0.827  -1.206  0.00  0.00    -0.141 N 
ATOM     24  C   UNL     1       3.012  -1.659  -1.384  0.00  0.00    +0.259 C 
ATOM     25  O   UNL     1       3.136  -2.636  -0.677  0.00  0.00    -0.272 OA
BRANCH  23  26
ATOM     26  S   UNL     1       1.886   0.594  -2.053  0.00  0.00    +0.212 S 
ATOM     27  O   UNL     1       1.032   1.458  -1.316  0.00  0.00    -0.115 OA
ATOM     28  O   UNL     1       3.222   0.945  -2.385  0.00  0.00    -0.115 OA
BRANCH  26  29
ATOM     29  O   UNL     1       1.175   0.296  -3.366  0.00  0.00    -0.331 OA
BRANCH  29  30
ATOM     30  C   UNL     1      -0.171   0.159  -3.247  0.00  0.00    +0.158 A 
ATOM     31  C   UNL     1      -0.709  -1.026  -2.765  0.00  0.00    +0.048 A 
ATOM     32  C   UNL     1      -2.078  -1.163  -2.645  0.00  0.00    +0.004 A 
ATOM     33  C   UNL     1      -2.913  -0.120  -3.004  0.00  0.00    +0.000 A 
ATOM     34  C   UNL     1      -2.379   1.061  -3.484  0.00  0.00    +0.004 A 
ATOM     35  C   UNL     1      -1.010   1.205  -3.601  0.00  0.00    +0.048 A 
ENDBRANCH  29  30
ENDBRANCH  26  29
ENDBRANCH  23  26
BRANCH  23  36
ATOM     36  C   UNL     1       0.901  -1.180  -0.265  0.00  0.00    +0.140 C 
BRANCH  36  38
ATOM     37  C   UNL     1       1.733   0.487   1.400  0.00  0.00    +0.009 C 
ATOM     38  C   UNL     1       1.403  -0.989   1.168  0.00  0.00    +0.002 C 
ATOM     39  C   UNL     1       0.317  -1.429   2.152  0.00  0.00    +0.009 C 
ENDBRANCH  36  38
ENDBRANCH  23  36
ENDBRANCH   1  24
TORSDOF 8
