REMARK  Name = ZINC02619713
REMARK  7 active torsions:
REMARK  status: ('A' for Active; 'I' for Inactive)
REMARK    1  A    between atoms: C_1  and  C_2
REMARK    2  A    between atoms: C_2  and  C_26
REMARK    3  A    between atoms: N_5  and  C_9
REMARK    4  A    between atoms: C_9  and  C_10
REMARK    5  A    between atoms: N_12  and  C_13
REMARK    6  A    between atoms: C_13  and  C_14
REMARK    7  A    between atoms: C_13  and  C_20
REMARK                            x       y       z     vdW  Elec       q    Type
REMARK                         _______ _______ _______ _____ _____    ______ ____
ROOT
ATOM      1  C   UNL     1      -1.239   2.150   0.020  0.00  0.00    +0.213 C 
ENDROOT
BRANCH   1   6
ATOM      2  C   UNL     1       1.823  -1.200   1.237  0.00  0.00    +0.047 C 
ATOM      3  C   UNL     1       1.467  -0.394  -0.014  0.00  0.00    +0.135 C 
ATOM      4  C   UNL     1       0.002  -0.004   0.002  0.00  0.00    +0.251 C 
ATOM      5  O   UNL     1      -0.954  -0.749   0.008  0.00  0.00    -0.272 OA
ATOM      6  N   UNL     1      -0.016   1.343   0.009  0.00  0.00    -0.215 N 
ATOM      7  C   UNL     1       1.220   1.854   0.000  0.00  0.00    +0.310 C 
ATOM      8  O   UNL     1       1.460   3.045   0.004  0.00  0.00    -0.252 OA
ATOM      9  N   UNL     1       2.170   0.901  -0.014  0.00  0.00    -0.281 N 
ATOM     10  H   UNL     1       3.130   1.039  -0.022  0.00  0.00    +0.152 HD
BRANCH   3  11
ATOM     11  C   UNL     1       1.794  -1.175  -1.261  0.00  0.00    -0.015 A 
ATOM     12  C   UNL     1       0.827  -1.964  -1.855  0.00  0.00    +0.007 A 
ATOM     13  C   UNL     1       1.125  -2.676  -3.002  0.00  0.00    +0.020 A 
ATOM     14  C   UNL     1       2.394  -2.607  -3.549  0.00  0.00    +0.041 A 
ATOM     15  C   UNL     1       3.363  -1.822  -2.950  0.00  0.00    +0.020 A 
ATOM     16  C   UNL     1       3.062  -1.106  -1.806  0.00  0.00    +0.007 A 
ATOM     17 CL   UNL     1       2.771  -3.507  -4.984  0.00  0.00    -0.084 Cl
ENDBRANCH   3  11
ENDBRANCH   1   6
BRANCH   1  18
ATOM     18  C   UNL     1      -1.652   2.419   1.444  0.00  0.00    +0.232 C 
ATOM     19  O   UNL     1      -0.989   1.980   2.360  0.00  0.00    -0.274 OA
ATOM     20  N   UNL     1      -2.757   3.147   1.700  0.00  0.00    -0.303 N 
ATOM     21  H   UNL     1      -3.287   3.498   0.967  0.00  0.00    +0.150 HD
BRANCH  20  22
ATOM     22  C   UNL     1      -3.158   3.408   3.084  0.00  0.00    +0.134 C 
BRANCH  22  23
ATOM     23  C   UNL     1      -3.980   4.670   3.139  0.00  0.00    -0.023 A 
ATOM     24  C   UNL     1      -4.905   4.936   2.147  0.00  0.00    +0.006 A 
ATOM     25  C   UNL     1      -5.662   6.091   2.200  0.00  0.00    +0.000 A 
ATOM     26  C   UNL     1      -5.489   6.984   3.240  0.00  0.00    +0.000 A 
ATOM     27  C   UNL     1      -4.561   6.720   4.231  0.00  0.00    +0.000 A 
ATOM     28  C   UNL     1      -3.806   5.563   4.180  0.00  0.00    +0.006 A 
ENDBRANCH  22  23
BRANCH  22  29
ATOM     29  C   UNL     1      -3.977   2.252   3.597  0.00  0.00    -0.023 A 
ATOM     30  C   UNL     1      -4.908   1.646   2.774  0.00  0.00    +0.006 A 
ATOM     31  C   UNL     1      -5.656   0.582   3.243  0.00  0.00    +0.000 A 
ATOM     32  C   UNL     1      -5.480   0.130   4.538  0.00  0.00    +0.000 A 
ATOM     33  C   UNL     1      -4.552   0.739   5.362  0.00  0.00    +0.000 A 
ATOM     34  C   UNL     1      -3.801   1.800   4.892  0.00  0.00    +0.006 A 
ENDBRANCH  22  29
ENDBRANCH  20  22
ENDBRANCH   1  18
TORSDOF 6
