REMARK  Name = ZINC20208397
REMARK  10 active torsions:
REMARK  status: ('A' for Active; 'I' for Inactive)
REMARK    1  A    between atoms: C_1  and  C_2
REMARK    2  A    between atoms: C_2  and  S_3
REMARK    3  A    between atoms: S_3  and  C_6
REMARK    4  A    between atoms: C_12  and  C_13
REMARK    5  A    between atoms: C_16  and  O_21
REMARK    6  A    between atoms: C_17  and  O_19
REMARK    7  A    between atoms: O_19  and  C_20
REMARK    8  A    between atoms: O_21  and  C_22
REMARK    9  A    between atoms: C_22  and  C_23
REMARK   10  A    between atoms: C_26  and  C_29
REMARK                            x       y       z     vdW  Elec       q    Type
REMARK                         _______ _______ _______ _____ _____    ______ ____
ROOT
ATOM      1  C   UNL     1       0.156 -10.727  -5.495  0.00  0.00    +0.235 C 
ATOM      2  N   UNL     1       0.815  -9.698  -5.043  0.00  0.00    -0.145 NA
ATOM      3  N   UNL     1       0.645  -9.251  -3.750  0.00  0.00    -0.150 N 
ATOM      4  C   UNL     1       1.238  -8.099  -3.191  0.00  0.00    +0.153 C 
ATOM      5  N   UNL     1       1.672  -7.096  -3.906  0.00  0.00    -0.283 NA
ATOM      6  C   UNL     1       1.319  -8.139  -1.703  0.00  0.00    +0.081 C 
ATOM      7  C   UNL     1       2.358  -7.550  -1.017  0.00  0.00    +0.024 C 
ATOM      8  C   UNL     1       0.221  -8.848  -1.001  0.00  0.00    +0.273 C 
ATOM      9  O   UNL     1      -0.068  -8.572   0.152  0.00  0.00    -0.268 OA
ATOM     10  N   UNL     1      -0.449  -9.804  -1.674  0.00  0.00    -0.152 NA
ATOM     11  C   UNL     1      -0.201  -9.985  -2.947  0.00  0.00    +0.182 C 
ATOM     12  S   UNL     1      -0.821 -11.204  -4.076  0.00  0.00    -0.015 S 
ATOM     13  H   UNL     1       1.657  -7.148  -4.875  0.00  0.00    +0.188 HD
ENDROOT
BRANCH   7  14
ATOM     14  C   UNL     1       3.511  -7.020  -1.748  0.00  0.00    -0.021 A 
ATOM     15  C   UNL     1       4.159  -5.862  -1.296  0.00  0.00    +0.012 A 
ATOM     16  C   UNL     1       5.242  -5.367  -1.985  0.00  0.00    +0.050 A 
ATOM     17  C   UNL     1       5.697  -6.012  -3.129  0.00  0.00    +0.162 A 
ATOM     18  C   UNL     1       5.059  -7.166  -3.586  0.00  0.00    +0.162 A 
ATOM     19  C   UNL     1       3.975  -7.673  -2.899  0.00  0.00    +0.057 A 
BRANCH  18  20
ATOM     20  O   UNL     1       5.508  -7.793  -4.706  0.00  0.00    -0.491 OA
ATOM     21  C   UNL     1       4.807  -8.968  -5.117  0.00  0.00    +0.277 C 
ENDBRANCH  18  20
BRANCH  17  22
ATOM     22  O   UNL     1       6.766  -5.518  -3.804  0.00  0.00    -0.484 OA
BRANCH  22  23
ATOM     23  C   UNL     1       7.373  -4.334  -3.283  0.00  0.00    +0.264 C 
BRANCH  23  24
ATOM     24  C   UNL     1       8.534  -3.938  -4.157  0.00  0.00    -0.010 A 
ATOM     25  C   UNL     1       9.799  -4.430  -3.892  0.00  0.00    +0.007 A 
ATOM     26  C   UNL     1      10.864  -4.067  -4.694  0.00  0.00    +0.004 A 
ATOM     27  C   UNL     1      10.666  -3.211  -5.761  0.00  0.00    -0.050 A 
ATOM     28  C   UNL     1       9.401  -2.719  -6.026  0.00  0.00    +0.004 A 
ATOM     29  C   UNL     1       8.335  -3.086  -5.227  0.00  0.00    +0.007 A 
ATOM     30  C   UNL     1      11.828  -2.813  -6.635  0.00  0.00    +0.044 C 
ENDBRANCH  23  24
ENDBRANCH  22  23
ENDBRANCH  17  22
ENDBRANCH   7  14
BRANCH   1  31
ATOM     31  S   UNL     1       0.210 -11.458  -7.097  0.00  0.00    +0.022 S 
ATOM     32  O   UNL     1       0.727 -10.440  -7.943  0.00  0.00    -0.167 OA
ATOM     33  O   UNL     1      -1.097 -11.976  -7.303  0.00  0.00    -0.167 OA
BRANCH  31  35
ATOM     34  C   UNL     1       1.532 -13.530  -8.297  0.00  0.00    +0.028 C 
ATOM     35  C   UNL     1       1.404 -12.816  -6.950  0.00  0.00    +0.171 C 
ENDBRANCH  31  35
ENDBRANCH   1  31
TORSDOF 7
