REMARK  Name = ZINC33362258
REMARK  5 active torsions:
REMARK  status: ('A' for Active; 'I' for Inactive)
REMARK    1  A    between atoms: C_3  and  C_16
REMARK    2  A    between atoms: C_5  and  O_7
REMARK    3  A    between atoms: O_7  and  C_8
REMARK    4  A    between atoms: C_8  and  C_9
REMARK    5  A    between atoms: N_17  and  N_18
REMARK                            x       y       z     vdW  Elec       q    Type
REMARK                         _______ _______ _______ _____ _____    ______ ____
ROOT
ATOM      1  C   UNL     1      -0.017   1.379   0.010  0.00  0.00    +0.004 A 
ATOM      2  C   UNL     1       1.166   2.089   0.002  0.00  0.00    +0.010 A 
ATOM      3  C   UNL     1       2.388   1.410  -0.013  0.00  0.00    -0.002 A 
ATOM      4  C   UNL     1       2.404   0.013  -0.021  0.00  0.00    +0.055 A 
ATOM      5  C   UNL     1       1.211  -0.688  -0.013  0.00  0.00    +0.122 A 
ATOM      6  C   UNL     1       0.002  -0.004   0.002  0.00  0.00    +0.046 A 
ENDROOT
BRANCH   3   7
ATOM      7  C   UNL     1       3.652   2.164  -0.022  0.00  0.00    +0.143 C 
ATOM      8  N   UNL     1       3.634   3.469  -0.015  0.00  0.00    -0.154 NA
BRANCH   8   9
ATOM      9  N   UNL     1       4.742   4.129  -0.022  0.00  0.00    -0.114 NA
ATOM     10  C   UNL     1       4.723   5.447  -0.016  0.00  0.00    +0.213 C 
ATOM     11  N   UNL     1       3.526   6.116  -0.001  0.00  0.00    -0.369 N 
ATOM     12  N   UNL     1       5.901   6.150  -0.024  0.00  0.00    -0.369 N 
ATOM     13  H   UNL     1       2.693   5.620   0.005  0.00  0.00    +0.159 HD
ATOM     14  H   UNL     1       6.748   5.676  -0.034  0.00  0.00    +0.159 HD
ATOM     15  H   UNL     1       5.888   7.120  -0.018  0.00  0.00    +0.159 HD
ATOM     16  H   UNL     1       3.513   7.086   0.004  0.00  0.00    +0.159 HD
ENDBRANCH   8   9
ENDBRANCH   3   7
BRANCH   5  17
ATOM     17  O   UNL     1       1.222  -2.047  -0.021  0.00  0.00    -0.487 OA
BRANCH  17  18
ATOM     18  C   UNL     1      -0.046  -2.706  -0.012  0.00  0.00    +0.264 C 
BRANCH  18  19
ATOM     19  C   UNL     1       0.163  -4.199  -0.022  0.00  0.00    -0.010 A 
ATOM     20  C   UNL     1       0.253  -4.876  -1.224  0.00  0.00    +0.008 A 
ATOM     21  C   UNL     1       0.445  -6.244  -1.234  0.00  0.00    +0.020 A 
ATOM     22  C   UNL     1       0.547  -6.937  -0.041  0.00  0.00    +0.041 A 
ATOM     23  C   UNL     1       0.457  -6.259   1.162  0.00  0.00    +0.020 A 
ATOM     24  C   UNL     1       0.271  -4.889   1.171  0.00  0.00    +0.008 A 
ATOM     25 CL   UNL     1       0.788  -8.656  -0.052  0.00  0.00    -0.084 Cl
ENDBRANCH  18  19
ENDBRANCH  17  18
ENDBRANCH   5  17
TORSDOF 5
