REMARK  Name = ZINC61999500
REMARK  4 active torsions:
REMARK  status: ('A' for Active; 'I' for Inactive)
REMARK    1  A    between atoms: C_1  and  C_2
REMARK    2  A    between atoms: C_4  and  C_37
REMARK    3  A    between atoms: C_22  and  C_30
REMARK    4  A    between atoms: C_30  and  C_32
REMARK                            x       y       z     vdW  Elec       q    Type
REMARK                         _______ _______ _______ _____ _____    ______ ____
ROOT
ATOM      1  C   UNL     1       0.032   1.442  -0.050  0.00  0.00    +0.044 C 
ATOM      2  C   UNL     1       0.010  -0.065  -0.031  0.00  0.00    -0.050 A 
ATOM      3  C   UNL     1      -0.021  -0.773  -1.218  0.00  0.00    +0.008 A 
ATOM      4  C   UNL     1      -0.040  -2.152  -1.207  0.00  0.00    -0.029 A 
ATOM      5  C   UNL     1      -0.028  -2.843   0.003  0.00  0.00    +0.042 A 
ATOM      6  C   UNL     1       0.001  -2.120   1.190  0.00  0.00    +0.005 A 
ATOM      7  C   UNL     1       0.027  -0.744   1.175  0.00  0.00    +0.011 A 
ATOM      8  C   UNL     1       0.002  -3.140   2.299  0.00  0.00    +0.145 C 
ATOM      9  C   UNL     1      -0.022  -4.472   1.592  0.00  0.00    +0.244 C 
ATOM     10  O   UNL     1      -0.025  -5.567   2.113  0.00  0.00    -0.273 OA
ATOM     11  N   UNL     1      -0.040  -4.213   0.271  0.00  0.00    -0.283 N 
ATOM     12  C   UNL     1       1.238  -3.002   3.178  0.00  0.00    +0.116 C 
ATOM     13  C   UNL     1       1.890  -4.329   3.449  0.00  0.00    -0.008 A 
ATOM     14  C   UNL     1       1.450  -5.501   4.021  0.00  0.00    +0.006 A 
ATOM     15  C   UNL     1       2.309  -6.580   4.137  0.00  0.00    +0.000 A 
ATOM     16  C   UNL     1       3.609  -6.477   3.675  0.00  0.00    +0.002 A 
ATOM     17  C   UNL     1       4.053  -5.305   3.099  0.00  0.00    +0.023 A 
ATOM     18  C   UNL     1       3.195  -4.213   2.980  0.00  0.00    +0.038 A 
ATOM     19  N   UNL     1       3.406  -2.941   2.446  0.00  0.00    -0.284 N 
ATOM     20  C   UNL     1       2.305  -2.168   2.524  0.00  0.00    +0.231 C 
ATOM     21  O   UNL     1       2.196  -1.022   2.141  0.00  0.00    -0.274 OA
ATOM     22  C   UNL     1       0.742  -2.352   4.479  0.00  0.00    +0.100 C 
ATOM     23  C   UNL     1      -0.737  -2.773   4.547  0.00  0.00    +0.070 C 
ATOM     24  N   UNL     1      -1.188  -2.982   3.152  0.00  0.00    -0.281 NA
ATOM     25  C   UNL     1      -1.902  -1.739   2.757  0.00  0.00    +0.086 C 
ATOM     26  C   UNL     1      -2.610  -1.284   4.055  0.00  0.00    +0.017 C 
ATOM     27  C   UNL     1      -1.582  -1.655   5.170  0.00  0.00    +0.021 C 
ATOM     28  C   UNL     1      -0.074  -2.913  -2.507  0.00  0.00    +0.045 C 
ATOM     29  H   UNL     1      -0.059  -4.899  -0.414  0.00  0.00    +0.155 HD
ATOM     30  H   UNL     1       4.247  -2.647   2.063  0.00  0.00    +0.155 HD
ENDROOT
BRANCH  22  31
ATOM     31  C   UNL     1       1.505  -2.886   5.663  0.00  0.00    +0.176 C 
ATOM     32  O   UNL     1       1.073  -3.836   6.286  0.00  0.00    -0.291 OA
BRANCH  31  33
ATOM     33  C   UNL     1       2.721  -2.283   6.050  0.00  0.00    +0.055 A 
ATOM     34  C   UNL     1       3.575  -2.620   7.097  0.00  0.00    +0.019 A 
ATOM     35  C   UNL     1       4.695  -1.840   7.225  0.00  0.00    +0.008 A 
ATOM     36  C   UNL     1       4.895  -0.821   6.350  0.00  0.00    +0.046 A 
ATOM     37  S   UNL     1       3.569  -0.895   5.320  0.00  0.00    -0.094 S 
ENDBRANCH  31  33
ENDBRANCH  22  31
TORSDOF 2
