REMARK  Name = ZINC06634253
REMARK  5 active torsions:
REMARK  status: ('A' for Active; 'I' for Inactive)
REMARK    1  A    between atoms: C_1  and  C_2
REMARK    2  A    between atoms: C_2  and  C_21
REMARK    3  A    between atoms: C_7  and  S_11
REMARK    4  A    between atoms: S_11  and  N_14
REMARK    5  A    between atoms: N_14  and  C_15
REMARK                            x       y       z     vdW  Elec       q    Type
REMARK                         _______ _______ _______ _____ _____    ______ ____
ROOT
ATOM      1  S   UNL     1       3.938   3.492   1.945  0.00  0.00    +0.043 S 
ATOM      2  O   UNL     1       5.256   3.923   1.638  0.00  0.00    -0.157 OA
ATOM      3  O   UNL     1       2.810   4.215   1.470  0.00  0.00    -0.157 OA
ENDROOT
BRANCH   1   9
ATOM      4  C   UNL     1       5.378   5.019   4.560  0.00  0.00    +0.014 C 
ATOM      5  C   UNL     1       3.968   4.432   4.661  0.00  0.00    +0.002 C 
ATOM      6  C   UNL     1       3.728   3.658   6.006  0.00  0.00    +0.004 C 
ATOM      7  C   UNL     1       4.776   2.511   5.867  0.00  0.00    +0.007 C 
ATOM      8  C   UNL     1       4.804   2.182   4.337  0.00  0.00    +0.040 C 
ATOM      9  C   UNL     1       3.779   3.186   3.726  0.00  0.00    +0.166 C 
ATOM     10  C   UNL     1       2.410   2.676   4.198  0.00  0.00    +0.163 C 
ATOM     11  O   UNL     1       1.554   2.151   3.528  0.00  0.00    -0.295 OA
ATOM     12  C   UNL     1       2.363   2.972   5.690  0.00  0.00    +0.081 C 
ATOM     13  C   UNL     1       2.892   5.495   4.429  0.00  0.00    +0.014 C 
ENDBRANCH   1   9
BRANCH   1  14
ATOM     14  N   UNL     1       3.807   1.998   1.243  0.00  0.00    -0.191 NA
ATOM     15  H   UNL     1       4.606   1.505   1.000  0.00  0.00    +0.148 HD
BRANCH  14  16
ATOM     16  C   UNL     1       2.485   1.421   0.990  0.00  0.00    +0.076 C 
ATOM     17  C   UNL     1       2.249   1.329  -0.519  0.00  0.00    +0.020 C 
ATOM     18  C   UNL     1       0.868   0.726  -0.784  0.00  0.00    +0.002 C 
ATOM     19  C   UNL     1       0.797  -0.674  -0.170  0.00  0.00    +0.000 C 
ATOM     20  C   UNL     1       1.032  -0.582   1.339  0.00  0.00    +0.002 C 
ATOM     21  C   UNL     1       2.413   0.021   1.603  0.00  0.00    +0.020 C 
ENDBRANCH  14  16
ENDBRANCH   1  14
TORSDOF 3
