REMARK  Name = ZINC14325719
REMARK  12 active torsions:
REMARK  status: ('A' for Active; 'I' for Inactive)
REMARK    1  A    between atoms: C_1  and  C_2
REMARK    2  A    between atoms: C_2  and  C_3
REMARK    3  A    between atoms: C_2  and  C_4
REMARK    4  A    between atoms: C_2  and  N_5
REMARK    5  A    between atoms: N_5  and  S_6
REMARK    6  A    between atoms: S_6  and  C_9
REMARK    7  A    between atoms: C_12  and  N_18
REMARK    8  A    between atoms: C_13  and  N_15
REMARK    9  A    between atoms: C_23  and  C_24
REMARK   10  A    between atoms: C_23  and  N_65
REMARK   11  A    between atoms: N_26  and  C_27
REMARK   12  A    between atoms: C_27  and  C_28
REMARK                            x       y       z     vdW  Elec       q    Type
REMARK                         _______ _______ _______ _____ _____    ______ ____
ROOT
ATOM      1  N   UNL     1       2.723   1.623  -2.152  0.00  0.00    -0.332 N 
ATOM      2  C   UNL     1       2.774   1.438  -3.609  0.00  0.00    +0.086 C 
ATOM      3  C   UNL     1       4.212   1.123  -4.030  0.00  0.00    -0.059 C 
ATOM      4  C   UNL     1       4.619   0.099  -1.875  0.00  0.00    -0.059 C 
ATOM      5  C   UNL     1       3.181   0.414  -1.454  0.00  0.00    +0.086 C 
ATOM      6  N   UNL     1       4.652  -0.106  -3.338  0.00  0.00    +0.387 N 
ATOM      7  H   UNL     1       4.015  -0.874  -3.582  0.00  0.00    -0.081 HD
ENDROOT
BRANCH   1  11
ATOM      8  C   UNL     1      -1.107   2.696  -0.920  0.00  0.00    +0.108 A 
ATOM      9  C   UNL     1      -0.891   1.463  -1.508  0.00  0.00    +0.030 A 
ATOM     10  C   UNL     1       0.378   1.102  -1.912  0.00  0.00    +0.027 A 
ATOM     11  C   UNL     1       1.438   1.983  -1.738  0.00  0.00    +0.060 A 
ATOM     12  C   UNL     1       1.218   3.223  -1.153  0.00  0.00    +0.149 A 
ATOM     13  C   UNL     1      -0.054   3.576  -0.745  0.00  0.00    +0.063 A 
BRANCH   8  14
ATOM     14  S   UNL     1      -2.727   3.151  -0.398  0.00  0.00    +0.059 S 
ATOM     15  O   UNL     1      -3.332   1.974   0.119  0.00  0.00    -0.153 OA
ATOM     16  O   UNL     1      -2.589   4.338   0.371  0.00  0.00    -0.153 OA
BRANCH  14  17
ATOM     17  N   UNL     1      -3.581   3.564  -1.756  0.00  0.00    -0.185 NA
ATOM     18  H   UNL     1      -4.321   3.010  -2.051  0.00  0.00    +0.149 HD
BRANCH  17  20
ATOM     19  C   UNL     1      -1.724   4.728  -2.842  0.00  0.00    +0.029 C 
ATOM     20  C   UNL     1      -3.218   4.765  -2.512  0.00  0.00    +0.032 C 
ATOM     21  C   UNL     1      -4.026   4.814  -3.811  0.00  0.00    +0.029 C 
ATOM     22  C   UNL     1      -3.525   6.007  -1.674  0.00  0.00    +0.029 C 
ENDBRANCH  17  20
ENDBRANCH  14  17
ENDBRANCH   8  14
BRANCH  12  23
ATOM     23  N   UNL     1       2.344   4.165  -0.965  0.00  0.00    +0.058 N 
ATOM     24  O   UNL     1       2.150   5.252  -0.451  0.00  0.00    -0.126 OA
ATOM     25  O   UNL     1       3.465   3.853  -1.324  0.00  0.00    -0.126 OA
ENDBRANCH  12  23
ENDBRANCH   1  11
BRANCH   6  26
ATOM     26  C   UNL     1       6.021  -0.465  -3.767  0.00  0.00    +0.019 C 
BRANCH  26  27
ATOM     27  C   UNL     1       6.340  -1.850  -3.267  0.00  0.00    +0.197 C 
ATOM     28  O   UNL     1       5.483  -2.508  -2.716  0.00  0.00    -0.278 OA
ATOM     29  N   UNL     1       7.578  -2.357  -3.431  0.00  0.00    -0.313 N 
ATOM     30  H   UNL     1       8.264  -1.830  -3.871  0.00  0.00    +0.149 HD
BRANCH  29  31
ATOM     31  C   UNL     1       7.888  -3.704  -2.945  0.00  0.00    +0.139 C 
BRANCH  31  32
ATOM     32  C   UNL     1       9.328  -4.029  -3.250  0.00  0.00    -0.030 A 
ATOM     33  C   UNL     1       9.660  -4.640  -4.444  0.00  0.00    +0.005 A 
ATOM     34  C   UNL     1      10.981  -4.934  -4.727  0.00  0.00    +0.000 A 
ATOM     35  C   UNL     1      11.969  -4.626  -3.810  0.00  0.00    +0.000 A 
ATOM     36  C   UNL     1      11.636  -4.019  -2.613  0.00  0.00    +0.000 A 
ATOM     37  C   UNL     1      10.316  -3.721  -2.333  0.00  0.00    +0.005 A 
ENDBRANCH  31  32
ENDBRANCH  29  31
ENDBRANCH  26  27
ENDBRANCH   6  26
TORSDOF 9
