REMARK  Name = ZINC67612875
REMARK  11 active torsions:
REMARK  status: ('A' for Active; 'I' for Inactive)
REMARK    1  A    between atoms: C_1  and  C_2
REMARK    2  A    between atoms: C_7  and  C_9
REMARK    3  A    between atoms: C_7  and  N_29
REMARK    4  A    between atoms: C_9  and  N_10
REMARK    5  A    between atoms: C_11  and  C_13
REMARK    6  A    between atoms: C_13  and  C_14
REMARK    7  A    between atoms: C_14  and  C_15
REMARK    8  A    between atoms: C_15  and  C_16
REMARK    9  A    between atoms: C_16  and  C_17
REMARK   10  A    between atoms: N_29  and  C_30
REMARK   11  A    between atoms: N_29  and  C_31
REMARK                            x       y       z     vdW  Elec       q    Type
REMARK                         _______ _______ _______ _____ _____    ______ ____
ROOT
ATOM      1  N   UNL     1       1.174  -3.642   1.823  0.00  0.00    -0.317 N 
ATOM      2  C   UNL     1       1.458  -4.336   2.943  0.00  0.00    +0.213 C 
ATOM      3  O   UNL     1       1.778  -3.749   3.954  0.00  0.00    -0.276 OA
ATOM      4  H   UNL     1       0.917  -4.112   1.013  0.00  0.00    +0.149 HD
ENDROOT
BRANCH   1   5
ATOM      5  C   UNL     1       1.252  -2.179   1.827  0.00  0.00    +0.092 C 
BRANCH   5  11
ATOM      6  C   UNL     1       0.738   1.931  -0.968  0.00  0.00    +0.007 C 
ATOM      7  C   UNL     1       0.792   0.402  -0.993  0.00  0.00    -0.015 C 
ATOM      8  C   UNL     1      -0.521  -0.145  -1.556  0.00  0.00    +0.003 C 
ATOM      9  C   UNL     1      -0.468  -1.674  -1.580  0.00  0.00    -0.001 C 
ATOM     10  C   UNL     1      -0.264  -2.201  -0.158  0.00  0.00    -0.010 C 
ATOM     11  C   UNL     1       1.049  -1.653   0.405  0.00  0.00    -0.050 C 
ATOM     12  C   UNL     1       0.995  -0.124   0.430  0.00  0.00    -0.007 C 
BRANCH  11  13
ATOM     13  N   UNL     1       2.166  -2.091  -0.443  0.00  0.00    +0.381 N 
ATOM     14  C   UNL     1       3.437  -1.690   0.175  0.00  0.00    -0.096 C 
ATOM     15  C   UNL     1       2.129  -3.552  -0.586  0.00  0.00    -0.096 C 
ATOM     16  H   UNL     1       2.085  -1.662  -1.353  0.00  0.00    -0.082 HD
ENDBRANCH  11  13
ENDBRANCH   5  11
ENDBRANCH   1   5
BRANCH   2  17
ATOM     17  C   UNL     1       1.377  -5.841   2.938  0.00  0.00    +0.096 C 
BRANCH  17  18
ATOM     18  C   UNL     1       1.744  -6.376   4.323  0.00  0.00    +0.009 C 
BRANCH  18  19
ATOM     19  C   UNL     1       1.662  -7.904   4.319  0.00  0.00    +0.002 C 
BRANCH  19  20
ATOM     20  C   UNL     1       2.030  -8.438   5.704  0.00  0.00    +0.016 C 
BRANCH  20  21
ATOM     21  C   UNL     1       1.948  -9.966   5.699  0.00  0.00    +0.069 C 
ATOM     22  C   UNL     1       2.272 -10.534   7.058  0.00  0.00    +0.108 C 
ATOM     23  C   UNL     1       2.828 -11.979   6.872  0.00  0.00    +0.105 C 
ATOM     24  C   UNL     1       4.060 -11.829   5.983  0.00  0.00    +0.093 C 
ATOM     25  S   UNL     1       3.310 -10.707   4.684  0.00  0.00    -0.154 S 
ATOM     26  N   UNL     1       2.942 -12.365   8.261  0.00  0.00    -0.294 N 
ATOM     27  C   UNL     1       1.920 -11.723   8.902  0.00  0.00    +0.300 C 
ATOM     28  O   UNL     1       1.552 -12.000  10.027  0.00  0.00    -0.253 OA
ATOM     29  N   UNL     1       1.353 -10.752   8.135  0.00  0.00    -0.294 N 
ATOM     30  H   UNL     1       3.604 -12.955   8.654  0.00  0.00    +0.151 HD
ATOM     31  H   UNL     1       0.509 -10.302   8.291  0.00  0.00    +0.151 HD
ENDBRANCH  20  21
ENDBRANCH  19  20
ENDBRANCH  18  19
ENDBRANCH  17  18
ENDBRANCH   2  17
TORSDOF 8
