REMARK  Name = ZINC64626559
REMARK  6 active torsions:
REMARK  status: ('A' for Active; 'I' for Inactive)
REMARK    1  A    between atoms: C_1  and  C_2
REMARK    2  A    between atoms: C_5  and  C_8
REMARK    3  A    between atoms: N_12  and  C_13
REMARK    4  A    between atoms: C_13  and  C_14
REMARK    5  A    between atoms: C_14  and  C_15
REMARK    6  A    between atoms: C_14  and  O_25
REMARK                            x       y       z     vdW  Elec       q    Type
REMARK                         _______ _______ _______ _____ _____    ______ ____
ROOT
ATOM      1  C   UNL     1      -1.297  -3.672   1.872  0.00  0.00    -0.041 C 
ENDROOT
BRANCH   1   6
ATOM      2  C   UNL     1      -0.074  -4.286  -0.107  0.00  0.00    -0.038 C 
ATOM      3  C   UNL     1       1.411  -4.701  -0.043  0.00  0.00    -0.013 C 
ATOM      4  C   UNL     1       1.395  -5.906   0.934  0.00  0.00    -0.020 C 
ATOM      5  C   UNL     1       0.296  -5.479   1.939  0.00  0.00    -0.078 C 
ATOM      6  N   UNL     1      -0.723  -4.793   1.116  0.00  0.00    +0.386 N 
ATOM      7  H   UNL     1      -1.453  -5.444   0.868  0.00  0.00    -0.081 HD
BRANCH   2  12
ATOM      8  C   UNL     1      -0.495   1.474  -0.315  0.00  0.00    +0.044 C 
ATOM      9  C   UNL     1      -0.385  -0.028  -0.261  0.00  0.00    -0.050 A 
ATOM     10  C   UNL     1       0.425  -0.629   0.685  0.00  0.00    +0.003 A 
ATOM     11  C   UNL     1       0.526  -2.006   0.735  0.00  0.00    +0.002 A 
ATOM     12  C   UNL     1      -0.185  -2.784  -0.161  0.00  0.00    -0.061 A 
ATOM     13  C   UNL     1      -0.996  -2.184  -1.105  0.00  0.00    +0.002 A 
ATOM     14  C   UNL     1      -1.100  -0.806  -1.152  0.00  0.00    +0.003 A 
ENDBRANCH   2  12
ENDBRANCH   1   6
BRANCH   1  15
ATOM     15  C   UNL     1      -2.108  -4.215   3.051  0.00  0.00    +0.128 C 
BRANCH  15  16
ATOM     16  C   UNL     1      -2.697  -3.065   3.827  0.00  0.00    -0.017 A 
ATOM     17  C   UNL     1      -3.901  -2.511   3.432  0.00  0.00    +0.010 A 
ATOM     18  C   UNL     1      -4.443  -1.456   4.140  0.00  0.00    +0.050 A 
ATOM     19  C   UNL     1      -3.782  -0.950   5.249  0.00  0.00    +0.162 A 
ATOM     20  C   UNL     1      -2.574  -1.508   5.648  0.00  0.00    +0.162 A 
ATOM     21  C   UNL     1      -2.036  -2.570   4.935  0.00  0.00    +0.055 A 
ATOM     22  O   UNL     1      -1.912  -1.033   6.738  0.00  0.00    -0.485 OA
ATOM     23  C   UNL     1      -2.295   0.265   7.207  0.00  0.00    +0.270 C 
ATOM     24  C   UNL     1      -3.828   0.326   7.255  0.00  0.00    +0.270 C 
ATOM     25  O   UNL     1      -4.327   0.093   5.934  0.00  0.00    -0.485 OA
ENDBRANCH  15  16
BRANCH  15  26
ATOM     26  O   UNL     1      -3.160  -5.048   2.562  0.00  0.00    -0.389 OA
ATOM     27  H   UNL     1      -3.780  -4.595   1.974  0.00  0.00    +0.210 HD
ENDBRANCH  15  26
ENDBRANCH   1  15
TORSDOF 5
