REMARK  Name = ZINC62265762
REMARK  6 active torsions:
REMARK  status: ('A' for Active; 'I' for Inactive)
REMARK    1  A    between atoms: C_1  and  C_2
REMARK    2  A    between atoms: C_10  and  C_11
REMARK    3  A    between atoms: C_11  and  C_12
REMARK    4  A    between atoms: C_11  and  N_13
REMARK    5  A    between atoms: C_14  and  C_16
REMARK    6  A    between atoms: C_19  and  N_22
REMARK                            x       y       z     vdW  Elec       q    Type
REMARK                         _______ _______ _______ _____ _____    ______ ____
ROOT
ATOM      1  N   UNL     1       0.690  -1.234   3.582  0.00  0.00    -0.302 N 
ATOM      2  C   UNL     1       1.577  -0.595   4.370  0.00  0.00    +0.245 C 
ATOM      3  O   UNL     1       1.552   0.618   4.455  0.00  0.00    -0.270 OA
ATOM      4  H   UNL     1       0.711  -2.201   3.514  0.00  0.00    +0.150 HD
ENDROOT
BRANCH   2   5
ATOM      5  C   UNL     1       2.579  -1.367   5.131  0.00  0.00    +0.037 A 
ATOM      6  C   UNL     1       2.613  -2.760   5.030  0.00  0.00    +0.015 A 
ATOM      7  C   UNL     1       3.549  -3.477   5.741  0.00  0.00    +0.026 A 
ATOM      8  C   UNL     1       4.460  -2.816   6.559  0.00  0.00    +0.056 A 
ATOM      9  C   UNL     1       4.429  -1.429   6.662  0.00  0.00    +0.026 A 
ATOM     10  C   UNL     1       3.499  -0.706   5.949  0.00  0.00    +0.015 A 
BRANCH   8  11
ATOM     11  N   UNL     1       5.407  -3.545   7.277  0.00  0.00    -0.188 N 
ATOM     12  C   UNL     1       5.579  -3.306   8.591  0.00  0.00    +0.237 C 
ATOM     13  O   UNL     1       4.907  -2.461   9.144  0.00  0.00    -0.274 OA
ATOM     14  C   UNL     1       6.602  -4.084   9.377  0.00  0.00    +0.107 C 
ATOM     15  C   UNL     1       6.686  -5.512   8.836  0.00  0.00    +0.106 C 
ATOM     16  C   UNL     1       6.802  -5.477   7.335  0.00  0.00    +0.230 C 
ATOM     17  O   UNL     1       7.466  -6.315   6.761  0.00  0.00    -0.274 OA
ATOM     18  N   UNL     1       6.168  -4.525   6.629  0.00  0.00    -0.227 N 
ATOM     19  H   UNL     1       6.243  -4.515   5.662  0.00  0.00    +0.173 HD
ENDBRANCH   8  11
ENDBRANCH   2   5
BRANCH   1  20
ATOM     20  C   UNL     1      -0.304  -0.468   2.827  0.00  0.00    +0.137 C 
ATOM     21  C   UNL     1      -1.517  -0.191   3.717  0.00  0.00    +0.036 C 
BRANCH  20  31
ATOM     22  C   UNL     1      -0.620   0.661  -0.051  0.00  0.00    +0.048 C 
ATOM     23  C   UNL     1      -0.869  -0.760   0.383  0.00  0.00    +0.000 A 
ATOM     24  C   UNL     1      -1.300  -1.878  -0.465  0.00  0.00    +0.023 A 
ATOM     25  C   UNL     1      -1.600  -2.015  -1.820  0.00  0.00    +0.012 A 
ATOM     26  C   UNL     1      -1.984  -3.233  -2.309  0.00  0.00    +0.001 A 
ATOM     27  C   UNL     1      -2.076  -4.331  -1.467  0.00  0.00    +0.004 A 
ATOM     28  C   UNL     1      -1.784  -4.215  -0.125  0.00  0.00    +0.047 A 
ATOM     29  C   UNL     1      -1.392  -2.986   0.393  0.00  0.00    +0.136 A 
ATOM     30  O   UNL     1      -1.050  -2.567   1.627  0.00  0.00    -0.458 OA
ATOM     31  C   UNL     1      -0.737  -1.259   1.619  0.00  0.00    +0.129 A 
ENDBRANCH  20  31
ENDBRANCH   1  20
TORSDOF 4
