REMARK  Name = ZINC34921835
REMARK  19 active torsions:
REMARK  status: ('A' for Active; 'I' for Inactive)
REMARK    1  A    between atoms: C_1  and  C_2
REMARK    2  A    between atoms: C_2  and  N_3
REMARK    3  A    between atoms: N_3  and  C_4
REMARK    4  A    between atoms: N_3  and  C_6
REMARK    5  A    between atoms: C_4  and  C_5
REMARK    6  A    between atoms: C_9  and  C_18
REMARK    7  A    between atoms: C_10  and  O_12
REMARK    8  A    between atoms: O_12  and  S_13
REMARK    9  A    between atoms: S_13  and  C_16
REMARK   10  A    between atoms: C_16  and  C_17
REMARK   11  A    between atoms: C_18  and  N_19
REMARK   12  A    between atoms: N_19  and  C_20
REMARK   13  A    between atoms: N_19  and  S_25
REMARK   14  A    between atoms: C_20  and  C_21
REMARK   15  A    between atoms: C_21  and  N_22
REMARK   16  A    between atoms: N_22  and  C_23
REMARK   17  A    between atoms: N_22  and  C_24
REMARK   18  A    between atoms: S_25  and  C_28
REMARK   19  A    between atoms: C_31  and  C_34
REMARK                            x       y       z     vdW  Elec       q    Type
REMARK                         _______ _______ _______ _____ _____    ______ ____
ROOT
ATOM      1  C   UNL     1       6.637  -1.536   0.648  0.00  0.00    +0.148 C 
ENDROOT
BRANCH   1   5
ATOM      2  C   UNL     1       2.622  -0.111   0.262  0.00  0.00    +0.033 A 
ATOM      3  C   UNL     1       3.404  -0.313  -0.869  0.00  0.00    +0.023 A 
ATOM      4  C   UNL     1       4.700  -0.774  -0.741  0.00  0.00    +0.010 A 
ATOM      5  C   UNL     1       5.223  -1.034   0.512  0.00  0.00    +0.013 A 
ATOM      6  C   UNL     1       4.447  -0.833   1.645  0.00  0.00    +0.163 A 
ATOM      7  C   UNL     1       3.147  -0.367   1.521  0.00  0.00    +0.072 A 
BRANCH   2   8
ATOM      8  N   UNL     1       1.312   0.354   0.132  0.00  0.00    -0.330 N 
BRANCH   8  10
ATOM      9  C   UNL     1       1.041   2.078  -1.582  0.00  0.00    +0.024 C 
ATOM     10  C   UNL     1       0.758   0.624  -1.197  0.00  0.00    +0.102 C 
ENDBRANCH   8  10
BRANCH   8  11
ATOM     11  C   UNL     1       0.491   0.573   1.326  0.00  0.00    +0.102 C 
ATOM     12  C   UNL     1      -0.271  -0.710   1.663  0.00  0.00    +0.024 C 
ENDBRANCH   8  11
ENDBRANCH   2   8
BRANCH   6  13
ATOM     13  O   UNL     1       4.963  -1.089   2.876  0.00  0.00    -0.346 OA
BRANCH  13  14
ATOM     14  S   UNL     1       5.556   0.132   3.565  0.00  0.00    +0.120 S 
ATOM     15  O   UNL     1       6.257  -0.390   4.686  0.00  0.00    -0.137 OA
ATOM     16  O   UNL     1       6.248   0.827   2.538  0.00  0.00    -0.137 OA
BRANCH  14  17
ATOM     17  C   UNL     1       4.123   1.097   4.118  0.00  0.00    +0.207 C 
ATOM     18  C   UNL     1       4.605   2.362   4.832  0.00  0.00    +0.032 C 
ENDBRANCH  14  17
ENDBRANCH  13  14
ENDBRANCH   6  13
ENDBRANCH   1   5
BRANCH   1  19
ATOM     19  N   UNL     1       6.631  -3.000   0.716  0.00  0.00    -0.174 NA
BRANCH  19  20
ATOM     20  S   UNL     1       7.326  -3.888  -0.497  0.00  0.00    +0.061 S 
ATOM     21  O   UNL     1       6.662  -5.144  -0.513  0.00  0.00    -0.153 OA
ATOM     22  O   UNL     1       7.384  -3.042  -1.637  0.00  0.00    -0.153 OA
BRANCH  20  23
ATOM     23  C   UNL     1       8.992  -4.205  -0.020  0.00  0.00    +0.106 A 
ATOM     24  C   UNL     1       9.975  -3.266  -0.274  0.00  0.00    +0.029 A 
ATOM     25  C   UNL     1      11.282  -3.516   0.100  0.00  0.00    +0.005 A 
ATOM     26  C   UNL     1      11.607  -4.704   0.728  0.00  0.00    -0.050 A 
ATOM     27  C   UNL     1      10.624  -5.642   0.982  0.00  0.00    +0.005 A 
ATOM     28  C   UNL     1       9.316  -5.391   0.612  0.00  0.00    +0.029 A 
ATOM     29  C   UNL     1      13.032  -4.976   1.135  0.00  0.00    +0.044 C 
ENDBRANCH  20  23
ENDBRANCH  19  20
BRANCH  19  30
ATOM     30  C   UNL     1       6.009  -3.678   1.856  0.00  0.00    +0.091 C 
BRANCH  30  31
ATOM     31  C   UNL     1       4.528  -3.919   1.561  0.00  0.00    -0.062 C 
BRANCH  31  32
ATOM     32  N   UNL     1       3.937  -4.718   2.643  0.00  0.00    +0.377 N 
ATOM     33  C   UNL     1       3.963  -3.946   3.892  0.00  0.00    -0.097 C 
ATOM     34  C   UNL     1       2.547  -5.051   2.302  0.00  0.00    -0.097 C 
ATOM     35  H   UNL     1       4.467  -5.568   2.761  0.00  0.00    -0.083 HD
ENDBRANCH  31  32
ENDBRANCH  30  31
ENDBRANCH  19  30
ENDBRANCH   1  19
TORSDOF 13
