REMARK  Name = ZINC00210149
REMARK  3 active torsions:
REMARK  status: ('A' for Active; 'I' for Inactive)
REMARK    1  A    between atoms: C_4  and  C_7
REMARK    2  A    between atoms: C_9  and  C_23
REMARK    3  A    between atoms: N_16  and  C_17
REMARK                            x       y       z     vdW  Elec       q    Type
REMARK                         _______ _______ _______ _____ _____    ______ ____
ROOT
ATOM      1  C   UNL     1       4.262   2.623   0.148  0.00  0.00    +0.136 C 
ATOM      2  C   UNL     1       4.254   3.453   1.435  0.00  0.00    +0.202 C 
ATOM      3  C   UNL     1       2.857   3.961   1.688  0.00  0.00    +0.238 C 
ATOM      4  O   UNL     1       2.450   4.075   2.824  0.00  0.00    -0.274 OA
ATOM      5  N   UNL     1       2.062   4.288   0.652  0.00  0.00    -0.266 N 
ATOM      6  C   UNL     1       2.460   4.086  -0.615  0.00  0.00    +0.144 C 
ATOM      7  S   UNL     1       1.566   4.790  -1.894  0.00  0.00    -0.018 S 
ATOM      8  N   UNL     1       3.542   3.344  -0.903  0.00  0.00    -0.273 N 
ATOM      9  H   UNL     1       1.190   4.674   0.823  0.00  0.00    +0.157 HD
ENDROOT
BRANCH   1  13
ATOM     10  C   UNL     1       2.352  -1.130   0.866  0.00  0.00    +0.000 A 
ATOM     11  C   UNL     1       1.590   0.001   0.639  0.00  0.00    +0.000 A 
ATOM     12  C   UNL     1       2.208   1.216   0.407  0.00  0.00    +0.005 A 
ATOM     13  C   UNL     1       3.588   1.299   0.401  0.00  0.00    -0.025 A 
ATOM     14  C   UNL     1       4.349   0.168   0.628  0.00  0.00    +0.005 A 
ATOM     15  C   UNL     1       3.731  -1.046   0.861  0.00  0.00    +0.000 A 
ENDBRANCH   1  13
BRANCH   8  16
ATOM     16  C   UNL     1       3.988   3.260  -2.226  0.00  0.00    +0.036 A 
ATOM     17  C   UNL     1       3.519   2.250  -3.056  0.00  0.00    +0.023 A 
ATOM     18  C   UNL     1       3.956   2.174  -4.364  0.00  0.00    +0.002 A 
ATOM     19  C   UNL     1       4.870   3.094  -4.843  0.00  0.00    +0.000 A 
ATOM     20  C   UNL     1       5.344   4.097  -4.018  0.00  0.00    +0.002 A 
ATOM     21  C   UNL     1       4.906   4.183  -2.711  0.00  0.00    +0.023 A 
ENDBRANCH   8  16
BRANCH   2  22
ATOM     22  C   UNL     1       4.684   2.612   2.564  0.00  0.00    +0.078 C 
ATOM     23  N   UNL     1       5.016   1.964   3.436  0.00  0.00    -0.196 NA
ENDBRANCH   2  22
TORSDOF 3
