REMARK  Name = ZINC63376201
REMARK  11 active torsions:
REMARK  status: ('A' for Active; 'I' for Inactive)
REMARK    1  A    between atoms: C_1  and  C_2
REMARK    2  A    between atoms: C_2  and  C_3
REMARK    3  A    between atoms: C_2  and  C_4
REMARK    4  A    between atoms: C_4  and  C_5
REMARK    5  A    between atoms: C_5  and  C_7
REMARK    6  A    between atoms: C_5  and  N_14
REMARK    7  A    between atoms: N_9  and  C_10
REMARK    8  A    between atoms: C_10  and  C_11
REMARK    9  A    between atoms: C_11  and  O_12
REMARK   10  A    between atoms: O_12  and  C_13
REMARK   11  A    between atoms: C_15  and  C_17
REMARK                            x       y       z     vdW  Elec       q    Type
REMARK                         _______ _______ _______ _____ _____    ______ ____
ROOT
ATOM      1  C   UNL     1       1.011  -2.904  -2.959  0.00  0.00    +0.167 C 
ATOM      2  C   UNL     1       0.593  -4.347  -3.304  0.00  0.00    +0.065 C 
ATOM      3  C   UNL     1       1.502  -4.816  -4.414  0.00  0.00    -0.034 C 
ATOM      4  C   UNL     1       1.219  -5.339  -5.603  0.00  0.00    -0.001 A 
ATOM      5  C   UNL     1      -0.058  -5.736  -6.218  0.00  0.00    +0.010 A 
ATOM      6  C   UNL     1       0.015  -6.230  -7.482  0.00  0.00    +0.001 A 
ATOM      7  C   UNL     1       1.214  -6.367  -8.187  0.00  0.00    +0.002 A 
ATOM      8  C   UNL     1       2.435  -6.035  -7.696  0.00  0.00    +0.026 A 
ATOM      9  C   UNL     1       2.489  -5.512  -6.371  0.00  0.00    +0.043 A 
ATOM     10  N   UNL     1       3.507  -5.140  -5.654  0.00  0.00    -0.375 N 
ATOM     11  C   UNL     1       3.022  -4.737  -4.333  0.00  0.00    +0.131 C 
ATOM     12  C   UNL     1       3.365  -3.275  -4.027  0.00  0.00    +0.134 C 
ATOM     13  N   UNL     1       2.478  -2.839  -2.926  0.00  0.00    -0.276 N 
ATOM     14  C   UNL     1       3.238  -2.393  -1.910  0.00  0.00    +0.248 C 
ATOM     15  O   UNL     1       2.810  -1.888  -0.890  0.00  0.00    -0.270 OA
ATOM     16  C   UNL     1       4.655  -2.606  -2.209  0.00  0.00    +0.042 A 
ATOM     17  C   UNL     1       4.768  -3.149  -3.527  0.00  0.00    -0.013 A 
ATOM     18  C   UNL     1       5.979  -3.458  -4.106  0.00  0.00    +0.006 A 
ATOM     19  C   UNL     1       7.122  -3.206  -3.352  0.00  0.00    +0.000 A 
ATOM     20  C   UNL     1       7.052  -2.672  -2.081  0.00  0.00    +0.001 A 
ATOM     21  C   UNL     1       5.797  -2.354  -1.444  0.00  0.00    +0.013 A 
ATOM     22  H   UNL     1       4.433  -5.131  -5.945  0.00  0.00    +0.160 HD
ENDROOT
BRANCH   1  24
ATOM     23  N   UNL     1       0.915  -3.132  -0.498  0.00  0.00    -0.302 N 
ATOM     24  C   UNL     1       0.456  -2.525  -1.610  0.00  0.00    +0.235 C 
ATOM     25  O   UNL     1      -0.404  -1.673  -1.525  0.00  0.00    -0.274 OA
ATOM     26  H   UNL     1       1.603  -3.812  -0.565  0.00  0.00    +0.150 HD
BRANCH  23  27
ATOM     27  C   UNL     1       0.376  -2.763   0.814  0.00  0.00    +0.159 C 
BRANCH  27  28
ATOM     28  C   UNL     1       1.395  -3.071   1.881  0.00  0.00    +0.233 C 
ATOM     29  O   UNL     1       2.466  -3.552   1.575  0.00  0.00    -0.274 OA
ATOM     30  N   UNL     1       1.116  -2.813   3.174  0.00  0.00    -0.312 N 
ATOM     31  H   UNL     1       0.259  -2.429   3.417  0.00  0.00    +0.149 HD
BRANCH  30  32
ATOM     32  C   UNL     1       2.106  -3.113   4.211  0.00  0.00    +0.132 C 
BRANCH  32  33
ATOM     33  C   UNL     1       1.543  -2.728   5.580  0.00  0.00    +0.178 C 
BRANCH  33  34
ATOM     34  O   UNL     1       0.417  -3.555   5.882  0.00  0.00    -0.381 OA
ATOM     35  C   UNL     1      -0.187  -3.276   7.147  0.00  0.00    +0.194 C 
ENDBRANCH  33  34
ENDBRANCH  32  33
ENDBRANCH  30  32
ENDBRANCH  27  28
BRANCH  27  36
ATOM     36  C   UNL     1      -0.902  -3.561   1.083  0.00  0.00    +0.034 C 
BRANCH  36  38
ATOM     37  C   UNL     1      -3.212  -4.040   0.262  0.00  0.00    +0.007 C 
ATOM     38  C   UNL     1      -1.978  -3.155   0.074  0.00  0.00    -0.015 C 
ATOM     39  C   UNL     1      -2.361  -1.691   0.297  0.00  0.00    +0.007 C 
ENDBRANCH  36  38
ENDBRANCH  27  36
ENDBRANCH  23  27
ENDBRANCH   1  24
TORSDOF 8
