REMARK  Name = ZINC37152661
REMARK  5 active torsions:
REMARK  status: ('A' for Active; 'I' for Inactive)
REMARK    1  A    between atoms: C_3  and  O_19
REMARK    2  A    between atoms: C_4  and  C_8
REMARK    3  A    between atoms: C_8  and  N_9
REMARK    4  A    between atoms: N_9  and  C_10
REMARK    5  A    between atoms: C_13  and  C_16
REMARK                            x       y       z     vdW  Elec       q    Type
REMARK                         _______ _______ _______ _____ _____    ______ ____
ROOT
ATOM      1  N   UNL     1       4.269  -0.753   1.321  0.00  0.00    +0.384 N 
ATOM      2  H   UNL     1       4.417   0.190   1.650  0.00  0.00    -0.085 HD
ATOM      3  H   UNL     1       3.625  -1.227   1.936  0.00  0.00    -0.085 HD
ENDROOT
BRANCH   1   4
ATOM      4  C   UNL     1       5.550  -1.472   1.304  0.00  0.00    -0.071 C 
ATOM      5  C   UNL     1       6.565  -0.687   0.471  0.00  0.00    -0.015 C 
ATOM      6  C   UNL     1       7.899  -1.437   0.454  0.00  0.00    +0.011 C 
ATOM      7  C   UNL     1       8.419  -1.585   1.885  0.00  0.00    +0.075 C 
ATOM      8  C   UNL     1       7.404  -2.369   2.718  0.00  0.00    +0.011 C 
ATOM      9  C   UNL     1       6.070  -1.620   2.735  0.00  0.00    -0.015 C 
BRANCH   7  10
ATOM     10  C   UNL     1       8.618  -0.219   2.491  0.00  0.00    +0.214 C 
ATOM     11  O   UNL     1       8.368   0.774   1.842  0.00  0.00    -0.276 OA
ATOM     12  N   UNL     1       9.073  -0.102   3.754  0.00  0.00    -0.329 N 
ATOM     13  H   UNL     1       9.273  -0.897   4.273  0.00  0.00    +0.145 HD
ATOM     14  H   UNL     1       9.201   0.777   4.144  0.00  0.00    +0.145 HD
ENDBRANCH   7  10
ENDBRANCH   1   4
BRANCH   1  15
ATOM     15  C   UNL     1       3.711  -0.715  -0.038  0.00  0.00    -0.043 C 
BRANCH  15  19
ATOM     16  C   UNL     1      -0.017   1.379   0.010  0.00  0.00    +0.023 A 
ATOM     17  C   UNL     1       1.170   2.087   0.002  0.00  0.00    +0.047 A 
ATOM     18  C   UNL     1       2.380   1.410  -0.013  0.00  0.00    +0.118 A 
ATOM     19  C   UNL     1       2.397   0.023  -0.021  0.00  0.00    -0.022 A 
ATOM     20  C   UNL     1       1.209  -0.681  -0.013  0.00  0.00    +0.025 A 
ATOM     21  C   UNL     1       0.002  -0.004   0.002  0.00  0.00    +0.041 A 
ATOM     22 CL   UNL     1      -1.490  -0.891   0.011  0.00  0.00    -0.084 Cl
BRANCH  18  23
ATOM     23  O   UNL     1       3.549   2.105  -0.021  0.00  0.00    -0.507 OA
ATOM     24  H   UNL     1       3.895   2.301   0.860  0.00  0.00    +0.292 HD
ENDBRANCH  18  23
ENDBRANCH  15  19
ENDBRANCH   1  15
TORSDOF 5
