REMARK  Name = ZINC01960008
REMARK  7 active torsions:
REMARK  status: ('A' for Active; 'I' for Inactive)
REMARK    1  A    between atoms: C_3  and  O_24
REMARK    2  A    between atoms: C_6  and  C_7
REMARK    3  A    between atoms: N_8  and  N_9
REMARK    4  A    between atoms: C_10  and  C_12
REMARK    5  A    between atoms: C_12  and  C_13
REMARK    6  A    between atoms: C_13  and  C_14
REMARK    7  A    between atoms: N_16  and  C_17
REMARK                            x       y       z     vdW  Elec       q    Type
REMARK                         _______ _______ _______ _____ _____    ______ ____
ROOT
ATOM      1  N   UNL     1      -2.445  -2.778   0.002  0.00  0.00    -0.207 N 
ATOM      2  C   UNL     1      -2.425  -4.125  -0.007  0.00  0.00    +0.233 C 
ATOM      3  O   UNL     1      -1.365  -4.716  -0.030  0.00  0.00    -0.274 OA
ATOM      4  H   UNL     1      -3.292  -2.305   0.019  0.00  0.00    +0.177 HD
ENDROOT
BRANCH   1   6
ATOM      5  C   UNL     1      -1.262  -0.761  -0.005  0.00  0.00    +0.138 C 
ATOM      6  N   UNL     1      -1.243  -2.059  -0.014  0.00  0.00    -0.188 NA
BRANCH   5  12
ATOM      7  C   UNL     1      -0.016   1.393  -0.013  0.00  0.00    +0.013 A 
ATOM      8  C   UNL     1       1.169   2.096  -0.028  0.00  0.00    +0.046 A 
ATOM      9  C   UNL     1       2.381   1.418  -0.054  0.00  0.00    +0.117 A 
ATOM     10  C   UNL     1       2.404   0.029  -0.063  0.00  0.00    +0.046 A 
ATOM     11  C   UNL     1       1.224  -0.682  -0.048  0.00  0.00    +0.013 A 
ATOM     12  C   UNL     1       0.003  -0.004  -0.022  0.00  0.00    -0.005 A 
BRANCH   9  13
ATOM     13  O   UNL     1       3.547   2.115  -0.070  0.00  0.00    -0.507 OA
ATOM     14  H   UNL     1       3.900   2.311   0.809  0.00  0.00    +0.292 HD
ENDBRANCH   9  13
ENDBRANCH   5  12
ENDBRANCH   1   6
BRANCH   2  15
ATOM     15  C   UNL     1      -3.718  -4.899   0.010  0.00  0.00    +0.107 C 
BRANCH  15  16
ATOM     16  C   UNL     1      -3.416  -6.398  -0.005  0.00  0.00    +0.105 C 
BRANCH  16  17
ATOM     17  C   UNL     1      -4.709  -7.172   0.012  0.00  0.00    +0.218 C 
ATOM     18  O   UNL     1      -5.768  -6.581   0.034  0.00  0.00    -0.275 OA
ATOM     19  N   UNL     1      -4.689  -8.519   0.003  0.00  0.00    -0.285 N 
ATOM     20  H   UNL     1      -3.845  -8.991  -0.083  0.00  0.00    +0.155 HD
BRANCH  19  21
ATOM     21  C   UNL     1      -5.884  -9.238   0.117  0.00  0.00    +0.033 A 
ATOM     22  C   UNL     1      -5.910 -10.440   0.812  0.00  0.00    +0.024 A 
ATOM     23  C   UNL     1      -7.091 -11.147   0.923  0.00  0.00    +0.017 A 
ATOM     24  C   UNL     1      -8.248 -10.659   0.342  0.00  0.00    +0.018 A 
ATOM     25  C   UNL     1      -8.225  -9.461  -0.351  0.00  0.00    +0.017 A 
ATOM     26  C   UNL     1      -7.048  -8.748  -0.461  0.00  0.00    +0.024 A 
ATOM     27 BR   UNL     1      -9.863 -11.630   0.496  0.00  0.00    -0.050 Br
ENDBRANCH  19  21
ENDBRANCH  16  17
ENDBRANCH  15  16
ENDBRANCH   2  15
TORSDOF 7
