REMARK  Name = ZINC47157324
REMARK  8 active torsions:
REMARK  status: ('A' for Active; 'I' for Inactive)
REMARK    1  A    between atoms: C_1  and  N_2
REMARK    2  A    between atoms: N_2  and  S_3
REMARK    3  A    between atoms: S_3  and  C_6
REMARK    4  A    between atoms: C_16  and  C_18
REMARK    5  A    between atoms: C_21  and  S_24
REMARK    6  A    between atoms: S_24  and  N_27
REMARK    7  A    between atoms: N_27  and  C_28
REMARK    8  A    between atoms: C_28  and  C_29
REMARK                            x       y       z     vdW  Elec       q    Type
REMARK                         _______ _______ _______ _____ _____    ______ ____
ROOT
ATOM      1  C   UNL     1      -2.247  -0.499  -1.505  0.00  0.00    +0.106 A 
ATOM      2  C   UNL     1      -3.122   0.575  -1.593  0.00  0.00    +0.030 A 
ATOM      3  C   UNL     1      -3.776   0.871  -2.760  0.00  0.00    +0.031 A 
ATOM      4  C   UNL     1      -3.579   0.085  -3.919  0.00  0.00    +0.080 A 
ATOM      5  C   UNL     1      -2.681  -1.000  -3.792  0.00  0.00    +0.043 A 
ATOM      6  C   UNL     1      -2.026  -1.285  -2.620  0.00  0.00    +0.045 A 
ATOM      7  S   UNL     1      -2.713  -1.710  -5.420  0.00  0.00    -0.052 S 
ATOM      8  C   UNL     1      -3.876  -0.561  -6.143  0.00  0.00    +0.166 A 
ATOM      9  N   UNL     1      -4.141   0.240  -5.137  0.00  0.00    -0.225 NA
ATOM     10  N   UNL     1      -4.372  -0.525  -7.435  0.00  0.00    -0.261 N 
ATOM     11  C   UNL     1      -5.253   0.431  -7.793  0.00  0.00    +0.250 C 
ATOM     12  O   UNL     1      -5.611   1.262  -6.981  0.00  0.00    -0.270 OA
ATOM     13  H   UNL     1      -4.087  -1.188  -8.083  0.00  0.00    +0.157 HD
ENDROOT
BRANCH  11  14
ATOM     14  C   UNL     1      -5.782   0.469  -9.172  0.00  0.00    +0.037 A 
ATOM     15  C   UNL     1      -5.377  -0.487 -10.105  0.00  0.00    +0.015 A 
ATOM     16  C   UNL     1      -5.875  -0.446 -11.391  0.00  0.00    +0.029 A 
ATOM     17  C   UNL     1      -6.774   0.540 -11.756  0.00  0.00    +0.105 A 
ATOM     18  C   UNL     1      -7.180   1.491 -10.836  0.00  0.00    +0.029 A 
ATOM     19  C   UNL     1      -6.694   1.458  -9.546  0.00  0.00    +0.015 A 
BRANCH  17  20
ATOM     20  S   UNL     1      -7.405   0.586 -13.401  0.00  0.00    +0.059 S 
ATOM     21  O   UNL     1      -7.809   1.927 -13.643  0.00  0.00    -0.153 OA
ATOM     22  O   UNL     1      -6.455  -0.083 -14.219  0.00  0.00    -0.153 OA
BRANCH  20  23
ATOM     23  N   UNL     1      -8.781  -0.334 -13.423  0.00  0.00    -0.186 NA
ATOM     24  H   UNL     1      -8.812  -1.148 -13.951  0.00  0.00    +0.148 HD
BRANCH  23  25
ATOM     25  C   UNL     1      -9.952   0.079 -12.646  0.00  0.00    +0.132 C 
BRANCH  25  26
ATOM     26  C   UNL     1     -11.161  -0.692 -13.109  0.00  0.00    -0.018 C 
ATOM     27  C   UNL     1     -11.871  -1.376 -12.248  0.00  0.00    +0.005 C 
ENDBRANCH  25  26
ENDBRANCH  23  25
ENDBRANCH  20  23
ENDBRANCH  17  20
ENDBRANCH  11  14
BRANCH   1  28
ATOM     28  S   UNL     1      -1.421  -0.852   0.011  0.00  0.00    +0.058 S 
ATOM     29  O   UNL     1      -1.073  -2.229  -0.027  0.00  0.00    -0.153 OA
ATOM     30  O   UNL     1      -2.218  -0.295   1.047  0.00  0.00    -0.153 OA
BRANCH  28  32
ATOM     31  C   UNL     1      -0.018   1.461   0.010  0.00  0.00    +0.127 C 
ATOM     32  N   UNL     1       0.002  -0.004   0.002  0.00  0.00    -0.193 NA
ATOM     33  H   UNL     1       0.849  -0.478  -0.009  0.00  0.00    +0.148 HD
ENDBRANCH  28  32
ENDBRANCH   1  28
TORSDOF 7
