REMARK  Name = ZINC60387618
REMARK  9 active torsions:
REMARK  status: ('A' for Active; 'I' for Inactive)
REMARK    1  A    between atoms: C_1  and  C_2
REMARK    2  A    between atoms: C_5  and  C_31
REMARK    3  A    between atoms: C_6  and  O_9
REMARK    4  A    between atoms: C_7  and  C_8
REMARK    5  A    between atoms: O_9  and  C_10
REMARK    6  A    between atoms: C_10  and  C_12
REMARK    7  A    between atoms: C_12  and  N_13
REMARK    8  A    between atoms: C_16  and  C_20
REMARK    9  A    between atoms: C_16  and  C_21
REMARK                            x       y       z     vdW  Elec       q    Type
REMARK                         _______ _______ _______ _____ _____    ______ ____
ROOT
ATOM      1  N   UNL     1       2.712  -4.044   4.569  0.00  0.00    -0.213 N 
ATOM      2  C   UNL     1       3.449  -5.109   4.193  0.00  0.00    +0.251 C 
ATOM      3  O   UNL     1       3.090  -6.042   3.509  0.00  0.00    -0.272 OA
ATOM      4  C   UNL     1       4.819  -4.895   4.804  0.00  0.00    +0.135 C 
ATOM      5  N   UNL     1       4.684  -3.615   5.520  0.00  0.00    -0.281 N 
ATOM      6  C   UNL     1       3.422  -3.194   5.320  0.00  0.00    +0.310 C 
ATOM      7  O   UNL     1       2.975  -2.159   5.774  0.00  0.00    -0.252 OA
ATOM      8  C   UNL     1       5.156  -6.024   5.779  0.00  0.00    +0.047 C 
ATOM      9  H   UNL     1       5.371  -3.162   6.033  0.00  0.00    +0.152 HD
ENDROOT
BRANCH   4  10
ATOM     10  C   UNL     1       5.869  -4.791   3.727  0.00  0.00    -0.015 A 
ATOM     11  C   UNL     1       5.688  -5.471   2.524  0.00  0.00    +0.007 A 
ATOM     12  C   UNL     1       6.616  -5.399   1.532  0.00  0.00    +0.009 A 
ATOM     13  C   UNL     1       7.776  -4.629   1.719  0.00  0.00    -0.018 A 
ATOM     14  C   UNL     1       8.757  -4.530   0.717  0.00  0.00    +0.008 A 
ATOM     15  C   UNL     1       9.867  -3.774   0.934  0.00  0.00    +0.001 A 
ATOM     16  C   UNL     1      10.049  -3.094   2.137  0.00  0.00    +0.001 A 
ATOM     17  C   UNL     1       9.120  -3.166   3.130  0.00  0.00    +0.008 A 
ATOM     18  C   UNL     1       7.960  -3.937   2.942  0.00  0.00    -0.018 A 
ATOM     19  C   UNL     1       6.977  -4.031   3.942  0.00  0.00    +0.014 A 
ENDBRANCH   4  10
BRANCH   1  20
ATOM     20  C   UNL     1       1.310  -3.840   4.196  0.00  0.00    +0.238 C 
BRANCH  20  21
ATOM     21  C   UNL     1       1.242  -3.079   2.897  0.00  0.00    +0.330 C 
ATOM     22  O   UNL     1       2.260  -2.741   2.340  0.00  0.00    -0.249 OA
BRANCH  21  23
ATOM     23  O   UNL     1       0.050  -2.776   2.359  0.00  0.00    -0.424 OA
BRANCH  23  29
ATOM     24  C   UNL     1      -0.018   1.503   0.010  0.00  0.00    +0.044 C 
ATOM     25  C   UNL     1       0.002  -0.004   0.002  0.00  0.00    -0.044 A 
ATOM     26  C   UNL     1       0.006  -0.688  -1.200  0.00  0.00    +0.004 A 
ATOM     27  C   UNL     1       0.024  -2.071  -1.211  0.00  0.00    +0.007 A 
ATOM     28  C   UNL     1       0.039  -2.772  -0.020  0.00  0.00    -0.008 A 
ATOM     29  C   UNL     1       0.035  -2.088   1.186  0.00  0.00    +0.138 A 
ATOM     30  C   UNL     1       0.023  -0.700   1.195  0.00  0.00    -0.005 A 
ATOM     31  C   UNL     1       0.025   0.046   2.504  0.00  0.00    +0.048 C 
ATOM     32  C   UNL     1       0.059  -4.279  -0.033  0.00  0.00    +0.047 C 
ENDBRANCH  23  29
ENDBRANCH  21  23
ENDBRANCH  20  21
ENDBRANCH   1  20
TORSDOF 5
