REMARK  Name = ZINC04222366
REMARK  14 active torsions:
REMARK  status: ('A' for Active; 'I' for Inactive)
REMARK    1  A    between atoms: C_1  and  C_2
REMARK    2  A    between atoms: C_2  and  C_4
REMARK    3  A    between atoms: C_2  and  N_10
REMARK    4  A    between atoms: C_11  and  C_13
REMARK    5  A    between atoms: C_13  and  C_14
REMARK    6  A    between atoms: C_22  and  C_24
REMARK    7  A    between atoms: C_24  and  C_25
REMARK    8  A    between atoms: C_24  and  C_26
REMARK    9  A    between atoms: C_24  and  C_27
REMARK   10  A    between atoms: C_31  and  C_41
REMARK   11  A    between atoms: C_34  and  O_40
REMARK   12  A    between atoms: C_36  and  C_37
REMARK   13  A    between atoms: C_36  and  C_38
REMARK   14  A    between atoms: C_38  and  O_39
REMARK                            x       y       z     vdW  Elec       q    Type
REMARK                         _______ _______ _______ _____ _____    ______ ____
ROOT
ATOM      1  C   UNL     1      -1.318   1.419  -1.197  0.00  0.00    +0.054 C 
ATOM      2  C   UNL     1      -2.650   0.728  -1.441  0.00  0.00    +0.058 A 
ATOM      3  C   UNL     1      -3.001   0.349  -2.697  0.00  0.00    +0.015 A 
ATOM      4  S   UNL     1      -4.596  -0.385  -2.451  0.00  0.00    -0.057 S 
ATOM      5  C   UNL     1      -4.679  -0.141  -0.732  0.00  0.00    +0.165 A 
ATOM      6  N   UNL     1      -3.533   0.457  -0.482  0.00  0.00    -0.229 NA
ATOM      7  N   UNL     1      -5.694  -0.488   0.152  0.00  0.00    -0.264 N 
ATOM      8  C   UNL     1      -6.804  -1.102  -0.304  0.00  0.00    +0.224 C 
ATOM      9  O   UNL     1      -6.916  -1.353  -1.485  0.00  0.00    -0.275 OA
ATOM     10  C   UNL     1      -2.219   0.519  -3.951  0.00  0.00    +0.049 C 
ATOM     11  C   UNL     1      -1.077   1.524  -3.697  0.00  0.00    +0.011 C 
ATOM     12  C   UNL     1      -0.380   1.161  -2.384  0.00  0.00    -0.019 C 
ATOM     13  C   UNL     1       0.861   2.039  -2.188  0.00  0.00    +0.010 C 
ATOM     14  C   UNL     1       1.823   1.872  -3.362  0.00  0.00    +0.032 C 
ATOM     15  C   UNL     1       1.111   2.306  -4.647  0.00  0.00    +0.123 C 
ATOM     16  C   UNL     1      -0.098   1.401  -4.868  0.00  0.00    +0.021 C 
ATOM     17  C   UNL     1      -0.803   1.806  -6.164  0.00  0.00    +0.016 C 
ATOM     18  C   UNL     1       0.023  -0.314  -2.408  0.00  0.00    +0.012 C 
ATOM     19  H   UNL     1      -5.604  -0.287   1.097  0.00  0.00    +0.157 HD
ENDROOT
BRANCH   8  20
ATOM     20  C   UNL     1      -7.905  -1.478   0.654  0.00  0.00    +0.039 C 
ATOM     21  C   UNL     1      -9.040  -2.157  -0.114  0.00  0.00    +0.020 C 
ATOM     22  C   UNL     1      -7.356  -2.441   1.710  0.00  0.00    +0.020 C 
ATOM     23  C   UNL     1      -8.436  -0.218   1.341  0.00  0.00    +0.020 C 
ENDBRANCH   8  20
BRANCH  15  24
ATOM     24  O   UNL     1       2.007   2.188  -5.754  0.00  0.00    -0.391 OA
ATOM     25  H   UNL     1       2.805   2.729  -5.674  0.00  0.00    +0.210 HD
ENDBRANCH  15  24
BRANCH   1  26
ATOM     26  C   UNL     1      -0.684   0.868   0.081  0.00  0.00    +0.106 C 
BRANCH  26  28
ATOM     27  N   UNL     1      -1.137   0.915   2.513  0.00  0.00    -0.309 N 
ATOM     28  C   UNL     1      -1.507   1.289   1.272  0.00  0.00    +0.214 C 
ATOM     29  O   UNL     1      -2.502   1.963   1.113  0.00  0.00    -0.276 OA
ATOM     30  H   UNL     1      -0.342   0.376   2.640  0.00  0.00    +0.149 HD
BRANCH  27  32
ATOM     31  C   UNL     1      -1.506   2.721   4.120  0.00  0.00    +0.033 C 
ATOM     32  C   UNL     1      -1.937   1.325   3.670  0.00  0.00    +0.100 C 
BRANCH  32  33
ATOM     33  C   UNL     1      -1.728   0.346   4.797  0.00  0.00    -0.027 A 
ATOM     34  C   UNL     1      -0.468  -0.166   5.042  0.00  0.00    +0.005 A 
ATOM     35  C   UNL     1      -0.274  -1.059   6.079  0.00  0.00    +0.000 A 
ATOM     36  C   UNL     1      -1.343  -1.449   6.864  0.00  0.00    +0.000 A 
ATOM     37  C   UNL     1      -2.605  -0.941   6.615  0.00  0.00    +0.000 A 
ATOM     38  C   UNL     1      -2.797  -0.043   5.582  0.00  0.00    +0.005 A 
ENDBRANCH  32  33
ENDBRANCH  27  32
ENDBRANCH  26  28
ENDBRANCH   1  26
BRANCH  16  39
ATOM     39  C   UNL     1       0.372  -0.051  -4.985  0.00  0.00    +0.165 C 
BRANCH  39  40
ATOM     40  O   UNL     1       1.156  -0.204  -6.170  0.00  0.00    -0.394 OA
ATOM     41  H   UNL     1       1.488  -1.101  -6.309  0.00  0.00    +0.209 HD
ENDBRANCH  39  40
ENDBRANCH  16  39
TORSDOF 8
