REMARK  Name = ZINC42560435
REMARK  8 active torsions:
REMARK  status: ('A' for Active; 'I' for Inactive)
REMARK    1  A    between atoms: C_1  and  C_2
REMARK    2  A    between atoms: C_2  and  C_4
REMARK    3  A    between atoms: C_2  and  N_8
REMARK    4  A    between atoms: N_6  and  C_7
REMARK    5  A    between atoms: N_8  and  S_9
REMARK    6  A    between atoms: S_9  and  C_12
REMARK    7  A    between atoms: C_15  and  O_19
REMARK    8  A    between atoms: C_16  and  N_18
REMARK                            x       y       z     vdW  Elec       q    Type
REMARK                         _______ _______ _______ _____ _____    ______ ____
ROOT
ATOM      1  S   UNL     1       2.322  -0.861   1.097  0.00  0.00    +0.059 S 
ATOM      2  O   UNL     1       2.719  -1.271   2.398  0.00  0.00    -0.153 OA
ATOM      3  O   UNL     1       2.483  -1.690  -0.045  0.00  0.00    -0.153 OA
ENDROOT
BRANCH   1   4
ATOM      4  C   UNL     1       3.183   0.638   0.757  0.00  0.00    +0.107 A 
ATOM      5  C   UNL     1       3.402   1.025  -0.552  0.00  0.00    +0.032 A 
ATOM      6  C   UNL     1       4.077   2.201  -0.826  0.00  0.00    +0.049 A 
ATOM      7  C   UNL     1       4.537   2.994   0.213  0.00  0.00    +0.137 A 
ATOM      8  C   UNL     1       4.317   2.604   1.532  0.00  0.00    +0.068 A 
ATOM      9  C   UNL     1       3.634   1.426   1.799  0.00  0.00    +0.055 A 
BRANCH   8  10
ATOM     10  N   UNL     1       4.779   3.401   2.586  0.00  0.00    -0.355 N 
ATOM     11  H   UNL     1       5.254   4.226   2.398  0.00  0.00    +0.142 HD
ATOM     12  H   UNL     1       4.625   3.128   3.504  0.00  0.00    +0.142 HD
ENDBRANCH   8  10
BRANCH   7  13
ATOM     13  O   UNL     1       5.202   4.150  -0.055  0.00  0.00    -0.505 OA
ATOM     14  H   UNL     1       4.628   4.925  -0.130  0.00  0.00    +0.292 HD
ENDBRANCH   7  13
ENDBRANCH   1   4
BRANCH   1  15
ATOM     15  N   UNL     1       0.711  -0.489   1.189  0.00  0.00    -0.178 NA
ATOM     16  H   UNL     1       0.236  -0.593   2.029  0.00  0.00    +0.149 HD
BRANCH  15  18
ATOM     17  C   UNL     1      -0.019   1.526   0.010  0.00  0.00    +0.035 C 
ATOM     18  C   UNL     1       0.002  -0.004   0.002  0.00  0.00    +0.159 C 
BRANCH  18  19
ATOM     19  C   UNL     1      -1.412  -0.526   0.013  0.00  0.00    +0.231 C 
ATOM     20  O   UNL     1      -1.790  -1.233   0.922  0.00  0.00    -0.274 OA
ATOM     21  N   UNL     1      -2.256  -0.206  -0.988  0.00  0.00    -0.317 N 
ATOM     22  C   UNL     1      -3.630  -0.713  -0.978  0.00  0.00    +0.128 C 
ATOM     23  H   UNL     1      -1.953   0.360  -1.716  0.00  0.00    +0.148 HD
ENDBRANCH  18  19
ENDBRANCH  15  18
ENDBRANCH   1  15
TORSDOF 6
