REMARK  Name = ZINC35746137
REMARK  11 active torsions:
REMARK  status: ('A' for Active; 'I' for Inactive)
REMARK    1  A    between atoms: C_1  and  O_2
REMARK    2  A    between atoms: O_2  and  C_3
REMARK    3  A    between atoms: C_6  and  C_9
REMARK    4  A    between atoms: C_18  and  C_20
REMARK    5  A    between atoms: C_20  and  N_21
REMARK    6  A    between atoms: N_21  and  C_22
REMARK    7  A    between atoms: N_21  and  C_33
REMARK    8  A    between atoms: C_22  and  C_23
REMARK    9  A    between atoms: C_23  and  C_25
REMARK   10  A    between atoms: C_23  and  O_32
REMARK   11  A    between atoms: C_25  and  C_26
REMARK                            x       y       z     vdW  Elec       q    Type
REMARK                         _______ _______ _______ _____ _____    ______ ____
ROOT
ATOM      1  C   UNL     1       3.088  -2.075  -4.839  0.00  0.00    +0.004 A 
ATOM      2  C   UNL     1       2.758  -1.792  -6.122  0.00  0.00    +0.056 A 
ATOM      3  S   UNL     1       3.611  -3.050  -7.054  0.00  0.00    -0.076 S 
ATOM      4  C   UNL     1       4.383  -3.917  -5.712  0.00  0.00    +0.116 A 
ATOM      5  C   UNL     1       3.966  -3.208  -4.574  0.00  0.00    +0.080 A 
ATOM      6  C   UNL     1       4.458  -3.699  -3.323  0.00  0.00    +0.260 A 
ATOM      7  O   UNL     1       4.147  -3.153  -2.278  0.00  0.00    -0.267 OA
ATOM      8  N   UNL     1       5.267  -4.774  -3.317  0.00  0.00    -0.312 N 
ATOM      9  H   UNL     1       5.603  -5.112  -2.472  0.00  0.00    +0.170 HD
ATOM     10  C   UNL     1       5.623  -5.396  -4.470  0.00  0.00    +0.094 A 
ATOM     11  N   UNL     1       5.183  -4.977  -5.627  0.00  0.00    -0.229 NA
ENDROOT
BRANCH   1  15
ATOM     12  C   UNL     1       1.601   0.309  -1.646  0.00  0.00    +0.120 A 
ATOM     13  C   UNL     1       2.196   0.915  -2.744  0.00  0.00    +0.046 A 
ATOM     14  C   UNL     1       2.679   0.145  -3.781  0.00  0.00    +0.012 A 
ATOM     15  C   UNL     1       2.570  -1.244  -3.726  0.00  0.00    -0.016 A 
ATOM     16  C   UNL     1       1.972  -1.849  -2.622  0.00  0.00    +0.012 A 
ATOM     17  C   UNL     1       1.496  -1.073  -1.586  0.00  0.00    +0.046 A 
BRANCH  12  19
ATOM     18  C   UNL     1       1.267   2.488  -0.754  0.00  0.00    +0.277 C 
ATOM     19  O   UNL     1       1.126   1.071  -0.626  0.00  0.00    -0.495 OA
ENDBRANCH  12  19
ENDBRANCH   1  15
BRANCH  10  20
ATOM     20  C   UNL     1       6.532  -6.597  -4.415  0.00  0.00    -0.003 C 
BRANCH  20  21
ATOM     21  N   UNL     1       6.772  -7.092  -5.777  0.00  0.00    +0.388 N 
ATOM     22  H   UNL     1       5.889  -7.277  -6.229  0.00  0.00    -0.081 HD
BRANCH  21  23
ATOM     23  C   UNL     1       7.512  -6.080  -6.543  0.00  0.00    -0.068 C 
ATOM     24  C   UNL     1       6.822  -5.479  -7.769  0.00  0.00    -0.017 C 
ATOM     25  C   UNL     1       7.981  -6.461  -7.948  0.00  0.00    -0.017 C 
ENDBRANCH  21  23
BRANCH  21  26
ATOM     26  C   UNL     1       7.559  -8.331  -5.715  0.00  0.00    -0.046 C 
BRANCH  26  27
ATOM     27  C   UNL     1       6.739  -9.422  -5.023  0.00  0.00    +0.102 C 
BRANCH  27  28
ATOM     28  O   UNL     1       5.537  -9.655  -5.760  0.00  0.00    -0.393 OA
ATOM     29  H   UNL     1       5.684  -9.944  -6.671  0.00  0.00    +0.210 HD
ENDBRANCH  27  28
BRANCH  27  30
ATOM     30  C   UNL     1       7.558 -10.713  -4.961  0.00  0.00    +0.064 C 
BRANCH  30  31
ATOM     31  C   UNL     1       6.801 -11.750  -4.171  0.00  0.00    -0.045 A 
ATOM     32  C   UNL     1       6.976 -11.840  -2.803  0.00  0.00    +0.004 A 
ATOM     33  C   UNL     1       6.282 -12.792  -2.079  0.00  0.00    +0.000 A 
ATOM     34  C   UNL     1       5.413 -13.652  -2.723  0.00  0.00    +0.000 A 
ATOM     35  C   UNL     1       5.238 -13.562  -4.091  0.00  0.00    +0.000 A 
ATOM     36  C   UNL     1       5.929 -12.607  -4.815  0.00  0.00    +0.004 A 
ENDBRANCH  30  31
ENDBRANCH  27  30
ENDBRANCH  26  27
ENDBRANCH  21  26
ENDBRANCH  20  21
ENDBRANCH  10  20
TORSDOF 10
