REMARK  Name = ZINC12218408
REMARK  7 active torsions:
REMARK  status: ('A' for Active; 'I' for Inactive)
REMARK    1  A    between atoms: C_1  and  O_2
REMARK    2  A    between atoms: O_2  and  C_3
REMARK    3  A    between atoms: C_3  and  C_4
REMARK    4  A    between atoms: C_7  and  C_9
REMARK    5  A    between atoms: C_9  and  N_57
REMARK    6  A    between atoms: C_13  and  C_16
REMARK    7  A    between atoms: C_17  and  C_22
REMARK                            x       y       z     vdW  Elec       q    Type
REMARK                         _______ _______ _______ _____ _____    ______ ____
ROOT
ATOM      1  C   UNL     1      -2.418   2.396  -4.839  0.00  0.00    -0.078 C 
ATOM      2  C   UNL     1      -1.526   2.930  -3.716  0.00  0.00    -0.018 C 
ATOM      3  C   UNL     1      -2.158   2.587  -2.363  0.00  0.00    +0.006 C 
ATOM      4  C   UNL     1      -2.342   1.071  -2.265  0.00  0.00    +0.021 C 
ATOM      5  C   UNL     1      -3.211   0.591  -3.430  0.00  0.00    -0.069 C 
ATOM      6  N   UNL     1      -2.536   0.929  -4.702  0.00  0.00    +0.385 N 
ATOM      7  H   UNL     1      -1.595   0.518  -4.699  0.00  0.00    -0.081 HD
ENDROOT
BRANCH   4   8
ATOM      8  C   UNL     1      -3.017   0.730  -0.961  0.00  0.00    +0.045 A 
ATOM      9  C   UNL     1      -2.511  -0.068   0.025  0.00  0.00    +0.023 A 
ATOM     10  C   UNL     1      -3.462  -0.113   1.065  0.00  0.00    +0.143 A 
ATOM     11  N   UNL     1      -4.485   0.617   0.710  0.00  0.00    -0.181 NA
ATOM     12  N   UNL     1      -4.232   1.153  -0.559  0.00  0.00    -0.281 N 
ATOM     13  H   UNL     1      -4.847   1.748  -1.077  0.00  0.00    +0.189 HD
BRANCH   9  14
ATOM     14  C   UNL     1      -1.197  -0.755   0.009  0.00  0.00    -0.007 A 
ATOM     15  C   UNL     1      -1.131  -2.136   0.001  0.00  0.00    +0.009 A 
ATOM     16  C   UNL     1       0.097  -2.788  -0.015  0.00  0.00    +0.001 A 
ATOM     17  C   UNL     1       1.265  -2.089  -0.021  0.00  0.00    +0.008 A 
ATOM     18  C   UNL     1       1.245  -0.684  -0.013  0.00  0.00    -0.017 A 
ATOM     19  C   UNL     1       0.002  -0.004   0.002  0.00  0.00    -0.010 A 
ATOM     20  C   UNL     1      -0.017   1.398   0.010  0.00  0.00    +0.009 A 
ATOM     21  C   UNL     1       1.157   2.089   0.002  0.00  0.00    +0.001 A 
ATOM     22  C   UNL     1       2.380   1.422  -0.012  0.00  0.00    +0.001 A 
ATOM     23  C   UNL     1       2.437   0.062  -0.020  0.00  0.00    +0.008 A 
ENDBRANCH   9  14
ENDBRANCH   4   8
BRANCH   6  24
ATOM     24  C   UNL     1      -3.298   0.375  -5.840  0.00  0.00    -0.003 C 
BRANCH  24  28
ATOM     25  C   UNL     1      -1.669   1.403  -8.942  0.00  0.00    +0.131 A 
ATOM     26  C   UNL     1      -1.062   0.216  -8.765  0.00  0.00    +0.047 A 
ATOM     27  C   UNL     1      -1.587  -0.339  -7.575  0.00  0.00    +0.043 A 
ATOM     28  C   UNL     1      -2.483   0.542  -7.096  0.00  0.00    +0.089 A 
ATOM     29  O   UNL     1      -2.533   1.593  -7.931  0.00  0.00    -0.464 OA
BRANCH  25  30
ATOM     30  C   UNL     1      -1.426   2.356 -10.084  0.00  0.00    +0.233 C 
BRANCH  30  32
ATOM     31  C   UNL     1      -2.175   2.903 -12.294  0.00  0.00    +0.194 C 
ATOM     32  O   UNL     1      -2.323   2.053 -11.155  0.00  0.00    -0.375 OA
ENDBRANCH  30  32
ENDBRANCH  25  30
ENDBRANCH  24  28
ENDBRANCH   6  24
TORSDOF 6
