REMARK  Name = ZINC38532064
REMARK  5 active torsions:
REMARK  status: ('A' for Active; 'I' for Inactive)
REMARK    1  A    between atoms: C_2  and  C_3
REMARK    2  A    between atoms: C_3  and  N_4
REMARK    3  A    between atoms: C_12  and  N_14
REMARK    4  A    between atoms: N_14  and  C_15
REMARK    5  A    between atoms: C_15  and  C_16
REMARK                            x       y       z     vdW  Elec       q    Type
REMARK                         _______ _______ _______ _____ _____    ______ ____
ROOT
ATOM      1  N   UNL     1       1.684  -3.845   0.114  0.00  0.00    +0.404 N 
ATOM      2  H   UNL     1       1.614  -3.400  -0.788  0.00  0.00    -0.080 HD
ATOM      3  H   UNL     1       2.652  -3.884   0.396  0.00  0.00    -0.080 HD
ENDROOT
BRANCH   1  12
ATOM      4  N   UNL     1       1.367  -1.676   1.111  0.00  0.00    -0.322 N 
ATOM      5  C   UNL     1       1.848  -1.401   2.399  0.00  0.00    +0.051 A 
ATOM      6  C   UNL     1       2.380  -0.233   2.934  0.00  0.00    +0.025 A 
ATOM      7  C   UNL     1       2.794  -0.199   4.251  0.00  0.00    +0.002 A 
ATOM      8  C   UNL     1       2.682  -1.327   5.043  0.00  0.00    +0.002 A 
ATOM      9  C   UNL     1       2.155  -2.492   4.521  0.00  0.00    +0.025 A 
ATOM     10  C   UNL     1       1.735  -2.536   3.197  0.00  0.00    +0.048 A 
ATOM     11  N   UNL     1       1.177  -3.585   2.453  0.00  0.00    -0.340 N 
ATOM     12  C   UNL     1       0.918  -3.073   1.102  0.00  0.00    +0.101 C 
ATOM     13  H   UNL     1       0.994  -4.482   2.773  0.00  0.00    +0.146 HD
BRANCH   4  14
ATOM     14  C   UNL     1       1.317  -0.740  -0.015  0.00  0.00    +0.131 C 
BRANCH  14  16
ATOM     15  C   UNL     1      -0.016   1.306   0.009  0.00  0.00    +0.005 C 
ATOM     16  C   UNL     1       0.002  -0.004   0.002  0.00  0.00    -0.016 C 
ENDBRANCH  14  16
ENDBRANCH   4  14
ENDBRANCH   1  12
BRANCH   1  17
ATOM     17  C   UNL     1       1.143  -5.208   0.032  0.00  0.00    -0.040 C 
BRANCH  17  18
ATOM     18  C   UNL     1       1.929  -6.000  -0.981  0.00  0.00    -0.039 A 
ATOM     19  C   UNL     1       3.232  -6.636  -0.769  0.00  0.00    +0.001 A 
ATOM     20  C   UNL     1       4.104  -6.723   0.317  0.00  0.00    +0.010 A 
ATOM     21  C   UNL     1       5.278  -7.410   0.191  0.00  0.00    +0.001 A 
ATOM     22  C   UNL     1       5.612  -8.021  -1.010  0.00  0.00    +0.002 A 
ATOM     23  C   UNL     1       4.765  -7.948  -2.095  0.00  0.00    +0.026 A 
ATOM     24  C   UNL     1       3.564  -7.255  -1.988  0.00  0.00    +0.047 A 
ATOM     25  N   UNL     1       2.533  -7.006  -2.865  0.00  0.00    -0.360 N 
ATOM     26  C   UNL     1       1.565  -6.263  -2.246  0.00  0.00    +0.085 A 
ATOM     27  H   UNL     1       2.495  -7.315  -3.784  0.00  0.00    +0.165 HD
ENDBRANCH  17  18
ENDBRANCH   1  17
TORSDOF 5
