REMARK  Name = ZINC37005379
REMARK  3 active torsions:
REMARK  status: ('A' for Active; 'I' for Inactive)
REMARK    1  A    between atoms: C_10  and  C_13
REMARK    2  A    between atoms: N_15  and  C_16
REMARK    3  A    between atoms: C_19  and  C_22
REMARK                            x       y       z     vdW  Elec       q    Type
REMARK                         _______ _______ _______ _____ _____    ______ ____
ROOT
ATOM      1  C   UNL     1       3.180  -3.119  -1.765  0.00  0.00    +0.199 C 
ATOM      2  O   UNL     1       4.128  -2.878  -1.048  0.00  0.00    -0.278 OA
ATOM      3  N   UNL     1       2.926  -4.388  -2.141  0.00  0.00    -0.314 N 
ATOM      4  H   UNL     1       2.167  -4.581  -2.714  0.00  0.00    +0.149 HD
ENDROOT
BRANCH   1  12
ATOM      5  C   UNL     1      -0.019   1.533   0.011  0.00  0.00    +0.000 C 
ATOM      6  C   UNL     1       1.393   2.111   0.000  0.00  0.00    -0.002 C 
ATOM      7  C   UNL     1       2.213   1.567  -1.182  0.00  0.00    -0.015 C 
ATOM      8  C   UNL     1       2.224   0.057  -1.066  0.00  0.00    -0.068 C 
ATOM      9  C   UNL     1       0.763  -0.438  -1.239  0.00  0.00    -0.026 C 
ATOM     10  C   UNL     1       0.002  -0.004   0.002  0.00  0.00    +0.002 C 
ATOM     11  C   UNL     1       0.999  -1.951  -1.368  0.00  0.00    -0.005 C 
ATOM     12  C   UNL     1       2.287  -2.000  -2.235  0.00  0.00    +0.017 C 
ATOM     13  N   UNL     1       2.961  -0.694  -2.076  0.00  0.00    +0.389 N 
ATOM     14  H   UNL     1       2.953  -0.192  -2.951  0.00  0.00    -0.084 HD
ATOM     15  H   UNL     1       3.910  -0.842  -1.770  0.00  0.00    -0.084 HD
ENDBRANCH   1  12
BRANCH   3  16
ATOM     16  C   UNL     1       3.794  -5.476  -1.684  0.00  0.00    +0.073 C 
ATOM     17  C   UNL     1       3.336  -5.948  -0.303  0.00  0.00    +0.023 C 
ATOM     18  C   UNL     1       4.243  -7.084   0.174  0.00  0.00    +0.014 C 
ATOM     19  C   UNL     1       4.165  -8.249  -0.815  0.00  0.00    +0.075 C 
ATOM     20  C   UNL     1       4.624  -7.776  -2.196  0.00  0.00    +0.014 C 
ATOM     21  C   UNL     1       3.717  -6.640  -2.673  0.00  0.00    +0.023 C 
BRANCH  19  22
ATOM     22  C   UNL     1       5.059  -9.368  -0.345  0.00  0.00    +0.214 C 
ATOM     23  O   UNL     1       5.695  -9.245   0.681  0.00  0.00    -0.276 OA
ATOM     24  N   UNL     1       5.151 -10.504  -1.063  0.00  0.00    -0.329 N 
ATOM     25  H   UNL     1       4.642 -10.601  -1.884  0.00  0.00    +0.145 HD
ATOM     26  H   UNL     1       5.726 -11.224  -0.761  0.00  0.00    +0.145 HD
ENDBRANCH  19  22
ENDBRANCH   3  16
TORSDOF 3
