REMARK  Name = ZINC39461106
REMARK  8 active torsions:
REMARK  status: ('A' for Active; 'I' for Inactive)
REMARK    1  A    between atoms: C_1  and  C_2
REMARK    2  A    between atoms: N_6  and  C_32
REMARK    3  A    between atoms: C_10  and  C_12
REMARK    4  A    between atoms: C_12  and  C_13
REMARK    5  A    between atoms: C_13  and  C_14
REMARK    6  A    between atoms: C_18  and  C_21
REMARK    7  A    between atoms: C_21  and  C_22
REMARK    8  A    between atoms: C_22  and  C_23
REMARK                            x       y       z     vdW  Elec       q    Type
REMARK                         _______ _______ _______ _____ _____    ______ ____
ROOT
ATOM      1  C   UNL     1       0.612  -2.483   5.735  0.00  0.00    +0.202 C 
ATOM      2  N   UNL     1      -0.326  -2.901   6.810  0.00  0.00    -0.227 NA
ATOM      3  N   UNL     1       0.487  -3.856   7.581  0.00  0.00    -0.227 NA
ATOM      4  C   UNL     1       1.291  -4.547   6.547  0.00  0.00    +0.202 C 
ATOM      5  O   UNL     1       1.348  -3.675   5.406  0.00  0.00    -0.342 OA
ATOM      6  H   UNL     1      -1.142  -3.351   6.423  0.00  0.00    +0.143 HD
ATOM      7  H   UNL     1      -0.098  -4.509   8.080  0.00  0.00    +0.143 HD
ENDROOT
BRANCH   1   8
ATOM      8  C   UNL     1      -0.164  -1.982   4.515  0.00  0.00    +0.058 C 
BRANCH   8   9
ATOM      9  C   UNL     1       0.819  -1.479   3.456  0.00  0.00    +0.100 C 
BRANCH   9  18
ATOM     10  C   UNL     1      -0.019   1.526   0.010  0.00  0.00    +0.038 C 
ATOM     11  C   UNL     1       0.002  -0.004   0.002  0.00  0.00    +0.159 C 
ATOM     12  C   UNL     1       0.711  -0.492  -1.232  0.00  0.00    +0.236 C 
ATOM     13  O   UNL     1       0.147  -0.392  -2.301  0.00  0.00    -0.274 OA
ATOM     14  N   UNL     1       1.932  -1.028  -1.205  0.00  0.00    -0.302 N 
ATOM     15  C   UNL     1       2.691  -1.294   0.009  0.00  0.00    +0.126 C 
ATOM     16  C   UNL     1       2.191  -0.423   1.163  0.00  0.00    +0.127 C 
ATOM     17  N   UNL     1       0.718  -0.493   1.190  0.00  0.00    -0.289 N 
ATOM     18  C   UNL     1       0.055  -0.986   2.255  0.00  0.00    +0.216 C 
ATOM     19  O   UNL     1      -1.157  -1.032   2.246  0.00  0.00    -0.276 OA
ATOM     20  C   UNL     1       2.552  -1.375  -2.486  0.00  0.00    +0.132 C 
ENDBRANCH   9  18
ENDBRANCH   8   9
ENDBRANCH   1   8
BRANCH   4  21
ATOM     21  C   UNL     1       2.702  -4.812   7.074  0.00  0.00    +0.054 C 
BRANCH  21  22
ATOM     22  C   UNL     1       3.484  -5.635   6.048  0.00  0.00    +0.041 C 
BRANCH  22  23
ATOM     23  C   UNL     1       4.874  -5.896   6.567  0.00  0.00    -0.022 A 
ATOM     24  C   UNL     1       5.281  -6.984   7.460  0.00  0.00    +0.003 A 
ATOM     25  C   UNL     1       4.605  -8.040   8.073  0.00  0.00    +0.010 A 
ATOM     26  C   UNL     1       5.290  -8.912   8.872  0.00  0.00    +0.001 A 
ATOM     27  C   UNL     1       6.653  -8.755   9.080  0.00  0.00    +0.002 A 
ATOM     28  C   UNL     1       7.340  -7.720   8.484  0.00  0.00    +0.026 A 
ATOM     29  C   UNL     1       6.663  -6.821   7.667  0.00  0.00    +0.047 A 
ATOM     30  N   UNL     1       7.054  -5.714   6.947  0.00  0.00    -0.360 N 
ATOM     31  C   UNL     1       5.976  -5.179   6.295  0.00  0.00    +0.087 A 
ATOM     32  H   UNL     1       7.958  -5.367   6.907  0.00  0.00    +0.165 HD
ENDBRANCH  22  23
ENDBRANCH  21  22
ENDBRANCH   4  21
TORSDOF 6
