REMARK  Name = ZINC36593624
REMARK  17 active torsions:
REMARK  status: ('A' for Active; 'I' for Inactive)
REMARK    1  A    between atoms: C_1  and  C_2
REMARK    2  A    between atoms: C_2  and  C_3
REMARK    3  A    between atoms: C_3  and  C_4
REMARK    4  A    between atoms: C_3  and  C_6
REMARK    5  A    between atoms: C_4  and  C_5
REMARK    6  A    between atoms: C_6  and  C_8
REMARK    7  A    between atoms: C_6  and  N_22
REMARK    8  A    between atoms: N_10  and  C_11
REMARK    9  A    between atoms: C_11  and  S_12
REMARK   10  A    between atoms: S_12  and  C_15
REMARK   11  A    between atoms: C_18  and  C_21
REMARK   12  A    between atoms: N_22  and  C_34
REMARK   13  A    between atoms: C_23  and  C_25
REMARK   14  A    between atoms: C_28  and  N_31
REMARK   15  A    between atoms: C_34  and  C_35
REMARK   16  A    between atoms: C_34  and  C_36
REMARK   17  A    between atoms: C_34  and  C_37
REMARK                            x       y       z     vdW  Elec       q    Type
REMARK                         _______ _______ _______ _____ _____    ______ ____
ROOT
ATOM      1  C   UNL     1      -2.761  -0.665  -2.924  0.00  0.00    +0.166 C 
ENDROOT
BRANCH   1   2
ATOM      2  C   UNL     1      -2.027  -0.948  -4.209  0.00  0.00    +0.235 C 
ATOM      3  O   UNL     1      -1.574  -0.033  -4.863  0.00  0.00    -0.274 OA
ATOM      4  N   UNL     1      -1.874  -2.219  -4.631  0.00  0.00    -0.295 N 
ATOM      5  H   UNL     1      -2.169  -2.954  -4.072  0.00  0.00    +0.150 HD
BRANCH   4   6
ATOM      6  C   UNL     1      -1.262  -2.489  -5.935  0.00  0.00    +0.278 C 
BRANCH   6   7
ATOM      7  S   UNL     1       0.491  -2.898  -5.706  0.00  0.00    +0.013 S 
ATOM      8  O   UNL     1       1.164  -2.882  -6.957  0.00  0.00    -0.168 OA
ATOM      9  O   UNL     1       1.017  -2.192  -4.591  0.00  0.00    -0.168 OA
BRANCH   7  10
ATOM     10  C   UNL     1       0.500  -4.589  -5.213  0.00  0.00    +0.090 A 
ATOM     11  C   UNL     1       0.537  -4.918  -3.870  0.00  0.00    +0.027 A 
ATOM     12  C   UNL     1       0.544  -6.244  -3.483  0.00  0.00    +0.005 A 
ATOM     13  C   UNL     1       0.514  -7.243  -4.438  0.00  0.00    -0.050 A 
ATOM     14  C   UNL     1       0.476  -6.915  -5.780  0.00  0.00    +0.005 A 
ATOM     15  C   UNL     1       0.465  -5.588  -6.168  0.00  0.00    +0.027 A 
ATOM     16  C   UNL     1       0.523  -8.690  -4.016  0.00  0.00    +0.044 C 
ENDBRANCH   7  10
ENDBRANCH   6   7
ENDBRANCH   4   6
ENDBRANCH   1   2
BRANCH   1  17
ATOM     17  N   UNL     1      -2.942   0.781  -2.773  0.00  0.00    -0.281 N 
ATOM     18  C   UNL     1      -4.179   1.293  -2.619  0.00  0.00    +0.248 C 
ATOM     19  O   UNL     1      -5.145   0.555  -2.602  0.00  0.00    -0.270 OA
BRANCH  18  20
ATOM     20  C   UNL     1      -4.362   2.753  -2.472  0.00  0.00    +0.037 A 
ATOM     21  C   UNL     1      -3.261   3.607  -2.534  0.00  0.00    +0.015 A 
ATOM     22  C   UNL     1      -3.438   4.968  -2.397  0.00  0.00    +0.033 A 
ATOM     23  C   UNL     1      -4.705   5.487  -2.196  0.00  0.00    +0.126 A 
ATOM     24  C   UNL     1      -5.802   4.645  -2.132  0.00  0.00    +0.033 A 
ATOM     25  C   UNL     1      -5.639   3.283  -2.275  0.00  0.00    +0.015 A 
BRANCH  23  26
ATOM     26  N   UNL     1      -4.889   6.948  -2.048  0.00  0.00    +0.056 N 
ATOM     27  O   UNL     1      -3.932   7.686  -2.103  0.00  0.00    -0.126 OA
ATOM     28  O   UNL     1      -5.995   7.404  -1.873  0.00  0.00    -0.126 OA
ENDBRANCH  23  26
ENDBRANCH  18  20
BRANCH  17  29
ATOM     29  C   UNL     1      -1.778   1.671  -2.790  0.00  0.00    +0.030 C 
ATOM     30  C   UNL     1      -0.501   0.838  -2.918  0.00  0.00    +0.031 C 
ATOM     31  C   UNL     1      -1.885   2.627  -3.979  0.00  0.00    +0.031 C 
ATOM     32  C   UNL     1      -1.733   2.477  -1.490  0.00  0.00    +0.031 C 
ENDBRANCH  17  29
ENDBRANCH   1  17
BRANCH   1  33
ATOM     33  C   UNL     1      -1.950  -1.202  -1.743  0.00  0.00    +0.018 C 
BRANCH  33  35
ATOM     34  C   UNL     1      -2.527   0.626  -0.141  0.00  0.00    +0.004 C 
ATOM     35  C   UNL     1      -2.669  -0.869  -0.435  0.00  0.00    +0.002 C 
ENDBRANCH  33  35
BRANCH  33  36
ATOM     36  C   UNL     1      -1.805  -2.720  -1.873  0.00  0.00    +0.002 C 
ATOM     37  C   UNL     1      -0.620  -3.043  -2.786  0.00  0.00    +0.004 C 
ENDBRANCH  33  36
ENDBRANCH   1  33
TORSDOF 11
