REMARK  Name = ZINC10816628
REMARK  10 active torsions:
REMARK  status: ('A' for Active; 'I' for Inactive)
REMARK    1  A    between atoms: C_1  and  N_58
REMARK    2  A    between atoms: C_2  and  N_58
REMARK    3  A    between atoms: C_3  and  C_4
REMARK    4  A    between atoms: C_3  and  N_58
REMARK    5  A    between atoms: C_4  and  N_5
REMARK    6  A    between atoms: C_11  and  S_15
REMARK    7  A    between atoms: S_15  and  C_16
REMARK    8  A    between atoms: C_17  and  C_19
REMARK    9  A    between atoms: N_24  and  S_25
REMARK   10  A    between atoms: S_25  and  C_28
REMARK                            x       y       z     vdW  Elec       q    Type
REMARK                         _______ _______ _______ _____ _____    ______ ____
ROOT
ATOM      1  N   UNL     1       3.706  -3.133  -6.137  0.00  0.00    -0.251 N 
ATOM      2  C   UNL     1       3.304  -2.341  -5.074  0.00  0.00    +0.168 A 
ATOM      3  N   UNL     1       3.445  -1.046  -4.912  0.00  0.00    -0.224 NA
ATOM      4  C   UNL     1       2.999  -0.398  -3.813  0.00  0.00    +0.080 A 
ATOM      5  C   UNL     1       3.087   0.982  -3.518  0.00  0.00    +0.030 A 
ATOM      6  C   UNL     1       2.585   1.483  -2.358  0.00  0.00    +0.017 A 
ATOM      7  C   UNL     1       1.966   0.663  -1.417  0.00  0.00    +0.009 A 
ATOM      8  C   UNL     1       1.866  -0.700  -1.668  0.00  0.00    +0.032 A 
ATOM      9  C   UNL     1       2.367  -1.207  -2.841  0.00  0.00    +0.042 A 
ATOM     10  S   UNL     1       2.460  -2.823  -3.573  0.00  0.00    -0.052 S 
ATOM     11  C   UNL     1       3.584  -4.473  -6.064  0.00  0.00    +0.240 C 
ATOM     12  O   UNL     1       4.011  -5.171  -6.959  0.00  0.00    -0.273 OA
ENDROOT
BRANCH  11  13
ATOM     13  C   UNL     1       2.916  -5.104  -4.869  0.00  0.00    +0.166 C 
ATOM     14  C   UNL     1       1.387  -4.920  -4.965  0.00  0.00    +0.031 C 
ATOM     15  C   UNL     1       0.915  -6.274  -5.569  0.00  0.00    +0.019 C 
ATOM     16  C   UNL     1       1.900  -7.270  -4.907  0.00  0.00    +0.110 C 
ATOM     17  N   UNL     1       3.185  -6.550  -4.852  0.00  0.00    -0.164 NA
BRANCH  17  18
ATOM     18  S   UNL     1       4.683  -7.252  -4.780  0.00  0.00    +0.068 S 
ATOM     19  O   UNL     1       4.548  -8.554  -5.333  0.00  0.00    -0.152 OA
ATOM     20  O   UNL     1       5.603  -6.298  -5.293  0.00  0.00    -0.152 OA
BRANCH  18  21
ATOM     21  C   UNL     1       5.077  -7.467  -3.076  0.00  0.00    +0.143 A 
ATOM     22  C   UNL     1       4.816  -8.522  -2.267  0.00  0.00    +0.036 A 
ATOM     23  C   UNL     1       5.227  -8.473  -0.948  0.00  0.00    +0.010 A 
ATOM     24  C   UNL     1       5.868  -7.366  -0.500  0.00  0.00    +0.047 A 
ATOM     25  S   UNL     1       5.915  -6.348  -1.966  0.00  0.00    -0.077 S 
ENDBRANCH  18  21
ENDBRANCH  17  18
ENDBRANCH  11  13
BRANCH   7  26
ATOM     26  S   UNL     1       1.325   1.345   0.077  0.00  0.00    -0.129 S 
ATOM     27  C   UNL     1       1.696   3.115  -0.055  0.00  0.00    +0.090 C 
ENDBRANCH   7  26
BRANCH   1  28
ATOM     28  C   UNL     1       4.265  -2.514  -7.342  0.00  0.00    +0.097 C 
BRANCH  28  29
ATOM     29  C   UNL     1       5.785  -2.407  -7.202  0.00  0.00    -0.060 C 
BRANCH  29  32
ATOM     30  C   UNL     1       7.748  -1.346  -8.141  0.00  0.00    -0.097 C 
ATOM     31  C   UNL     1       6.147  -2.433  -9.596  0.00  0.00    -0.097 C 
ATOM     32  N   UNL     1       6.317  -1.650  -8.354  0.00  0.00    +0.377 N 
ATOM     33  H   UNL     1       5.798  -0.768  -8.442  0.00  0.00    -0.083 HD
ENDBRANCH  29  32
ENDBRANCH  28  29
ENDBRANCH   1  28
TORSDOF 7
