REMARK  Name = ZINC12363545
REMARK  5 active torsions:
REMARK  status: ('A' for Active; 'I' for Inactive)
REMARK    1  A    between atoms: C_4  and  N_21
REMARK    2  A    between atoms: C_5  and  C_7
REMARK    3  A    between atoms: C_7  and  N_48
REMARK    4  A    between atoms: C_10  and  C_13
REMARK    5  A    between atoms: C_10  and  O_20
REMARK                            x       y       z     vdW  Elec       q    Type
REMARK                         _______ _______ _______ _____ _____    ______ ____
ROOT
ATOM      1  C   UNL     1      -0.731   1.580   1.266  0.00  0.00    -0.075 C 
ATOM      2  C   UNL     1      -0.013   1.086   0.008  0.00  0.00    +0.021 C 
ATOM      3  C   UNL     1      -0.755   1.594  -1.231  0.00  0.00    +0.090 C 
ATOM      4  C   UNL     1      -0.823   3.123  -1.184  0.00  0.00    +0.021 C 
ATOM      5  C   UNL     1      -1.519   3.558   0.108  0.00  0.00    -0.075 C 
ATOM      6  N   UNL     1      -0.742   3.059   1.262  0.00  0.00    +0.383 N 
ATOM      7  H   UNL     1       0.224   3.399   1.186  0.00  0.00    -0.081 HD
ENDROOT
BRANCH   3   8
ATOM      8  C   UNL     1      -0.018   1.161  -2.472  0.00  0.00    +0.019 A 
ATOM      9  C   UNL     1      -0.648   0.359  -3.406  0.00  0.00    +0.009 A 
ATOM     10  C   UNL     1       0.027  -0.038  -4.545  0.00  0.00    +0.001 A 
ATOM     11  C   UNL     1       1.333   0.366  -4.751  0.00  0.00    +0.003 A 
ATOM     12  C   UNL     1       1.965   1.167  -3.820  0.00  0.00    +0.039 A 
ATOM     13  C   UNL     1       1.288   1.569  -2.681  0.00  0.00    +0.129 A 
ATOM     14  F   UNL     1       1.903   2.357  -1.771  0.00  0.00    -0.205 F 
ENDBRANCH   3   8
BRANCH   3  15
ATOM     15  O   UNL     1      -2.079   1.057  -1.248  0.00  0.00    -0.384 OA
ATOM     16  H   UNL     1      -2.607   1.338  -2.008  0.00  0.00    +0.211 HD
ENDBRANCH   3  15
BRANCH   6  17
ATOM     17  C   UNL     1      -1.329   3.562   2.521  0.00  0.00    -0.041 C 
BRANCH  17  22
ATOM     18  C   UNL     1       0.177   1.833   5.521  0.00  0.00    +0.000 A 
ATOM     19  C   UNL     1       1.304   2.602   5.750  0.00  0.00    +0.002 A 
ATOM     20  C   UNL     1       1.582   3.683   4.937  0.00  0.00    +0.028 A 
ATOM     21  C   UNL     1       0.732   3.993   3.883  0.00  0.00    +0.067 A 
ATOM     22  C   UNL     1      -0.401   3.224   3.659  0.00  0.00    -0.039 A 
ATOM     23  C   UNL     1      -0.674   2.144   4.476  0.00  0.00    +0.004 A 
BRANCH  21  24
ATOM     24  N   UNL     1       1.015   5.086   3.051  0.00  0.00    -0.240 N 
ATOM     25  C   UNL     1       2.079   5.913   3.159  0.00  0.00    +0.114 A 
ATOM     26  C   UNL     1       1.987   6.833   2.171  0.00  0.00    +0.041 A 
ATOM     27  C   UNL     1       0.829   6.560   1.435  0.00  0.00    +0.135 A 
ATOM     28  N   UNL     1       0.249   5.510   1.958  0.00  0.00    -0.175 NA
ENDBRANCH  21  24
ENDBRANCH  17  22
ENDBRANCH   6  17
TORSDOF 5
