REMARK  Name = ZINC64623286
REMARK  7 active torsions:
REMARK  status: ('A' for Active; 'I' for Inactive)
REMARK    1  A    between atoms: C_1  and  C_2
REMARK    2  A    between atoms: C_5  and  S_8
REMARK    3  A    between atoms: S_8  and  N_11
REMARK    4  A    between atoms: N_11  and  C_12
REMARK    5  A    between atoms: C_16  and  C_35
REMARK    6  A    between atoms: C_18  and  N_22
REMARK    7  A    between atoms: C_23  and  C_25
REMARK                            x       y       z     vdW  Elec       q    Type
REMARK                         _______ _______ _______ _____ _____    ______ ____
ROOT
ATOM      1  C   UNL     1       2.495  -4.726   1.101  0.00  0.00    +0.224 C 
ATOM      2  N   UNL     1       3.904  -4.622   0.696  0.00  0.00    -0.318 N 
ATOM      3  C   UNL     1       4.804  -5.531   1.254  0.00  0.00    +0.046 A 
ATOM      4  C   UNL     1       6.184  -5.584   0.985  0.00  0.00    -0.027 A 
ATOM      5  C   UNL     1       6.993  -6.520   1.586  0.00  0.00    +0.028 A 
ATOM      6  C   UNL     1       6.473  -7.447   2.479  0.00  0.00    +0.035 A 
ATOM      7  C   UNL     1       5.112  -7.416   2.761  0.00  0.00    +0.040 A 
ATOM      8  C   UNL     1       4.309  -6.477   2.157  0.00  0.00    +0.034 A 
ATOM      9  S   UNL     1       2.565  -6.141   2.271  0.00  0.00    -0.084 S 
ATOM     10  C   UNL     1       6.787  -4.595   0.021  0.00  0.00    +0.046 C 
ATOM     11  H   UNL     1       4.197  -3.946   0.064  0.00  0.00    +0.148 HD
ENDROOT
BRANCH   6  12
ATOM     12  N   UNL     1       7.306  -8.397   3.086  0.00  0.00    -0.283 N 
ATOM     13  C   UNL     1       7.069  -8.789   4.353  0.00  0.00    +0.244 C 
ATOM     14  O   UNL     1       6.088  -8.385   4.940  0.00  0.00    -0.273 OA
ATOM     15  H   UNL     1       8.053  -8.772   2.593  0.00  0.00    +0.155 HD
BRANCH  13  16
ATOM     16  C   UNL     1       8.024  -9.730   5.041  0.00  0.00    +0.190 C 
ATOM     17  C   UNL     1       9.389  -9.089   5.166  0.00  0.00    +0.016 C 
ATOM     18  C   UNL     1       9.648  -9.015   6.492  0.00  0.00    -0.004 A 
ATOM     19  C   UNL     1      10.792  -8.501   7.254  0.00  0.00    +0.010 A 
ATOM     20  C   UNL     1      10.762  -8.564   8.604  0.00  0.00    +0.001 A 
ATOM     21  C   UNL     1       9.668  -9.107   9.293  0.00  0.00    +0.002 A 
ATOM     22  C   UNL     1       8.581  -9.598   8.662  0.00  0.00    +0.026 A 
ATOM     23  C   UNL     1       8.505  -9.582   7.242  0.00  0.00    +0.043 A 
ATOM     24  N   UNL     1       7.575  -9.994   6.413  0.00  0.00    -0.370 N 
ATOM     25  H   UNL     1       6.731 -10.402   6.663  0.00  0.00    +0.161 HD
ENDBRANCH  13  16
ENDBRANCH   6  12
BRANCH   1  26
ATOM     26  N   UNL     1       1.638  -5.032  -0.046  0.00  0.00    -0.160 NA
ATOM     27  H   UNL     1       2.002  -5.505  -0.811  0.00  0.00    +0.151 HD
BRANCH  26  28
ATOM     28  S   UNL     1       0.047  -4.571  -0.037  0.00  0.00    +0.061 S 
ATOM     29  O   UNL     1      -0.491  -4.992   1.208  0.00  0.00    -0.153 OA
ATOM     30  O   UNL     1      -0.501  -4.982  -1.282  0.00  0.00    -0.153 OA
BRANCH  28  35
ATOM     31  C   UNL     1      -0.065   1.461  -0.012  0.00  0.00    +0.044 C 
ATOM     32  C   UNL     1      -0.037  -0.045  -0.018  0.00  0.00    -0.050 A 
ATOM     33  C   UNL     1      -0.028  -0.732  -1.218  0.00  0.00    +0.005 A 
ATOM     34  C   UNL     1      -0.002  -2.114  -1.224  0.00  0.00    +0.029 A 
ATOM     35  C   UNL     1       0.015  -2.810  -0.030  0.00  0.00    +0.105 A 
ATOM     36  C   UNL     1       0.008  -2.123   1.170  0.00  0.00    +0.029 A 
ATOM     37  C   UNL     1      -0.014  -0.741   1.176  0.00  0.00    +0.005 A 
ENDBRANCH  28  35
ENDBRANCH  26  28
ENDBRANCH   1  26
TORSDOF 5
