REMARK  Name = ZINC17729858
REMARK  3 active torsions:
REMARK  status: ('A' for Active; 'I' for Inactive)
REMARK    1  A    between atoms: C_4  and  N_7
REMARK    2  A    between atoms: N_7  and  C_8
REMARK    3  A    between atoms: N_13  and  C_16
REMARK                            x       y       z     vdW  Elec       q    Type
REMARK                         _______ _______ _______ _____ _____    ______ ____
ROOT
ATOM      1  C   UNL     1       3.641  -2.114  -0.044  0.00  0.00    +0.166 C 
ATOM      2  C   UNL     1       4.974  -2.634  -0.621  0.00  0.00    +0.128 C 
ATOM      3  C   UNL     1       5.577  -3.413   0.527  0.00  0.00    +0.229 C 
ATOM      4  O   UNL     1       6.641  -3.995   0.499  0.00  0.00    -0.275 OA
ATOM      5  N   UNL     1       4.750  -3.359   1.579  0.00  0.00    -0.207 N 
ATOM      6  C   UNL     1       3.627  -2.655   1.369  0.00  0.00    +0.247 C 
ATOM      7  O   UNL     1       2.744  -2.477   2.180  0.00  0.00    -0.273 OA
ENDROOT
BRANCH   5   8
ATOM      8  C   UNL     1       5.033  -3.988   2.800  0.00  0.00    +0.062 A 
ATOM      9  C   UNL     1       5.722  -3.304   3.792  0.00  0.00    +0.025 A 
ATOM     10  C   UNL     1       6.000  -3.926   4.993  0.00  0.00    +0.002 A 
ATOM     11  C   UNL     1       5.592  -5.230   5.209  0.00  0.00    +0.002 A 
ATOM     12  C   UNL     1       4.906  -5.915   4.223  0.00  0.00    +0.022 A 
ATOM     13  C   UNL     1       4.620  -5.296   3.021  0.00  0.00    +0.063 A 
ATOM     14 CL   UNL     1       3.752  -6.154   1.787  0.00  0.00    -0.082 Cl
ENDBRANCH   5   8
BRANCH   1  15
ATOM     15  N   UNL     1       3.620  -0.649  -0.036  0.00  0.00    -0.333 N 
ATOM     16  H   UNL     1       4.452  -0.152  -0.042  0.00  0.00    +0.147 HD
BRANCH  15  20
ATOM     17  C   UNL     1      -0.017   1.379   0.010  0.00  0.00    +0.000 A 
ATOM     18  C   UNL     1       1.169   2.089   0.002  0.00  0.00    +0.002 A 
ATOM     19  C   UNL     1       2.377   1.420  -0.013  0.00  0.00    +0.023 A 
ATOM     20  C   UNL     1       2.400   0.031  -0.021  0.00  0.00    +0.028 A 
ATOM     21  C   UNL     1       1.206  -0.680  -0.013  0.00  0.00    +0.023 A 
ATOM     22  C   UNL     1       0.002  -0.004   0.002  0.00  0.00    +0.002 A 
ENDBRANCH  15  20
ENDBRANCH   1  15
TORSDOF 3
