REMARK  Name = ZINC12882368
REMARK  7 active torsions:
REMARK  status: ('A' for Active; 'I' for Inactive)
REMARK    1  A    between atoms: C_1  and  C_2
REMARK    2  A    between atoms: C_2  and  C_3
REMARK    3  A    between atoms: C_14  and  C_16
REMARK    4  A    between atoms: C_16  and  C_17
REMARK    5  A    between atoms: N_25  and  C_28
REMARK    6  A    between atoms: C_28  and  C_29
REMARK    7  A    between atoms: C_29  and  C_30
REMARK                            x       y       z     vdW  Elec       q    Type
REMARK                         _______ _______ _______ _____ _____    ______ ____
ROOT
ATOM      1  C   UNL     1      -1.435   2.885   2.893  0.00  0.00    -0.047 A 
ATOM      2  C   UNL     1      -2.646   3.520   2.685  0.00  0.00    +0.005 A 
ATOM      3  C   UNL     1      -2.708   4.896   2.620  0.00  0.00    +0.024 A 
ATOM      4  C   UNL     1      -1.551   5.658   2.765  0.00  0.00    +0.036 A 
ATOM      5  C   UNL     1      -0.338   5.008   2.974  0.00  0.00    -0.027 A 
ATOM      6  C   UNL     1      -0.281   3.634   3.043  0.00  0.00    +0.008 A 
ATOM      7  C   UNL     1       0.696   6.092   3.086  0.00  0.00    +0.050 C 
ATOM      8  C   UNL     1       1.783   5.943   2.014  0.00  0.00    +0.088 C 
ATOM      9  C   UNL     1       3.092   6.394   2.720  0.00  0.00    +0.073 C 
ATOM     10  C   UNL     1       2.657   6.790   4.147  0.00  0.00    -0.053 C 
ATOM     11  C   UNL     1       3.904   5.101   2.776  0.00  0.00    +0.224 C 
ATOM     12  O   UNL     1       5.006   4.989   3.268  0.00  0.00    -0.275 OA
ATOM     13  N   UNL     1       3.213   4.114   2.195  0.00  0.00    -0.241 N 
ATOM     14  C   UNL     1       2.013   4.475   1.728  0.00  0.00    +0.225 C 
ATOM     15  O   UNL     1       1.230   3.741   1.163  0.00  0.00    -0.275 OA
ATOM     16  C   UNL     1      -0.067   7.378   2.921  0.00  0.00    +0.211 C 
ATOM     17  O   UNL     1       0.392   8.500   2.946  0.00  0.00    -0.277 OA
ATOM     18  N   UNL     1      -1.359   7.041   2.740  0.00  0.00    -0.286 N 
ATOM     19  H   UNL     1      -2.072   7.684   2.608  0.00  0.00    +0.155 HD
ATOM     20  N   UNL     1       1.406   6.057   4.352  0.00  0.00    +0.394 N 
ATOM     21  H   UNL     1       1.604   5.086   4.621  0.00  0.00    -0.083 HD
ATOM     22  H   UNL     1       0.847   6.508   5.085  0.00  0.00    -0.083 HD
ENDROOT
BRANCH   1  24
ATOM     23  C   UNL     1      -1.138   0.814   1.561  0.00  0.00    +0.009 C 
ATOM     24  C   UNL     1      -1.373   1.380   2.963  0.00  0.00    +0.032 C 
ENDBRANCH   1  24
BRANCH  10  25
ATOM     25  C   UNL     1       2.405   8.297   4.228  0.00  0.00    +0.020 C 
BRANCH  25  26
ATOM     26  C   UNL     1       3.674   8.997   4.640  0.00  0.00    -0.049 A 
ATOM     27  C   UNL     1       3.943   9.210   5.979  0.00  0.00    +0.003 A 
ATOM     28  C   UNL     1       5.109   9.848   6.358  0.00  0.00    +0.000 A 
ATOM     29  C   UNL     1       6.002  10.282   5.396  0.00  0.00    +0.000 A 
ATOM     30  C   UNL     1       5.731  10.075   4.057  0.00  0.00    +0.000 A 
ATOM     31  C   UNL     1       4.567   9.432   3.679  0.00  0.00    +0.003 A 
ENDBRANCH  25  26
ENDBRANCH  10  25
BRANCH  13  32
ATOM     32  C   UNL     1       3.730   2.748   2.078  0.00  0.00    +0.121 C 
BRANCH  32  33
ATOM     33  C   UNL     1       4.504   2.606   0.766  0.00  0.00    +0.054 C 
BRANCH  33  34
ATOM     34  C   UNL     1       5.036   1.200   0.646  0.00  0.00    -0.046 A 
ATOM     35  C   UNL     1       6.287   0.890   1.144  0.00  0.00    +0.004 A 
ATOM     36  C   UNL     1       6.773  -0.400   1.037  0.00  0.00    +0.000 A 
ATOM     37  C   UNL     1       6.011  -1.377   0.425  0.00  0.00    +0.000 A 
ATOM     38  C   UNL     1       4.761  -1.066  -0.077  0.00  0.00    +0.000 A 
ATOM     39  C   UNL     1       4.274   0.223   0.033  0.00  0.00    +0.004 A 
ENDBRANCH  33  34
ENDBRANCH  32  33
ENDBRANCH  13  32
TORSDOF 6
