REMARK  Name = ZINC12738437
REMARK  11 active torsions:
REMARK  status: ('A' for Active; 'I' for Inactive)
REMARK    1  A    between atoms: C_1  and  C_2
REMARK    2  A    between atoms: C_2  and  C_3
REMARK    3  A    between atoms: C_3  and  C_5
REMARK    4  A    between atoms: C_3  and  C_6
REMARK    5  A    between atoms: C_9  and  C_12
REMARK    6  A    between atoms: C_12  and  C_14
REMARK    7  A    between atoms: C_12  and  N_17
REMARK    8  A    between atoms: C_14  and  C_15
REMARK    9  A    between atoms: C_14  and  C_16
REMARK   10  A    between atoms: N_17  and  S_18
REMARK   11  A    between atoms: S_18  and  C_21
REMARK                            x       y       z     vdW  Elec       q    Type
REMARK                         _______ _______ _______ _____ _____    ______ ____
ROOT
ATOM      1  S   UNL     1      -0.984   0.505  -2.485  0.00  0.00    +0.059 S 
ATOM      2  O   UNL     1      -1.829   1.201  -3.390  0.00  0.00    -0.153 OA
ATOM      3  O   UNL     1       0.320   0.067  -2.843  0.00  0.00    -0.153 OA
ENDROOT
BRANCH   1   4
ATOM      4  C   UNL     1      -1.871  -0.926  -1.966  0.00  0.00    +0.106 A 
ATOM      5  C   UNL     1      -3.256  -0.938  -2.027  0.00  0.00    +0.030 A 
ATOM      6  C   UNL     1      -3.969  -2.050  -1.625  0.00  0.00    +0.028 A 
ATOM      7  C   UNL     1      -3.295  -3.166  -1.155  0.00  0.00    +0.056 A 
ATOM      8  C   UNL     1      -1.891  -3.155  -1.093  0.00  0.00    +0.065 A 
ATOM      9  C   UNL     1      -1.183  -2.029  -1.506  0.00  0.00    +0.043 A 
ATOM     10  C   UNL     1      -1.206  -4.359  -0.588  0.00  0.00    +0.262 A 
ATOM     11  O   UNL     1       0.007  -4.402  -0.514  0.00  0.00    -0.267 OA
ATOM     12  N   UNL     1      -1.960  -5.414  -0.210  0.00  0.00    -0.275 N 
ATOM     13  H   UNL     1      -1.512  -6.239   0.135  0.00  0.00    +0.173 HD
ATOM     14  C   UNL     1      -3.300  -5.376  -0.289  0.00  0.00    +0.327 A 
ATOM     15  O   UNL     1      -3.931  -6.353   0.064  0.00  0.00    -0.247 OA
ATOM     16  N   UNL     1      -3.973  -4.304  -0.742  0.00  0.00    -0.307 N 
ATOM     17  H   UNL     1      -4.972  -4.327  -0.780  0.00  0.00    +0.170 HD
ENDBRANCH   1   4
BRANCH   1  18
ATOM     18  N   UNL     1      -0.807   1.480  -1.158  0.00  0.00    -0.182 NA
ATOM     19  H   UNL     1      -1.242   2.347  -1.132  0.00  0.00    +0.149 HD
BRANCH  18  20
ATOM     20  C   UNL     1       0.004   1.033  -0.023  0.00  0.00    +0.109 C 
BRANCH  20  24
ATOM     21  C   UNL     1      -1.755   2.414   3.617  0.00  0.00    -0.045 A 
ATOM     22  C   UNL     1      -1.215   1.144   3.549  0.00  0.00    +0.004 A 
ATOM     23  C   UNL     1      -0.646   0.697   2.371  0.00  0.00    +0.005 A 
ATOM     24  C   UNL     1      -0.617   1.520   1.261  0.00  0.00    -0.029 A 
ATOM     25  C   UNL     1      -1.152   2.793   1.331  0.00  0.00    +0.005 A 
ATOM     26  C   UNL     1      -1.726   3.238   2.507  0.00  0.00    +0.004 A 
BRANCH  21  27
ATOM     27  C   UNL     1      -2.375   2.902   4.901  0.00  0.00    +0.016 C 
ATOM     28  C   UNL     1      -1.632   4.148   5.385  0.00  0.00    +0.012 C 
BRANCH  27  30
ATOM     29  C   UNL     1      -4.508   3.622   5.986  0.00  0.00    +0.004 C 
ATOM     30  C   UNL     1      -3.846   3.247   4.658  0.00  0.00    +0.004 C 
ENDBRANCH  27  30
ENDBRANCH  21  27
ENDBRANCH  20  24
BRANCH  20  31
ATOM     31  C   UNL     1       1.419   1.601  -0.152  0.00  0.00    +0.006 C 
ATOM     32  C   UNL     1       1.356   3.129  -0.163  0.00  0.00    +0.009 C 
ATOM     33  C   UNL     1       2.266   1.133   1.032  0.00  0.00    +0.009 C 
ENDBRANCH  20  31
ENDBRANCH  18  20
ENDBRANCH   1  18
TORSDOF 7
