REMARK  Name = ZINC13109552
REMARK  11 active torsions:
REMARK  status: ('A' for Active; 'I' for Inactive)
REMARK    1  A    between atoms: C_1  and  C_2
REMARK    2  A    between atoms: C_2  and  C_3
REMARK    3  A    between atoms: C_3  and  C_4
REMARK    4  A    between atoms: C_4  and  N_5
REMARK    5  A    between atoms: C_6  and  N_38
REMARK    6  A    between atoms: C_7  and  N_14
REMARK    7  A    between atoms: N_14  and  C_15
REMARK    8  A    between atoms: C_16  and  C_18
REMARK    9  A    between atoms: N_23  and  C_31
REMARK   10  A    between atoms: C_24  and  C_26
REMARK   11  A    between atoms: C_34  and  C_37
REMARK                            x       y       z     vdW  Elec       q    Type
REMARK                         _______ _______ _______ _____ _____    ______ ____
ROOT
ATOM      1  N   UNL     1      -0.149  -0.090   0.162  0.00  0.00    -0.267 N 
ATOM      2  C   UNL     1      -1.460  -0.717   0.344  0.00  0.00    +0.138 C 
ATOM      3  C   UNL     1       0.958  -0.857   0.064  0.00  0.00    +0.225 C 
ATOM      4  O   UNL     1       2.052  -0.337   0.004  0.00  0.00    -0.275 OA
ENDROOT
BRANCH   1   7
ATOM      5  N   UNL     1      -0.236   3.466   1.079  0.00  0.00    -0.280 N 
ATOM      6  C   UNL     1      -0.353   2.100   1.180  0.00  0.00    +0.127 A 
ATOM      7  C   UNL     1      -0.043   1.315   0.089  0.00  0.00    +0.139 A 
ATOM      8  C   UNL     1       0.376   1.940  -1.101  0.00  0.00    +0.277 A 
ATOM      9  O   UNL     1       0.652   1.270  -2.082  0.00  0.00    -0.266 OA
ATOM     10  N   UNL     1       0.470   3.283  -1.148  0.00  0.00    -0.273 N 
ATOM     11  H   UNL     1       0.767   3.728  -1.993  0.00  0.00    +0.173 HD
ATOM     12  C   UNL     1       0.168   4.032  -0.073  0.00  0.00    +0.331 A 
ATOM     13  O   UNL     1       0.261   5.242  -0.143  0.00  0.00    -0.246 OA
BRANCH   6  14
ATOM     14  N   UNL     1      -0.770   1.522   2.356  0.00  0.00    -0.343 N 
ATOM     15  H   UNL     1      -0.753   0.558   2.455  0.00  0.00    +0.144 HD
ATOM     16  H   UNL     1      -1.082   2.080   3.086  0.00  0.00    +0.144 HD
ENDBRANCH   6  14
BRANCH   5  17
ATOM     17  C   UNL     1      -0.557   4.312   2.232  0.00  0.00    +0.128 C 
BRANCH  17  18
ATOM     18  C   UNL     1      -2.040   4.686   2.192  0.00  0.00    +0.021 C 
BRANCH  18  20
ATOM     19  C   UNL     1      -3.859   5.944   3.356  0.00  0.00    +0.004 C 
ATOM     20  C   UNL     1      -2.376   5.569   3.396  0.00  0.00    -0.002 C 
ENDBRANCH  18  20
ENDBRANCH  17  18
ENDBRANCH   5  17
ENDBRANCH   1   7
BRANCH   3  21
ATOM     21  C   UNL     1       0.834  -2.358   0.030  0.00  0.00    +0.110 C 
ATOM     22  C   UNL     1       0.150  -2.827  -1.275  0.00  0.00    +0.111 C 
ATOM     23  C   UNL     1       1.301  -3.114  -2.214  0.00  0.00    +0.221 C 
ATOM     24  O   UNL     1       1.203  -3.235  -3.417  0.00  0.00    -0.275 OA
ATOM     25  N   UNL     1       2.449  -3.214  -1.522  0.00  0.00    -0.263 N 
ATOM     26  C   UNL     1       2.222  -3.025  -0.084  0.00  0.00    +0.130 C 
BRANCH  25  27
ATOM     27  C   UNL     1       3.699  -3.466  -2.098  0.00  0.00    +0.037 A 
ATOM     28  C   UNL     1       3.796  -3.753  -3.453  0.00  0.00    +0.024 A 
ATOM     29  C   UNL     1       5.032  -3.996  -4.019  0.00  0.00    +0.005 A 
ATOM     30  C   UNL     1       6.171  -3.963  -3.236  0.00  0.00    -0.050 A 
ATOM     31  C   UNL     1       6.078  -3.683  -1.885  0.00  0.00    +0.005 A 
ATOM     32  C   UNL     1       4.845  -3.434  -1.314  0.00  0.00    +0.024 A 
ATOM     33  C   UNL     1       7.518  -4.234  -3.857  0.00  0.00    +0.044 C 
ENDBRANCH  25  27
BRANCH  26  34
ATOM     34  C   UNL     1       2.221  -4.356   0.623  0.00  0.00    +0.011 A 
ATOM     35  C   UNL     1       2.692  -4.668   1.855  0.00  0.00    +0.013 A 
ATOM     36  C   UNL     1       2.583  -5.971   2.304  0.00  0.00    +0.008 A 
ATOM     37  C   UNL     1       2.009  -6.897   1.499  0.00  0.00    +0.045 A 
ATOM     38  S   UNL     1       1.593  -5.929   0.059  0.00  0.00    -0.100 S 
ENDBRANCH  26  34
ENDBRANCH   3  21
TORSDOF 8
