REMARK  Name = ZINC08799208
REMARK  8 active torsions:
REMARK  status: ('A' for Active; 'I' for Inactive)
REMARK    1  A    between atoms: C_1  and  C_2
REMARK    2  A    between atoms: C_7  and  S_8
REMARK    3  A    between atoms: S_8  and  N_11
REMARK    4  A    between atoms: N_11  and  C_12
REMARK    5  A    between atoms: C_12  and  C_13
REMARK    6  A    between atoms: C_13  and  C_15
REMARK    7  A    between atoms: C_13  and  N_60
REMARK    8  A    between atoms: N_24  and  C_25
REMARK                            x       y       z     vdW  Elec       q    Type
REMARK                         _______ _______ _______ _____ _____    ______ ____
ROOT
ATOM      1  C   UNL     1      -1.677   2.114   1.199  0.00  0.00    -0.022 C 
ENDROOT
BRANCH   1   2
ATOM      2  C   UNL     1      -0.430   2.041   2.041  0.00  0.00    -0.059 A 
ATOM      3  C   UNL     1       0.684   2.783   1.696  0.00  0.00    +0.004 A 
ATOM      4  C   UNL     1       1.823   2.717   2.469  0.00  0.00    +0.023 A 
ATOM      5  C   UNL     1       1.864   1.894   3.596  0.00  0.00    +0.033 A 
ATOM      6  C   UNL     1       0.747   1.151   3.937  0.00  0.00    -0.026 A 
ATOM      7  C   UNL     1      -0.396   1.228   3.157  0.00  0.00    +0.007 A 
ATOM      8  C   UNL     1       0.723   0.252   5.147  0.00  0.00    +0.038 C 
ATOM      9  C   UNL     1       2.153   0.011   5.637  0.00  0.00    +0.024 C 
ATOM     10  C   UNL     1       2.867   1.367   5.696  0.00  0.00    +0.105 C 
ATOM     11  N   UNL     1       3.050   1.859   4.329  0.00  0.00    -0.333 N 
ATOM     12  C   UNL     1       3.709   3.172   4.326  0.00  0.00    +0.129 C 
ENDBRANCH   1   2
BRANCH   1  17
ATOM     13  C   UNL     1      -3.095   3.606  -0.102  0.00  0.00    -0.078 C 
ATOM     14  C   UNL     1      -3.479   5.104  -0.005  0.00  0.00    -0.020 C 
ATOM     15  C   UNL     1      -3.190   5.440   1.476  0.00  0.00    -0.020 C 
ATOM     16  C   UNL     1      -2.185   4.370   1.943  0.00  0.00    -0.078 C 
ATOM     17  N   UNL     1      -1.917   3.527   0.777  0.00  0.00    +0.385 N 
ATOM     18  H   UNL     1      -1.089   3.875   0.280  0.00  0.00    -0.081 HD
ENDBRANCH   1  17
BRANCH   1  19
ATOM     19  C   UNL     1      -1.511   1.228  -0.037  0.00  0.00    +0.095 C 
BRANCH  19  20
ATOM     20  N   UNL     1      -1.418  -0.175   0.377  0.00  0.00    -0.191 NA
ATOM     21  H   UNL     1      -1.253  -0.396   1.306  0.00  0.00    +0.148 HD
BRANCH  20  22
ATOM     22  S   UNL     1      -1.594  -1.382  -0.743  0.00  0.00    +0.059 S 
ATOM     23  O   UNL     1      -1.398  -2.608  -0.053  0.00  0.00    -0.153 OA
ATOM     24  O   UNL     1      -2.785  -1.096  -1.464  0.00  0.00    -0.153 OA
BRANCH  22  31
ATOM     25  C   UNL     1       1.319  -1.749  -0.020  0.00  0.00    +0.046 C 
ATOM     26  C   UNL     1       1.038  -1.415  -1.463  0.00  0.00    -0.024 A 
ATOM     27  C   UNL     1       2.083  -1.300  -2.361  0.00  0.00    +0.007 A 
ATOM     28  C   UNL     1       1.827  -0.989  -3.683  0.00  0.00    +0.020 A 
ATOM     29  C   UNL     1       0.524  -0.797  -4.108  0.00  0.00    +0.043 A 
ATOM     30  C   UNL     1      -0.521  -0.917  -3.210  0.00  0.00    +0.048 A 
ATOM     31  C   UNL     1      -0.264  -1.229  -1.888  0.00  0.00    +0.110 A 
ATOM     32 CL   UNL     1       0.201  -0.405  -5.768  0.00  0.00    -0.083 Cl
ENDBRANCH  22  31
ENDBRANCH  20  22
ENDBRANCH  19  20
ENDBRANCH   1  19
TORSDOF 6
