REMARK  Name = ZINC09469979
REMARK  10 active torsions:
REMARK  status: ('A' for Active; 'I' for Inactive)
REMARK    1  A    between atoms: C_1  and  C_2
REMARK    2  A    between atoms: C_2  and  C_3
REMARK    3  A    between atoms: C_3  and  C_4
REMARK    4  A    between atoms: C_4  and  N_5
REMARK    5  A    between atoms: C_6  and  N_35
REMARK    6  A    between atoms: C_7  and  N_14
REMARK    7  A    between atoms: N_14  and  C_15
REMARK    8  A    between atoms: C_15  and  C_16
REMARK    9  A    between atoms: C_22  and  C_24
REMARK   10  A    between atoms: C_24  and  N_25
REMARK                            x       y       z     vdW  Elec       q    Type
REMARK                         _______ _______ _______ _____ _____    ______ ____
ROOT
ATOM      1  N   UNL     1       2.296   3.696   0.032  0.00  0.00    -0.259 N 
ATOM      2  C   UNL     1       2.288   5.021  -0.221  0.00  0.00    +0.238 C 
ATOM      3  O   UNL     1       3.335   5.619  -0.358  0.00  0.00    -0.274 OA
ENDROOT
BRANCH   1   6
ATOM      4  N   UNL     1      -0.344   1.821   1.770  0.00  0.00    -0.280 N 
ATOM      5  C   UNL     1       0.846   2.473   1.542  0.00  0.00    +0.127 A 
ATOM      6  C   UNL     1       1.086   3.021   0.298  0.00  0.00    +0.140 A 
ATOM      7  C   UNL     1       0.102   2.895  -0.701  0.00  0.00    +0.277 A 
ATOM      8  O   UNL     1       0.288   3.369  -1.809  0.00  0.00    -0.266 OA
ATOM      9  N   UNL     1      -1.046   2.246  -0.425  0.00  0.00    -0.273 N 
ATOM     10  H   UNL     1      -1.744   2.153  -1.136  0.00  0.00    +0.173 HD
ATOM     11  C   UNL     1      -1.265   1.724   0.794  0.00  0.00    +0.331 A 
ATOM     12  O   UNL     1      -2.312   1.147   1.018  0.00  0.00    -0.246 OA
BRANCH   5  13
ATOM     13  N   UNL     1       1.785   2.578   2.540  0.00  0.00    -0.343 N 
ATOM     14  H   UNL     1       2.581   3.114   2.402  0.00  0.00    +0.144 HD
ATOM     15  H   UNL     1       1.650   2.115   3.382  0.00  0.00    +0.144 HD
ENDBRANCH   5  13
BRANCH   4  16
ATOM     16  C   UNL     1      -0.612   1.236   3.086  0.00  0.00    +0.128 C 
BRANCH  16  17
ATOM     17  C   UNL     1      -1.302   2.272   3.974  0.00  0.00    +0.021 C 
BRANCH  17  19
ATOM     18  C   UNL     1      -2.273   2.696   6.237  0.00  0.00    +0.004 C 
ATOM     19  C   UNL     1      -1.582   1.660   5.349  0.00  0.00    -0.002 C 
ENDBRANCH  17  19
ENDBRANCH  16  17
ENDBRANCH   4  16
ENDBRANCH   1   6
BRANCH   1  20
ATOM     20  C   UNL     1       3.561   2.957   0.031  0.00  0.00    +0.149 C 
BRANCH  20  21
ATOM     21  C   UNL     1       3.862   2.478  -1.365  0.00  0.00    -0.030 A 
ATOM     22  C   UNL     1       3.310   1.298  -1.825  0.00  0.00    +0.005 A 
ATOM     23  C   UNL     1       3.582   0.861  -3.108  0.00  0.00    +0.000 A 
ATOM     24  C   UNL     1       4.415   1.599  -3.928  0.00  0.00    +0.000 A 
ATOM     25  C   UNL     1       4.973   2.777  -3.466  0.00  0.00    +0.000 A 
ATOM     26  C   UNL     1       4.696   3.217  -2.185  0.00  0.00    +0.005 A 
ENDBRANCH  20  21
ENDBRANCH   1  20
BRANCH   2  27
ATOM     27  C   UNL     1       0.979   5.759  -0.334  0.00  0.00    +0.201 C 
BRANCH  27  28
ATOM     28  N   UNL     1       1.239   7.198  -0.479  0.00  0.00    -0.321 N 
ATOM     29  C   UNL     1       1.817   7.497  -1.790  0.00  0.00    +0.106 C 
ATOM     30  C   UNL     1       2.092   9.004  -1.873  0.00  0.00    +0.024 C 
ATOM     31  C   UNL     1       3.226   9.329  -0.897  0.00  0.00    +0.038 C 
ATOM     32  C   UNL     1       2.951   8.679   0.435  0.00  0.00    -0.026 A 
ATOM     33  C   UNL     1       2.008   7.676   0.581  0.00  0.00    +0.033 A 
ATOM     34  C   UNL     1       1.804   7.106   1.839  0.00  0.00    +0.023 A 
ATOM     35  C   UNL     1       2.529   7.539   2.928  0.00  0.00    +0.002 A 
ATOM     36  C   UNL     1       3.466   8.545   2.777  0.00  0.00    +0.000 A 
ATOM     37  C   UNL     1       3.675   9.111   1.535  0.00  0.00    +0.005 A 
ENDBRANCH  27  28
ENDBRANCH   2  27
TORSDOF 9
