REMARK  Name = ZINC00660123
REMARK  9 active torsions:
REMARK  status: ('A' for Active; 'I' for Inactive)
REMARK    1  A    between atoms: C_1  and  C_2
REMARK    2  A    between atoms: C_9  and  N_32
REMARK    3  A    between atoms: C_10  and  C_30
REMARK    4  A    between atoms: C_11  and  C_13
REMARK    5  A    between atoms: C_16  and  O_28
REMARK    6  A    between atoms: C_17  and  C_19
REMARK    7  A    between atoms: C_19  and  O_20
REMARK    8  A    between atoms: O_20  and  C_21
REMARK    9  A    between atoms: O_28  and  C_29
REMARK                            x       y       z     vdW  Elec       q    Type
REMARK                         _______ _______ _______ _____ _____    ______ ____
ROOT
ATOM      1  C   UNL     1      -1.003   5.630   1.677  0.00  0.00    -0.034 A 
ATOM      2  C   UNL     1      -0.367   5.117   0.561  0.00  0.00    +0.008 A 
ATOM      3  C   UNL     1      -0.253   3.751   0.396  0.00  0.00    +0.046 A 
ATOM      4  C   UNL     1      -0.787   2.892   1.346  0.00  0.00    +0.126 A 
ATOM      5  C   UNL     1      -1.425   3.409   2.465  0.00  0.00    +0.032 A 
ATOM      6  C   UNL     1      -1.531   4.776   2.627  0.00  0.00    +0.015 A 
ENDROOT
BRANCH   1  17
ATOM      7  C   UNL     1       1.045   6.968   4.199  0.00  0.00    +0.065 C 
ATOM      8  C   UNL     1       1.179   7.685   2.881  0.00  0.00    +0.041 A 
ATOM      9  C   UNL     1       0.255   7.737   1.910  0.00  0.00    +0.049 A 
ATOM     10  C   UNL     1       0.776   8.509   0.849  0.00  0.00    +0.245 A 
ATOM     11  N   UNL     1       1.972   8.899   1.184  0.00  0.00    -0.135 NA
ATOM     12  N   UNL     1       2.253   8.393   2.463  0.00  0.00    -0.278 N 
ATOM     13  H   UNL     1       3.101   8.533   2.975  0.00  0.00    +0.189 HD
ATOM     14  O   UNL     1       0.066   8.748  -0.286  0.00  0.00    -0.421 OA
ATOM     15  C   UNL     1      -1.250   8.457  -0.268  0.00  0.00    +0.201 C 
ATOM     16  C   UNL     1      -1.857   7.719   0.685  0.00  0.00    +0.098 C 
ATOM     17  C   UNL     1      -1.120   7.122   1.857  0.00  0.00    +0.101 C 
BRANCH  15  18
ATOM     18  N   UNL     1      -2.027   8.944  -1.289  0.00  0.00    -0.328 N 
ATOM     19  H   UNL     1      -1.624   9.478  -1.992  0.00  0.00    +0.145 HD
ATOM     20  H   UNL     1      -2.978   8.755  -1.309  0.00  0.00    +0.145 HD
ENDBRANCH  15  18
BRANCH  16  21
ATOM     21  C   UNL     1      -3.268   7.494   0.579  0.00  0.00    +0.101 C 
ATOM     22  N   UNL     1      -4.386   7.315   0.495  0.00  0.00    -0.191 NA
ENDBRANCH  16  21
ENDBRANCH   1  17
BRANCH   4  23
ATOM     23  O   UNL     1      -0.682   1.547   1.184  0.00  0.00    -0.495 OA
ATOM     24  C   UNL     1      -0.013   1.086   0.008  0.00  0.00    +0.277 C 
ENDBRANCH   4  23
BRANCH   5  25
ATOM     25  C   UNL     1      -2.000   2.479   3.502  0.00  0.00    +0.268 C 
BRANCH  25  26
ATOM     26  O   UNL     1      -2.599   3.245   4.548  0.00  0.00    -0.486 OA
BRANCH  26  27
ATOM     27  C   UNL     1      -3.169   2.554   5.571  0.00  0.00    +0.135 A 
ATOM     28  C   UNL     1      -3.156   1.166   5.564  0.00  0.00    +0.047 A 
ATOM     29  C   UNL     1      -3.731   0.466   6.606  0.00  0.00    +0.004 A 
ATOM     30  C   UNL     1      -4.329   1.146   7.652  0.00  0.00    +0.001 A 
ATOM     31  C   UNL     1      -4.348   2.528   7.659  0.00  0.00    +0.019 A 
ATOM     32  C   UNL     1      -3.769   3.234   6.621  0.00  0.00    +0.059 A 
ATOM     33 BR   UNL     1      -3.795   5.125   6.631  0.00  0.00    -0.047 Br
ENDBRANCH  26  27
ENDBRANCH  25  26
ENDBRANCH   5  25
TORSDOF 7
