REMARK  Name = ZINC05581733
REMARK  4 active torsions:
REMARK  status: ('A' for Active; 'I' for Inactive)
REMARK    1  A    between atoms: C_4  and  O_26
REMARK    2  A    between atoms: C_5  and  C_7
REMARK    3  A    between atoms: C_10  and  C_19
REMARK    4  A    between atoms: C_22  and  N_25
REMARK                            x       y       z     vdW  Elec       q    Type
REMARK                         _______ _______ _______ _____ _____    ______ ____
ROOT
ATOM      1  C   UNL     1      -0.348   5.527  -0.174  0.00  0.00    +0.091 C 
ATOM      2  C   UNL     1      -0.224   5.811   1.296  0.00  0.00    +0.075 C 
ATOM      3  C   UNL     1      -0.299   7.264   1.606  0.00  0.00    +0.050 C 
ATOM      4  N   UNL     1       0.163   8.223   0.964  0.00  0.00    -0.250 NA
ATOM      5  C   UNL     1       0.750   8.570  -0.182  0.00  0.00    +0.078 A 
ATOM      6  C   UNL     1       0.935   9.961  -0.355  0.00  0.00    +0.029 A 
ATOM      7  C   UNL     1       1.496  10.475  -1.496  0.00  0.00    +0.002 A 
ATOM      8  C   UNL     1       1.896   9.623  -2.511  0.00  0.00    +0.001 A 
ATOM      9  C   UNL     1       1.741   8.265  -2.358  0.00  0.00    +0.017 A 
ATOM     10  C   UNL     1       1.187   7.716  -1.196  0.00  0.00    +0.034 A 
ATOM     11  S   UNL     1       1.107   5.970  -1.112  0.00  0.00    -0.115 S 
ENDROOT
BRANCH   1  16
ATOM     12  C   UNL     1      -2.151   2.245  -0.665  0.00  0.00    +0.001 A 
ATOM     13  C   UNL     1      -1.097   1.351  -0.701  0.00  0.00    +0.004 A 
ATOM     14  C   UNL     1       0.201   1.805  -0.573  0.00  0.00    +0.046 A 
ATOM     15  C   UNL     1       0.447   3.159  -0.401  0.00  0.00    +0.121 A 
ATOM     16  C   UNL     1      -0.612   4.054  -0.359  0.00  0.00    +0.008 A 
ATOM     17  C   UNL     1      -1.909   3.595  -0.488  0.00  0.00    +0.008 A 
BRANCH  15  18
ATOM     18  O   UNL     1       1.723   3.609  -0.275  0.00  0.00    -0.506 OA
ATOM     19  H   UNL     1       2.143   3.841  -1.115  0.00  0.00    +0.292 HD
ENDBRANCH  15  18
ENDBRANCH   1  16
BRANCH   3  20
ATOM     20  C   UNL     1      -1.017   7.614   2.840  0.00  0.00    -0.004 A 
ATOM     21  C   UNL     1      -1.292   8.954   3.136  0.00  0.00    +0.011 A 
ATOM     22  C   UNL     1      -1.971   9.276   4.289  0.00  0.00    +0.023 A 
ATOM     23  C   UNL     1      -2.372   8.273   5.167  0.00  0.00    +0.025 A 
ATOM     24  C   UNL     1      -2.094   6.940   4.880  0.00  0.00    +0.023 A 
ATOM     25  C   UNL     1      -1.422   6.608   3.725  0.00  0.00    +0.011 A 
BRANCH  23  26
ATOM     26  N   UNL     1      -3.052   8.604   6.336  0.00  0.00    -0.358 N 
ATOM     27  H   UNL     1      -3.333   7.906   6.948  0.00  0.00    +0.142 HD
ATOM     28  H   UNL     1      -3.247   9.533   6.537  0.00  0.00    +0.142 HD
ENDBRANCH  23  26
ENDBRANCH   3  20
TORSDOF 4
