REMARK  Name = ZINC38610666
REMARK  5 active torsions:
REMARK  status: ('A' for Active; 'I' for Inactive)
REMARK    1  A    between atoms: C_1  and  O_2
REMARK    2  A    between atoms: O_2  and  C_3
REMARK    3  A    between atoms: C_3  and  C_5
REMARK    4  A    between atoms: C_7  and  N_15
REMARK    5  A    between atoms: C_16  and  C_18
REMARK                            x       y       z     vdW  Elec       q    Type
REMARK                         _______ _______ _______ _____ _____    ______ ____
ROOT
ATOM      1  N   UNL     1       1.730  -2.509   1.014  0.00  0.00    -0.286 N 
ATOM      2  C   UNL     1       2.806  -2.927   1.710  0.00  0.00    +0.223 C 
ATOM      3  O   UNL     1       3.781  -3.348   1.125  0.00  0.00    -0.275 OA
ATOM      4  H   UNL     1       0.985  -2.094   1.475  0.00  0.00    +0.155 HD
ENDROOT
BRANCH   2   5
ATOM      5  C   UNL     1       2.797  -2.872   3.216  0.00  0.00    +0.049 C 
ATOM      6  C   UNL     1       1.651  -3.734   3.751  0.00  0.00    +0.019 C 
ATOM      7  C   UNL     1       1.642  -3.678   5.280  0.00  0.00    -0.008 C 
ATOM      8  C   UNL     1       2.973  -4.207   5.818  0.00  0.00    +0.007 C 
ATOM      9  C   UNL     1       4.118  -3.345   5.283  0.00  0.00    -0.008 C 
ATOM     10  C   UNL     1       4.128  -3.401   3.754  0.00  0.00    +0.019 C 
ATOM     11  C   UNL     1       3.923  -1.897   5.739  0.00  0.00    +0.021 C 
ATOM     12  C   UNL     1       2.592  -1.368   5.201  0.00  0.00    +0.028 C 
ATOM     13  C   UNL     1       1.447  -2.230   5.736  0.00  0.00    +0.021 C 
ATOM     14  C   UNL     1       2.601  -1.424   3.672  0.00  0.00    +0.034 C 
ATOM     15 BR   UNL     1       2.341   0.492   5.787  0.00  0.00    -0.084 Br
ENDBRANCH   2   5
BRANCH   1  17
ATOM     16  C   UNL     1       2.666  -3.443  -1.196  0.00  0.00    +0.234 C 
ATOM     17  C   UNL     1       1.690  -2.668  -0.339  0.00  0.00    +0.053 C 
ATOM     18  C   UNL     1       0.748  -2.154  -1.213  0.00  0.00    +0.018 A 
ATOM     19  C   UNL     1      -0.402  -1.353  -1.015  0.00  0.00    +0.011 A 
ATOM     20  C   UNL     1      -1.159  -0.990  -2.080  0.00  0.00    +0.001 A 
ATOM     21  C   UNL     1      -0.835  -1.387  -3.380  0.00  0.00    +0.002 A 
ATOM     22  C   UNL     1       0.250  -2.155  -3.644  0.00  0.00    +0.026 A 
ATOM     23  C   UNL     1       1.093  -2.575  -2.582  0.00  0.00    +0.045 A 
ATOM     24  N   UNL     1       2.188  -3.311  -2.576  0.00  0.00    -0.367 N 
ATOM     25  H   UNL     1       2.610  -3.701  -3.357  0.00  0.00    +0.161 HD
BRANCH  16  26
ATOM     26  C   UNL     1       2.677  -4.894  -0.788  0.00  0.00    +0.335 C 
ATOM     27  O   UNL     1       1.955  -5.684  -1.347  0.00  0.00    -0.248 OA
BRANCH  26  29
ATOM     28  C   UNL     1       3.448  -6.696   0.533  0.00  0.00    +0.280 C 
ATOM     29  O   UNL     1       3.489  -5.308   0.198  0.00  0.00    -0.466 OA
ENDBRANCH  26  29
ENDBRANCH  16  26
ENDBRANCH   1  17
TORSDOF 4
