REMARK  Name = ZINC44699482
REMARK  13 active torsions:
REMARK  status: ('A' for Active; 'I' for Inactive)
REMARK    1  A    between atoms: C_1  and  C_2
REMARK    2  A    between atoms: C_2  and  N_3
REMARK    3  A    between atoms: N_3  and  C_4
REMARK    4  A    between atoms: N_7  and  C_8
REMARK    5  A    between atoms: C_8  and  C_9
REMARK    6  A    between atoms: C_9  and  C_10
REMARK    7  A    between atoms: C_10  and  N_11
REMARK    8  A    between atoms: N_11  and  C_12
REMARK    9  A    between atoms: N_11  and  C_13
REMARK   10  A    between atoms: C_14  and  C_16
REMARK   11  A    between atoms: N_29  and  C_30
REMARK   12  A    between atoms: N_34  and  C_36
REMARK   13  A    between atoms: C_36  and  C_37
REMARK                            x       y       z     vdW  Elec       q    Type
REMARK                         _______ _______ _______ _____ _____    ______ ____
ROOT
ATOM      1  C   UNL     1       1.060  -0.576  -2.357  0.00  0.00    +0.060 C 
ATOM      2  C   UNL     1       0.096  -1.479  -1.583  0.00  0.00    +0.017 C 
ATOM      3  C   UNL     1      -1.333  -1.222  -2.071  0.00  0.00    +0.007 C 
ATOM      4  C   UNL     1      -2.284  -2.137  -1.361  0.00  0.00    -0.036 A 
ATOM      5  C   UNL     1      -2.927  -1.935  -0.182  0.00  0.00    +0.004 A 
ATOM      6  C   UNL     1      -3.779  -2.912   0.333  0.00  0.00    +0.002 A 
ATOM      7  C   UNL     1      -4.036  -4.128  -0.286  0.00  0.00    +0.026 A 
ATOM      8  C   UNL     1      -3.392  -4.365  -1.499  0.00  0.00    +0.049 A 
ATOM      9  C   UNL     1      -2.549  -3.359  -1.985  0.00  0.00    +0.006 A 
ATOM     10  C   UNL     1      -1.996  -3.802  -3.265  0.00  0.00    -0.023 A 
ATOM     11  C   UNL     1      -2.502  -5.008  -3.471  0.00  0.00    +0.090 A 
ATOM     12  N   UNL     1      -3.337  -5.364  -2.423  0.00  0.00    -0.349 N 
ATOM     13  C   UNL     1      -4.058  -6.636  -2.323  0.00  0.00    +0.149 C 
ATOM     14  C   UNL     1      -1.067  -2.877  -4.010  0.00  0.00    +0.022 C 
ATOM     15  C   UNL     1      -1.401  -1.460  -3.580  0.00  0.00    -0.056 C 
ATOM     16  N   UNL     1      -0.477  -0.549  -4.266  0.00  0.00    +0.385 N 
ATOM     17  C   UNL     1       0.903  -0.838  -3.857  0.00  0.00    -0.065 C 
ATOM     18  H   UNL     1      -0.705   0.404  -4.025  0.00  0.00    -0.081 HD
ENDROOT
BRANCH   1  24
ATOM     19  N   UNL     1       3.005   1.758   0.384  0.00  0.00    -0.288 N 
ATOM     20  C   UNL     1       2.295   2.485   1.439  0.00  0.00    +0.133 C 
ATOM     21  C   UNL     1       2.365   0.810  -0.330  0.00  0.00    +0.311 C 
ATOM     22  O   UNL     1       1.151   0.803  -0.378  0.00  0.00    -0.252 OA
ATOM     23  N   UNL     1       3.072  -0.129  -0.989  0.00  0.00    -0.226 N 
ATOM     24  C   UNL     1       2.477  -0.876  -1.940  0.00  0.00    +0.224 C 
ATOM     25  O   UNL     1       3.081  -1.790  -2.459  0.00  0.00    -0.275 OA
BRANCH  19  27
ATOM     26  C   UNL     1       5.275   1.602   1.281  0.00  0.00    +0.024 C 
ATOM     27  C   UNL     1       4.411   2.060   0.104  0.00  0.00    +0.105 C 
ENDBRANCH  19  27
BRANCH  23  28
ATOM     28  C   UNL     1       4.487  -0.337  -0.673  0.00  0.00    +0.116 C 
BRANCH  28  29
ATOM     29  C   UNL     1       4.675  -1.730  -0.069  0.00  0.00    +0.001 C 
BRANCH  29  30
ATOM     30  C   UNL     1       6.169  -2.014   0.103  0.00  0.00    -0.078 C 
BRANCH  30  31
ATOM     31  N   UNL     1       6.349  -3.352   0.684  0.00  0.00    +0.376 N 
ATOM     32  C   UNL     1       5.867  -4.366  -0.264  0.00  0.00    -0.097 C 
ATOM     33  C   UNL     1       7.774  -3.578   0.960  0.00  0.00    -0.097 C 
ATOM     34  H   UNL     1       5.825  -3.419   1.543  0.00  0.00    -0.083 HD
ENDBRANCH  30  31
ENDBRANCH  29  30
ENDBRANCH  28  29
ENDBRANCH  23  28
ENDBRANCH   1  24
BRANCH  16  35
ATOM     35  C   UNL     1      -0.603  -0.728  -5.718  0.00  0.00    -0.051 C 
BRANCH  35  36
ATOM     36  C   UNL     1       0.253   0.291  -6.426  0.00  0.00    -0.053 C 
ATOM     37  C   UNL     1       1.150  -0.099  -7.297  0.00  0.00    +0.002 C 
ENDBRANCH  35  36
ENDBRANCH  16  35
TORSDOF 8
