REMARK  Name = ZINC49529208
REMARK  6 active torsions:
REMARK  status: ('A' for Active; 'I' for Inactive)
REMARK    1  A    between atoms: C_1  and  C_2
REMARK    2  A    between atoms: C_2  and  C_3
REMARK    3  A    between atoms: C_3  and  C_5
REMARK    4  A    between atoms: C_3  and  N_10
REMARK    5  A    between atoms: N_10  and  C_11
REMARK    6  A    between atoms: C_16  and  N_17
REMARK                            x       y       z     vdW  Elec       q    Type
REMARK                         _______ _______ _______ _____ _____    ______ ____
ROOT
ATOM      1  C   UNL     1       2.296   1.286  -1.679  0.00  0.00    +0.050 A 
ATOM      2  C   UNL     1       1.283   2.157  -2.047  0.00  0.00    +0.048 A 
ATOM      3  C   UNL     1       1.587   3.466  -2.393  0.00  0.00    +0.038 A 
ATOM      4  C   UNL     1       2.904   3.904  -2.370  0.00  0.00    -0.024 A 
ATOM      5  C   UNL     1       3.917   3.037  -2.004  0.00  0.00    +0.030 A 
ATOM      6  C   UNL     1       3.618   1.729  -1.652  0.00  0.00    +0.046 A 
ATOM      7  C   UNL     1       3.228   5.327  -2.745  0.00  0.00    +0.046 C 
ATOM      8  C   UNL     1       2.266   5.800  -3.836  0.00  0.00    +0.101 C 
ATOM      9  C   UNL     1       0.850   5.474  -3.445  0.00  0.00    +0.218 C 
ATOM     10  O   UNL     1      -0.045   6.235  -3.748  0.00  0.00    -0.275 OA
ATOM     11  N   UNL     1       0.565   4.349  -2.765  0.00  0.00    -0.285 N 
ATOM     12  H   UNL     1      -0.355   4.148  -2.530  0.00  0.00    +0.155 HD
ENDROOT
BRANCH   6  13
ATOM     13  N   UNL     1       4.645   0.852  -1.275  0.00  0.00    -0.357 N 
ATOM     14  H   UNL     1       4.436  -0.064  -1.032  0.00  0.00    +0.142 HD
ATOM     15  H   UNL     1       5.564   1.161  -1.256  0.00  0.00    +0.142 HD
ENDBRANCH   6  13
BRANCH   1  16
ATOM     16  N   UNL     1       1.992  -0.035  -1.328  0.00  0.00    -0.335 N 
ATOM     17  H   UNL     1       2.707  -0.666  -1.148  0.00  0.00    +0.147 HD
BRANCH  16  18
ATOM     18  C   UNL     1       0.595  -0.466  -1.234  0.00  0.00    +0.107 C 
BRANCH  18  19
ATOM     19  C   UNL     1       0.108  -0.891  -2.595  0.00  0.00    +0.010 A 
ATOM     20  C   UNL     1      -1.093  -0.665  -3.181  0.00  0.00    +0.013 A 
ATOM     21  C   UNL     1      -1.322  -1.155  -4.453  0.00  0.00    +0.008 A 
ATOM     22  C   UNL     1      -0.338  -1.848  -5.077  0.00  0.00    +0.045 A 
ATOM     23  S   UNL     1       0.965  -1.817  -3.858  0.00  0.00    -0.100 S 
ENDBRANCH  18  19
BRANCH  18  25
ATOM     24  C   UNL     1       0.858  -1.177   1.146  0.00  0.00    +0.006 C 
ATOM     25  C   UNL     1       0.488  -1.643  -0.263  0.00  0.00    +0.024 C 
ENDBRANCH  18  25
ENDBRANCH  16  18
ENDBRANCH   1  16
TORSDOF 5
