REMARK  Name = ZINC21197369
REMARK  14 active torsions:
REMARK  status: ('A' for Active; 'I' for Inactive)
REMARK    1  A    between atoms: C_1  and  C_2
REMARK    2  A    between atoms: C_2  and  C_3
REMARK    3  A    between atoms: C_6  and  N_9
REMARK    4  A    between atoms: C_11  and  C_16
REMARK    5  A    between atoms: N_18  and  C_19
REMARK    6  A    between atoms: N_18  and  C_23
REMARK    7  A    between atoms: C_19  and  C_20
REMARK    8  A    between atoms: C_20  and  C_21
REMARK    9  A    between atoms: C_20  and  C_22
REMARK   10  A    between atoms: C_24  and  N_36
REMARK   11  A    between atoms: N_25  and  C_32
REMARK   12  A    between atoms: C_32  and  C_33
REMARK   13  A    between atoms: C_33  and  C_34
REMARK   14  A    between atoms: C_33  and  C_35
REMARK                            x       y       z     vdW  Elec       q    Type
REMARK                         _______ _______ _______ _____ _____    ______ ____
ROOT
ATOM      1  C   UNL     1      -1.228   8.815  -0.495  0.00  0.00    +0.225 C 
ATOM      2  O   UNL     1      -2.020   8.409  -1.320  0.00  0.00    -0.275 OA
ATOM      3  N   UNL     1      -1.146  10.136  -0.232  0.00  0.00    -0.264 N 
ENDROOT
BRANCH   3   4
ATOM      4  C   UNL     1      -2.051  11.034  -0.837  0.00  0.00    +0.140 A 
ATOM      5  C   UNL     1      -1.599  12.019  -1.690  0.00  0.00    +0.127 A 
ATOM      6  N   UNL     1      -2.506  12.877  -2.267  0.00  0.00    -0.280 N 
ATOM      7  C   UNL     1      -3.819  12.762  -1.996  0.00  0.00    +0.331 A 
ATOM      8  O   UNL     1      -4.604  13.533  -2.513  0.00  0.00    -0.246 OA
ATOM      9  N   UNL     1      -4.278  11.811  -1.163  0.00  0.00    -0.273 N 
ATOM     10  H   UNL     1      -5.355  11.735  -0.956  0.00  0.00    +0.173 HD
ATOM     11  C   UNL     1      -3.432  10.943  -0.575  0.00  0.00    +0.277 A 
ATOM     12  O   UNL     1      -3.858  10.085   0.178  0.00  0.00    -0.266 OA
BRANCH   5  13
ATOM     13  N   UNL     1      -0.257  12.140  -1.963  0.00  0.00    -0.343 N 
ATOM     14  H   UNL     1       0.097  12.928  -2.644  0.00  0.00    +0.144 HD
ATOM     15  H   UNL     1       0.463  11.448  -1.500  0.00  0.00    +0.144 HD
ENDBRANCH   5  13
BRANCH   6  16
ATOM     16  C   UNL     1      -2.040  13.925  -3.179  0.00  0.00    +0.131 C 
BRANCH  16  17
ATOM     17  C   UNL     1      -1.726  15.192  -2.381  0.00  0.00    +0.003 C 
ATOM     18  C   UNL     1      -0.551  14.923  -1.438  0.00  0.00    +0.009 C 
ATOM     19  C   UNL     1      -1.358  16.323  -3.344  0.00  0.00    +0.009 C 
ENDBRANCH  16  17
ENDBRANCH   6  16
ENDBRANCH   3   4
BRANCH   1  22
ATOM     20  N   UNL     1       0.344   5.559  -0.012  0.00  0.00    -0.271 N 
ATOM     21  C   UNL     1      -0.858   6.396   0.080  0.00  0.00    +0.127 C 
ATOM     22  C   UNL     1      -0.337   7.845   0.236  0.00  0.00    +0.102 C 
ATOM     23  C   UNL     1       1.051   7.753  -0.438  0.00  0.00    +0.110 C 
ATOM     24  C   UNL     1       1.429   6.293  -0.311  0.00  0.00    +0.221 C 
ATOM     25  O   UNL     1       2.549   5.851  -0.458  0.00  0.00    -0.275 OA
BRANCH  20  29
ATOM     26  C   UNL     1       0.384   1.433   0.563  0.00  0.00    -0.048 A 
ATOM     27  C   UNL     1      -0.779   2.149   0.782  0.00  0.00    +0.005 A 
ATOM     28  C   UNL     1      -0.794   3.518   0.597  0.00  0.00    +0.024 A 
ATOM     29  C   UNL     1       0.357   4.173   0.181  0.00  0.00    +0.036 A 
ATOM     30  C   UNL     1       1.522   3.450  -0.043  0.00  0.00    +0.024 A 
ATOM     31  C   UNL     1       1.532   2.083   0.148  0.00  0.00    +0.005 A 
BRANCH  26  33
ATOM     32  C   UNL     1       0.790  -0.369   2.218  0.00  0.00    +0.009 C 
ATOM     33  C   UNL     1       0.398  -0.060   0.771  0.00  0.00    +0.032 C 
ENDBRANCH  26  33
ENDBRANCH  20  29
ENDBRANCH   1  22
BRANCH   3  34
ATOM     34  C   UNL     1      -0.117  10.639   0.681  0.00  0.00    +0.117 C 
BRANCH  34  35
ATOM     35  C   UNL     1      -0.662  10.645   2.111  0.00  0.00    +0.001 C 
ATOM     36  C   UNL     1       0.460  11.017   3.083  0.00  0.00    +0.009 C 
ATOM     37  C   UNL     1      -1.793  11.668   2.221  0.00  0.00    +0.009 C 
ENDBRANCH  34  35
ENDBRANCH   3  34
TORSDOF 9
