REMARK  Name = ZINC02363662
REMARK  9 active torsions:
REMARK  status: ('A' for Active; 'I' for Inactive)
REMARK    1  A    between atoms: C_1  and  C_2
REMARK    2  A    between atoms: C_2  and  C_3
REMARK    3  A    between atoms: C_2  and  O_4
REMARK    4  A    between atoms: O_4  and  C_5
REMARK    5  A    between atoms: C_8  and  C_11
REMARK    6  A    between atoms: C_14  and  O_32
REMARK    7  A    between atoms: N_16  and  C_23
REMARK    8  A    between atoms: C_28  and  C_30
REMARK    9  A    between atoms: C_28  and  C_31
REMARK                            x       y       z     vdW  Elec       q    Type
REMARK                         _______ _______ _______ _____ _____    ______ ____
ROOT
ATOM      1  C   UNL     1      -2.167  -5.641  -2.132  0.00  0.00    +0.115 C 
ATOM      2  C   UNL     1      -2.715  -6.527  -1.058  0.00  0.00    +0.072 A 
ATOM      3  C   UNL     1      -2.483  -6.272   0.315  0.00  0.00    +0.238 A 
ATOM      4  N   UNL     1      -3.077  -7.197   1.018  0.00  0.00    -0.131 NA
ATOM      5  N   UNL     1      -3.708  -8.074   0.136  0.00  0.00    -0.243 N 
ATOM      6  C   UNL     1      -3.469  -7.643  -1.148  0.00  0.00    +0.132 A 
ATOM      7  N   UNL     1      -3.968  -8.328  -2.230  0.00  0.00    -0.270 N 
ATOM      8  C   UNL     1      -3.954  -8.147  -3.517  0.00  0.00    +0.228 C 
ATOM      9  O   UNL     1      -4.614  -8.942  -4.151  0.00  0.00    -0.275 OA
ATOM     10  C   UNL     1      -3.260  -7.127  -4.331  0.00  0.00    +0.166 C 
ATOM     11  S   UNL     1      -3.250  -5.503  -3.556  0.00  0.00    -0.138 S 
ATOM     12  H   UNL     1      -4.441  -9.135  -1.974  0.00  0.00    +0.156 HD
ENDROOT
BRANCH   5  13
ATOM     13  C   UNL     1      -4.491  -9.254   0.513  0.00  0.00    +0.114 C 
ATOM     14  C   UNL     1      -3.608 -10.224   1.303  0.00  0.00    +0.055 C 
ATOM     15  C   UNL     1      -4.455 -11.415   1.760  0.00  0.00    +0.162 C 
ATOM     16  O   UNL     1      -5.552 -10.945   2.545  0.00  0.00    -0.374 OA
ATOM     17  C   UNL     1      -6.439 -10.071   1.843  0.00  0.00    +0.066 C 
ATOM     18  C   UNL     1      -5.673  -8.825   1.388  0.00  0.00    +0.061 C 
ATOM     19  C   UNL     1      -7.007 -10.794   0.620  0.00  0.00    +0.041 C 
ATOM     20  C   UNL     1      -7.584  -9.656   2.768  0.00  0.00    +0.041 C 
ENDBRANCH   5  13
BRANCH   1  24
ATOM     21  C   UNL     1      -1.538  -1.739  -0.505  0.00  0.00    +0.121 A 
ATOM     22  C   UNL     1      -0.465  -2.468  -0.997  0.00  0.00    +0.046 A 
ATOM     23  C   UNL     1      -0.671  -3.729  -1.522  0.00  0.00    +0.008 A 
ATOM     24  C   UNL     1      -1.945  -4.265  -1.558  0.00  0.00    -0.030 A 
ATOM     25  C   UNL     1      -3.017  -3.540  -1.070  0.00  0.00    +0.008 A 
ATOM     26  C   UNL     1      -2.815  -2.281  -0.538  0.00  0.00    +0.046 A 
BRANCH  21  27
ATOM     27  O   UNL     1      -1.339  -0.499   0.012  0.00  0.00    -0.489 OA
BRANCH  27  29
ATOM     28  C   UNL     1      -1.982   1.168   1.640  0.00  0.00    +0.051 C 
ATOM     29  C   UNL     1      -2.466   0.143   0.612  0.00  0.00    +0.167 C 
ATOM     30  C   UNL     1      -3.283   0.853  -0.469  0.00  0.00    +0.051 C 
ENDBRANCH  27  29
ENDBRANCH  21  27
ENDBRANCH   1  24
BRANCH   3  31
ATOM     31  O   UNL     1      -1.761  -5.236   0.818  0.00  0.00    -0.491 OA
ATOM     32  H   UNL     1      -2.283  -4.442   0.995  0.00  0.00    +0.294 HD
ENDBRANCH   3  31
TORSDOF 5
