REMARK  Name = ZINC39664715
REMARK  11 active torsions:
REMARK  status: ('A' for Active; 'I' for Inactive)
REMARK    1  A    between atoms: C_1  and  C_2
REMARK    2  A    between atoms: C_2  and  O_3
REMARK    3  A    between atoms: O_3  and  C_4
REMARK    4  A    between atoms: C_9  and  C_10
REMARK    5  A    between atoms: C_14  and  C_23
REMARK    6  A    between atoms: N_25  and  C_26
REMARK    7  A    between atoms: C_26  and  C_28
REMARK    8  A    between atoms: C_26  and  C_32
REMARK    9  A    between atoms: C_28  and  N_29
REMARK   10  A    between atoms: N_29  and  C_30
REMARK   11  A    between atoms: N_29  and  C_31
REMARK                            x       y       z     vdW  Elec       q    Type
REMARK                         _______ _______ _______ _____ _____    ______ ____
ROOT
ATOM      1  C   UNL     1      -3.874  -1.382   1.304  0.00  0.00    +0.250 C 
ATOM      2  O   UNL     1      -3.735  -0.262   1.756  0.00  0.00    -0.270 OA
ATOM      3  N   UNL     1      -5.111  -1.885   1.122  0.00  0.00    -0.296 N 
ATOM      4  C   UNL     1      -5.479  -3.253   0.685  0.00  0.00    +0.121 C 
ATOM      5  C   UNL     1      -6.714  -3.616   1.540  0.00  0.00    +0.100 C 
ATOM      6  C   UNL     1      -7.322  -2.263   1.948  0.00  0.00    -0.004 C 
ATOM      7  C   UNL     1      -6.410  -1.199   1.319  0.00  0.00    +0.115 C 
ATOM      8  C   UNL     1      -7.321  -2.119   3.466  0.00  0.00    -0.010 C 
ATOM      9  C   UNL     1      -7.981  -0.792   3.849  0.00  0.00    -0.082 C 
ATOM     10  N   UNL     1      -9.356  -0.761   3.335  0.00  0.00    +0.379 N 
ATOM     11  C   UNL     1      -9.343  -0.806   1.868  0.00  0.00    -0.082 C 
ATOM     12  C   UNL     1      -8.740  -2.134   1.401  0.00  0.00    -0.010 C 
ATOM     13  H   UNL     1      -9.864  -1.556   3.690  0.00  0.00    -0.086 HD
ATOM     14  H   UNL     1      -9.808   0.088   3.640  0.00  0.00    -0.086 HD
ENDROOT
BRANCH   1  20
ATOM     15  C   UNL     1      -1.552  -2.161   1.773  0.00  0.00    +0.133 A 
ATOM     16  C   UNL     1      -0.446  -2.929   1.438  0.00  0.00    +0.046 A 
ATOM     17  C   UNL     1      -0.466  -3.712   0.302  0.00  0.00    +0.004 A 
ATOM     18  C   UNL     1      -1.587  -3.738  -0.512  0.00  0.00    +0.001 A 
ATOM     19  C   UNL     1      -2.694  -2.982  -0.195  0.00  0.00    +0.017 A 
ATOM     20  C   UNL     1      -2.690  -2.189   0.955  0.00  0.00    +0.078 A 
BRANCH  15  21
ATOM     21  O   UNL     1      -1.534  -1.391   2.889  0.00  0.00    -0.491 OA
BRANCH  21  23
ATOM     22  C   UNL     1      -0.506  -0.489   4.882  0.00  0.00    +0.048 C 
ATOM     23  C   UNL     1      -0.340  -1.413   3.673  0.00  0.00    +0.226 C 
ENDBRANCH  21  23
ENDBRANCH  15  21
ENDBRANCH   1  20
BRANCH   5  24
ATOM     24  C   UNL     1      -7.701  -4.413   0.726  0.00  0.00    +0.219 C 
ATOM     25  O   UNL     1      -7.739  -4.279  -0.479  0.00  0.00    -0.275 OA
ATOM     26  N   UNL     1      -8.540  -5.273   1.336  0.00  0.00    -0.310 N 
ATOM     27  H   UNL     1      -8.465  -5.428   2.291  0.00  0.00    +0.149 HD
BRANCH  26  28
ATOM     28  C   UNL     1      -9.564  -5.973   0.558  0.00  0.00    +0.087 C 
BRANCH  28  29
ATOM     29  C   UNL     1     -10.885  -5.893   1.279  0.00  0.00    -0.029 A 
ATOM     30  C   UNL     1     -10.931  -6.022   2.654  0.00  0.00    +0.005 A 
ATOM     31  C   UNL     1     -12.142  -5.948   3.316  0.00  0.00    +0.000 A 
ATOM     32  C   UNL     1     -13.308  -5.745   2.602  0.00  0.00    +0.000 A 
ATOM     33  C   UNL     1     -13.263  -5.616   1.226  0.00  0.00    +0.000 A 
ATOM     34  C   UNL     1     -12.051  -5.685   0.565  0.00  0.00    +0.005 A 
ENDBRANCH  28  29
BRANCH  28  35
ATOM     35  C   UNL     1      -9.163  -7.440   0.390  0.00  0.00    -0.052 C 
BRANCH  35  36
ATOM     36  N   UNL     1      -7.833  -7.516  -0.229  0.00  0.00    +0.377 N 
ATOM     37  C   UNL     1      -7.383  -8.915  -0.253  0.00  0.00    -0.097 C 
ATOM     38  C   UNL     1      -7.901  -7.000  -1.603  0.00  0.00    -0.097 C 
ATOM     39  H   UNL     1      -7.181  -6.963   0.306  0.00  0.00    -0.083 HD
ENDBRANCH  35  36
ENDBRANCH  28  35
ENDBRANCH  26  28
ENDBRANCH   5  24
TORSDOF 8
