REMARK  Name = ZINC08453923
REMARK  15 active torsions:
REMARK  status: ('A' for Active; 'I' for Inactive)
REMARK    1  A    between atoms: C_1  and  C_2
REMARK    2  A    between atoms: C_2  and  O_3
REMARK    3  A    between atoms: O_3  and  C_4
REMARK    4  A    between atoms: C_4  and  C_6
REMARK    5  A    between atoms: C_10  and  N_11
REMARK    6  A    between atoms: C_15  and  C_16
REMARK    7  A    between atoms: C_16  and  N_66
REMARK    8  A    between atoms: C_17  and  C_18
REMARK    9  A    between atoms: C_17  and  N_66
REMARK   10  A    between atoms: C_20  and  S_28
REMARK   11  A    between atoms: C_21  and  C_24
REMARK   12  A    between atoms: C_24  and  N_69
REMARK   13  A    between atoms: C_25  and  C_26
REMARK   14  A    between atoms: C_25  and  N_69
REMARK   15  A    between atoms: S_28  and  C_29
REMARK                            x       y       z     vdW  Elec       q    Type
REMARK                         _______ _______ _______ _____ _____    ______ ____
ROOT
ATOM      1  C   UNL     1      -4.104   8.835   0.309  0.00  0.00    +0.094 A 
ATOM      2  C   UNL     1      -3.733   7.492   0.423  0.00  0.00    -0.016 A 
ATOM      3  C   UNL     1      -2.411   7.219   0.170  0.00  0.00    +0.032 A 
ATOM      4  S   UNL     1      -1.698   8.790  -0.194  0.00  0.00    -0.069 S 
ATOM      5  C   UNL     1      -3.124   9.767  -0.029  0.00  0.00    +0.099 A 
ATOM      6  C   UNL     1      -1.830   5.880   0.217  0.00  0.00    +0.024 C 
ATOM      7  C   UNL     1      -2.695   4.847   0.207  0.00  0.00    -0.071 C 
ATOM      8  C   UNL     1      -4.176   5.069   0.104  0.00  0.00    +0.034 C 
ATOM      9  C   UNL     1      -4.645   6.336   0.812  0.00  0.00    +0.041 C 
ENDROOT
BRANCH   5  10
ATOM     10  N   UNL     1      -3.256  11.140  -0.192  0.00  0.00    -0.316 N 
ATOM     11  C   UNL     1      -4.414  11.853  -0.046  0.00  0.00    +0.092 A 
ATOM     12  C   UNL     1      -4.141  13.151  -0.285  0.00  0.00    +0.020 A 
ATOM     13  C   UNL     1      -2.767  13.247  -0.590  0.00  0.00    +0.021 A 
ATOM     14  C   UNL     1      -2.249  12.004  -0.520  0.00  0.00    +0.007 A 
BRANCH  14  15
ATOM     15  C   UNL     1      -0.810  11.632  -0.766  0.00  0.00    -0.027 C 
BRANCH  15  16
ATOM     16  N   UNL     1      -0.096  11.584   0.524  0.00  0.00    +0.385 N 
ATOM     17  H   UNL     1      -0.539  10.883   1.130  0.00  0.00    -0.085 HD
ATOM     18  H   UNL     1      -0.146  12.505   0.973  0.00  0.00    -0.085 HD
BRANCH  16  19
ATOM     19  C   UNL     1       1.318  11.221   0.313  0.00  0.00    -0.055 C 
BRANCH  19  20
ATOM     20  C   UNL     1       2.021  11.179   1.646  0.00  0.00    -0.054 C 
ATOM     21  C   UNL     1       2.663  10.098   2.014  0.00  0.00    +0.002 C 
ENDBRANCH  19  20
ENDBRANCH  16  19
ENDBRANCH  15  16
ENDBRANCH  14  15
ENDBRANCH   5  10
BRANCH   1  22
ATOM     22  C   UNL     1      -5.491   9.253   0.539  0.00  0.00    +0.342 C 
ATOM     23  O   UNL     1      -5.853   9.572   1.655  0.00  0.00    -0.245 OA
BRANCH  22  24
ATOM     24  O   UNL     1      -6.365   9.283  -0.488  0.00  0.00    -0.461 OA
BRANCH  24  26
ATOM     25  C   UNL     1      -8.560   9.678  -1.467  0.00  0.00    +0.048 C 
ATOM     26  C   UNL     1      -7.721   9.707  -0.187  0.00  0.00    +0.229 C 
ENDBRANCH  24  26
ENDBRANCH  22  24
ENDBRANCH   1  22
BRANCH   7  27
ATOM     27  C   UNL     1      -2.166   3.439   0.305  0.00  0.00    -0.050 C 
BRANCH  27  28
ATOM     28  N   UNL     1      -2.193   3.010   1.717  0.00  0.00    +0.384 N 
ATOM     29  H   UNL     1      -3.143   3.128   2.088  0.00  0.00    -0.085 HD
ATOM     30  H   UNL     1      -1.540   3.588   2.259  0.00  0.00    -0.085 HD
BRANCH  28  31
ATOM     31  C   UNL     1      -1.797   1.594   1.829  0.00  0.00    -0.055 C 
BRANCH  31  32
ATOM     32  C   UNL     1      -1.957   1.149   3.260  0.00  0.00    -0.054 C 
ATOM     33  C   UNL     1      -2.692   0.102   3.542  0.00  0.00    +0.002 C 
ENDBRANCH  31  32
ENDBRANCH  28  31
ENDBRANCH  27  28
ENDBRANCH   7  27
BRANCH   6  34
ATOM     34  S   UNL     1      -0.087   5.628   0.278  0.00  0.00    -0.088 S 
BRANCH  34  35
ATOM     35  C   UNL     1       0.382   6.267   1.851  0.00  0.00    +0.013 A 
ATOM     36  C   UNL     1       1.725   6.350   2.197  0.00  0.00    +0.015 A 
ATOM     37  C   UNL     1       2.089   6.852   3.431  0.00  0.00    +0.001 A 
ATOM     38  C   UNL     1       1.118   7.272   4.322  0.00  0.00    +0.000 A 
ATOM     39  C   UNL     1      -0.220   7.185   3.983  0.00  0.00    +0.001 A 
ATOM     40  C   UNL     1      -0.591   6.689   2.749  0.00  0.00    +0.015 A 
ENDBRANCH  34  35
ENDBRANCH   6  34
TORSDOF 14
