REMARK  Name = ZINC09103611
REMARK  13 active torsions:
REMARK  status: ('A' for Active; 'I' for Inactive)
REMARK    1  A    between atoms: C_1  and  C_2
REMARK    2  A    between atoms: C_2  and  C_4
REMARK    3  A    between atoms: C_2  and  N_56
REMARK    4  A    between atoms: C_7  and  S_16
REMARK    5  A    between atoms: N_8  and  C_9
REMARK    6  A    between atoms: S_16  and  C_17
REMARK    7  A    between atoms: C_17  and  C_18
REMARK    8  A    between atoms: N_20  and  C_21
REMARK    9  A    between atoms: C_24  and  O_30
REMARK   10  A    between atoms: C_26  and  N_27
REMARK   11  A    between atoms: O_30  and  C_31
REMARK   12  A    between atoms: C_32  and  N_56
REMARK   13  A    between atoms: C_33  and  N_56
REMARK                            x       y       z     vdW  Elec       q    Type
REMARK                         _______ _______ _______ _____ _____    ______ ____
ROOT
ATOM      1  C   UNL     1      -8.284   2.473  -0.734  0.00  0.00    +0.125 A 
ATOM      2  N   UNL     1      -7.455   3.471  -0.612  0.00  0.00    -0.135 NA
ATOM      3  N   UNL     1      -6.251   3.035  -0.502  0.00  0.00    -0.122 NA
ATOM      4  C   UNL     1      -6.244   1.722  -0.547  0.00  0.00    +0.197 A 
ATOM      5  N   UNL     1      -7.543   1.321  -0.703  0.00  0.00    -0.275 N 
ENDROOT
BRANCH   5   6
ATOM      6  C   UNL     1      -8.017   0.005  -0.805  0.00  0.00    +0.050 A 
ATOM      7  C   UNL     1      -8.615  -0.429  -1.980  0.00  0.00    +0.028 A 
ATOM      8  C   UNL     1      -9.077  -1.727  -2.080  0.00  0.00    +0.022 A 
ATOM      9  C   UNL     1      -8.953  -2.591  -1.006  0.00  0.00    +0.041 A 
ATOM     10  C   UNL     1      -8.362  -2.159   0.168  0.00  0.00    +0.022 A 
ATOM     11  C   UNL     1      -7.894  -0.864   0.271  0.00  0.00    +0.028 A 
ATOM     12 CL   UNL     1      -9.540  -4.220  -1.133  0.00  0.00    -0.084 Cl
ENDBRANCH   5   6
BRANCH   1  14
ATOM     13  C   UNL     1     -10.120   3.022  -2.308  0.00  0.00    -0.005 C 
ATOM     14  C   UNL     1      -9.780   2.568  -0.887  0.00  0.00    -0.003 C 
BRANCH  14  17
ATOM     15  C   UNL     1     -11.768   3.662  -0.043  0.00  0.00    -0.096 C 
ATOM     16  C   UNL     1      -9.921   3.189   1.449  0.00  0.00    -0.096 C 
ATOM     17  N   UNL     1     -10.298   3.568   0.071  0.00  0.00    +0.382 N 
ATOM     18  H   UNL     1      -9.887   4.483  -0.147  0.00  0.00    -0.082 HD
ENDBRANCH  14  17
ENDBRANCH   1  14
BRANCH   4  19
ATOM     19  S   UNL     1      -4.830   0.677  -0.437  0.00  0.00    -0.076 S 
BRANCH  19  20
ATOM     20  C   UNL     1      -3.531   1.924  -0.258  0.00  0.00    +0.173 C 
BRANCH  20  21
ATOM     21  C   UNL     1      -2.192   1.241  -0.143  0.00  0.00    +0.228 C 
ATOM     22  O   UNL     1      -2.124   0.030  -0.178  0.00  0.00    -0.275 OA
ATOM     23  N   UNL     1      -1.071   1.975   0.000  0.00  0.00    -0.283 N 
ATOM     24  H   UNL     1      -1.132   2.937   0.111  0.00  0.00    +0.155 HD
BRANCH  23  25
ATOM     25  C   UNL     1       0.182   1.350  -0.011  0.00  0.00    +0.064 A 
ATOM     26  C   UNL     1       0.347   0.135  -0.663  0.00  0.00    +0.029 A 
ATOM     27  C   UNL     1       1.584  -0.478  -0.679  0.00  0.00    +0.047 A 
ATOM     28  C   UNL     1       2.662   0.119  -0.042  0.00  0.00    +0.122 A 
ATOM     29  C   UNL     1       2.499   1.332   0.610  0.00  0.00    +0.080 A 
ATOM     30  C   UNL     1       1.262   1.946   0.626  0.00  0.00    +0.151 A 
BRANCH  30  31
ATOM     31  N   UNL     1       1.088   3.241   1.322  0.00  0.00    +0.058 N 
ATOM     32  O   UNL     1       2.053   3.812   1.796  0.00  0.00    -0.126 OA
ATOM     33  O   UNL     1      -0.021   3.735   1.421  0.00  0.00    -0.126 OA
ENDBRANCH  30  31
BRANCH  28  34
ATOM     34  O   UNL     1       3.880  -0.486  -0.058  0.00  0.00    -0.495 OA
ATOM     35  C   UNL     1       3.977  -1.733  -0.749  0.00  0.00    +0.277 C 
ENDBRANCH  28  34
ENDBRANCH  23  25
ENDBRANCH  20  21
ENDBRANCH  19  20
ENDBRANCH   4  19
TORSDOF 9
