REMARK  Name = ZINC09409633
REMARK  8 active torsions:
REMARK  status: ('A' for Active; 'I' for Inactive)
REMARK    1  A    between atoms: C_1  and  C_2
REMARK    2  A    between atoms: C_2  and  C_4
REMARK    3  A    between atoms: C_4  and  O_5
REMARK    4  A    between atoms: O_5  and  C_6
REMARK    5  A    between atoms: C_9  and  C_13
REMARK    6  A    between atoms: C_10  and  O_12
REMARK    7  A    between atoms: C_14  and  C_24
REMARK    8  A    between atoms: C_15  and  C_20
REMARK                            x       y       z     vdW  Elec       q    Type
REMARK                         _______ _______ _______ _____ _____    ______ ____
ROOT
ATOM      1  C   UNL     1       1.159  -0.657  -0.184  0.00  0.00    +0.088 A 
ATOM      2  C   UNL     1       2.361   0.063  -0.024  0.00  0.00    +0.038 A 
ATOM      3  C   UNL     1       2.282   1.444   0.155  0.00  0.00    +0.157 A 
ATOM      4  N   UNL     1       1.095   2.026   0.167  0.00  0.00    -0.210 NA
ATOM      5  C   UNL     1      -0.016   1.319   0.013  0.00  0.00    +0.214 A 
ATOM      6  N   UNL     1       0.006   0.007  -0.160  0.00  0.00    -0.214 NA
ATOM      7  N   UNL     1      -1.235   1.974   0.027  0.00  0.00    -0.327 N 
ATOM      8  H   UNL     1      -2.057   1.471  -0.089  0.00  0.00    +0.145 HD
ATOM      9  H   UNL     1      -1.268   2.935   0.152  0.00  0.00    +0.145 HD
ENDROOT
BRANCH   2  10
ATOM     10  C   UNL     1       3.671  -0.629  -0.043  0.00  0.00    -0.014 A 
ATOM     11  C   UNL     1       4.023  -1.489   0.996  0.00  0.00    +0.010 A 
ATOM     12  C   UNL     1       5.242  -2.135   0.970  0.00  0.00    +0.016 A 
ATOM     13  C   UNL     1       6.120  -1.921  -0.079  0.00  0.00    +0.018 A 
ATOM     14  C   UNL     1       5.777  -1.063  -1.110  0.00  0.00    +0.016 A 
ATOM     15  C   UNL     1       4.559  -0.417  -1.097  0.00  0.00    +0.010 A 
ATOM     16 BR   UNL     1       7.792  -2.804  -0.104  0.00  0.00    -0.050 Br
ENDBRANCH   2  10
BRANCH   1  20
ATOM     17  C   UNL     1       1.222  -4.873  -0.737  0.00  0.00    +0.124 A 
ATOM     18  C   UNL     1       2.036  -4.057  -1.514  0.00  0.00    +0.046 A 
ATOM     19  C   UNL     1       2.018  -2.691  -1.338  0.00  0.00    +0.017 A 
ATOM     20  C   UNL     1       1.181  -2.123  -0.376  0.00  0.00    +0.043 A 
ATOM     21  C   UNL     1       0.365  -2.946   0.410  0.00  0.00    +0.129 A 
ATOM     22  C   UNL     1       0.387  -4.318   0.221  0.00  0.00    +0.091 A 
BRANCH  21  23
ATOM     23  O   UNL     1      -0.448  -2.401   1.351  0.00  0.00    -0.506 OA
ATOM     24  H   UNL     1      -1.330  -2.174   1.025  0.00  0.00    +0.292 HD
ENDBRANCH  21  23
BRANCH  17  25
ATOM     25  O   UNL     1       1.244  -6.219  -0.917  0.00  0.00    -0.488 OA
BRANCH  25  26
ATOM     26  C   UNL     1       2.127  -6.725  -1.920  0.00  0.00    +0.259 C 
BRANCH  26  28
ATOM     27  C   UNL     1       2.851  -9.008  -2.958  0.00  0.00    +0.042 C 
ATOM     28  C   UNL     1       2.017  -8.227  -1.975  0.00  0.00    -0.043 C 
ATOM     29  C   UNL     1       1.196  -8.854  -1.169  0.00  0.00    +0.011 C 
ENDBRANCH  26  28
ENDBRANCH  25  26
ENDBRANCH  17  25
ENDBRANCH   1  20
BRANCH   3  30
ATOM     30  C   UNL     1       3.535   2.263   0.332  0.00  0.00    +0.435 C 
ATOM     31  F   UNL     1       3.995   2.689  -0.919  0.00  0.00    -0.164 F 
ATOM     32  F   UNL     1       3.255   3.377   1.130  0.00  0.00    -0.164 F 
ATOM     33  F   UNL     1       4.519   1.483   0.949  0.00  0.00    -0.164 F 
ENDBRANCH   3  30
TORSDOF 7
