REMARK  Name = ZINC39550193
REMARK  7 active torsions:
REMARK  status: ('A' for Active; 'I' for Inactive)
REMARK    1  A    between atoms: C_1  and  C_2
REMARK    2  A    between atoms: C_2  and  C_3
REMARK    3  A    between atoms: C_3  and  N_4
REMARK    4  A    between atoms: C_11  and  O_33
REMARK    5  A    between atoms: C_13  and  C_17
REMARK    6  A    between atoms: N_19  and  C_20
REMARK    7  A    between atoms: C_22  and  O_32
REMARK                            x       y       z     vdW  Elec       q    Type
REMARK                         _______ _______ _______ _____ _____    ______ ____
ROOT
ATOM      1  C   UNL     1       2.463  -4.613   1.915  0.00  0.00    +0.229 C 
ATOM      2  O   UNL     1       1.842  -5.340   2.662  0.00  0.00    -0.275 OA
ATOM      3  N   UNL     1       3.717  -4.236   2.232  0.00  0.00    -0.297 N 
ATOM      4  H   UNL     1       4.214  -3.654   1.635  0.00  0.00    +0.150 HD
ENDROOT
BRANCH   3   5
ATOM      5  C   UNL     1       4.331  -4.704   3.477  0.00  0.00    +0.226 C 
ATOM      6  C   UNL     1       5.329  -3.655   3.928  0.00  0.00    +0.132 C 
ATOM      7  C   UNL     1       6.654  -4.066   4.087  0.00  0.00    +0.036 A 
ATOM      8  C   UNL     1       7.645  -3.154   4.504  0.00  0.00    +0.013 A 
ATOM      9  C   UNL     1       8.929  -3.580   4.652  0.00  0.00    +0.001 A 
ATOM     10  C   UNL     1       9.286  -4.901   4.400  0.00  0.00    +0.002 A 
ATOM     11  C   UNL     1       8.372  -5.827   3.995  0.00  0.00    +0.024 A 
ATOM     12  C   UNL     1       7.028  -5.457   3.821  0.00  0.00    +0.044 A 
ATOM     13  N   UNL     1       6.131  -6.369   3.424  0.00  0.00    -0.283 N 
ATOM     14  C   UNL     1       4.855  -6.102   3.239  0.00  0.00    +0.245 C 
ATOM     15  O   UNL     1       4.097  -6.982   2.875  0.00  0.00    -0.273 OA
ATOM     16  H   UNL     1       6.439  -7.275   3.263  0.00  0.00    +0.155 HD
BRANCH   6  17
ATOM     17  O   UNL     1       4.956  -2.392   4.162  0.00  0.00    -0.508 OA
ATOM     18  H   UNL     1       5.679  -1.815   4.444  0.00  0.00    +0.292 HD
ENDBRANCH   6  17
ENDBRANCH   3   5
BRANCH   1  27
ATOM     19  N   UNL     1       0.762  -1.976   1.234  0.00  0.00    -0.270 N 
ATOM     20  C   UNL     1      -0.277  -2.688   1.841  0.00  0.00    +0.042 A 
ATOM     21  C   UNL     1      -1.105  -2.063   2.765  0.00  0.00    +0.024 A 
ATOM     22  C   UNL     1      -2.128  -2.772   3.362  0.00  0.00    +0.002 A 
ATOM     23  C   UNL     1      -2.329  -4.102   3.041  0.00  0.00    +0.000 A 
ATOM     24  C   UNL     1      -1.506  -4.727   2.122  0.00  0.00    +0.008 A 
ATOM     25  C   UNL     1      -0.481  -4.023   1.522  0.00  0.00    +0.003 A 
ATOM     26  C   UNL     1       0.417  -4.700   0.520  0.00  0.00    +0.167 C 
ATOM     27  C   UNL     1       1.832  -4.131   0.635  0.00  0.00    +0.194 C 
ATOM     28  C   UNL     1       1.777  -2.627   0.636  0.00  0.00    +0.235 C 
ATOM     29  O   UNL     1       2.660  -1.994   0.096  0.00  0.00    -0.274 OA
BRANCH  26  30
ATOM     30  O   UNL     1      -0.083  -4.471  -0.799  0.00  0.00    -0.386 OA
ATOM     31  H   UNL     1      -0.977  -4.808  -0.945  0.00  0.00    +0.210 HD
ENDBRANCH  26  30
BRANCH  19  32
ATOM     32  C   UNL     1       0.742  -0.511   1.242  0.00  0.00    +0.113 C 
BRANCH  32  34
ATOM     33  C   UNL     1      -0.019   1.526   0.010  0.00  0.00    +0.005 C 
ATOM     34  C   UNL     1       0.002  -0.004   0.002  0.00  0.00    +0.016 C 
ENDBRANCH  32  34
ENDBRANCH  19  32
ENDBRANCH   1  27
TORSDOF 6
