REMARK  Name = ZINC14356052
REMARK  8 active torsions:
REMARK  status: ('A' for Active; 'I' for Inactive)
REMARK    1  A    between atoms: C_1  and  C_2
REMARK    2  A    between atoms: C_2  and  C_3
REMARK    3  A    between atoms: C_2  and  C_4
REMARK    4  A    between atoms: C_4  and  C_5
REMARK    5  A    between atoms: C_5  and  C_27
REMARK    6  A    between atoms: N_8  and  C_12
REMARK    7  A    between atoms: C_12  and  C_13
REMARK    8  A    between atoms: N_15  and  C_16
REMARK                            x       y       z     vdW  Elec       q    Type
REMARK                         _______ _______ _______ _____ _____    ______ ____
ROOT
ATOM      1  C   UNL     1      -0.198   1.754   2.366  0.00  0.00    +0.138 C 
ATOM      2  C   UNL     1       0.034   0.304   2.740  0.00  0.00    +0.251 C 
ATOM      3  O   UNL     1      -0.805  -0.558   2.886  0.00  0.00    -0.272 OA
ATOM      4  N   UNL     1       1.369   0.172   2.877  0.00  0.00    -0.215 N 
ATOM      5  C   UNL     1       2.005   1.325   2.643  0.00  0.00    +0.310 C 
ATOM      6  O   UNL     1       3.212   1.456   2.705  0.00  0.00    -0.252 OA
ATOM      7  N   UNL     1       1.160   2.325   2.331  0.00  0.00    -0.281 N 
ATOM      8  H   UNL     1       1.398   3.242   2.124  0.00  0.00    +0.152 HD
ENDROOT
BRANCH   1   9
ATOM      9  C   UNL     1      -1.040   2.443   3.409  0.00  0.00    -0.015 A 
ATOM     10  C   UNL     1      -2.413   2.502   3.260  0.00  0.00    +0.006 A 
ATOM     11  C   UNL     1      -3.185   3.130   4.220  0.00  0.00    +0.000 A 
ATOM     12  C   UNL     1      -2.584   3.707   5.322  0.00  0.00    +0.000 A 
ATOM     13  C   UNL     1      -1.210   3.652   5.468  0.00  0.00    +0.000 A 
ATOM     14  C   UNL     1      -0.438   3.020   4.511  0.00  0.00    +0.006 A 
ENDBRANCH   1   9
BRANCH   1  15
ATOM     15  C   UNL     1      -0.860   1.855   0.990  0.00  0.00    +0.043 C 
BRANCH  15  17
ATOM     16  C   UNL     1       1.302   1.925  -0.261  0.00  0.00    +0.007 C 
ATOM     17  C   UNL     1       0.008   1.138  -0.047  0.00  0.00    -0.014 C 
ATOM     18  C   UNL     1      -0.755   1.041  -1.370  0.00  0.00    +0.007 C 
ENDBRANCH  15  17
ENDBRANCH   1  15
BRANCH   4  19
ATOM     19  C   UNL     1       2.039  -1.080   3.236  0.00  0.00    +0.213 C 
BRANCH  19  20
ATOM     20  C   UNL     1       2.377  -1.847   1.983  0.00  0.00    +0.231 C 
ATOM     21  O   UNL     1       2.085  -1.392   0.897  0.00  0.00    -0.274 OA
ATOM     22  N   UNL     1       3.002  -3.037   2.070  0.00  0.00    -0.307 N 
ATOM     23  H   UNL     1       3.235  -3.401   2.938  0.00  0.00    +0.149 HD
BRANCH  22  24
ATOM     24  C   UNL     1       3.330  -3.783   0.852  0.00  0.00    +0.103 C 
ATOM     25  C   UNL     1       3.434  -5.270   1.184  0.00  0.00    +0.027 C 
ATOM     26  C   UNL     1       3.987  -6.002  -0.045  0.00  0.00    +0.007 C 
ATOM     27  C   UNL     1       5.452  -5.609  -0.220  0.00  0.00    +0.035 C 
ATOM     28  C   UNL     1       5.605  -4.111  -0.203  0.00  0.00    -0.042 A 
ATOM     29  C   UNL     1       4.632  -3.272   0.292  0.00  0.00    -0.024 A 
ATOM     30  C   UNL     1       4.839  -1.899   0.285  0.00  0.00    +0.006 A 
ATOM     31  C   UNL     1       6.009  -1.369  -0.218  0.00  0.00    +0.000 A 
ATOM     32  C   UNL     1       6.984  -2.210  -0.719  0.00  0.00    +0.000 A 
ATOM     33  C   UNL     1       6.782  -3.575  -0.711  0.00  0.00    +0.004 A 
ENDBRANCH  22  24
ENDBRANCH  19  20
ENDBRANCH   4  19
TORSDOF 6
