REMARK  Name = ZINC05684978
REMARK  4 active torsions:
REMARK  status: ('A' for Active; 'I' for Inactive)
REMARK    1  A    between atoms: C_4  and  C_7
REMARK    2  A    between atoms: C_10  and  C_26
REMARK    3  A    between atoms: C_11  and  N_25
REMARK    4  A    between atoms: C_14  and  C_19
REMARK                            x       y       z     vdW  Elec       q    Type
REMARK                         _______ _______ _______ _____ _____    ______ ____
ROOT
ATOM      1  C   UNL     1      -1.293  -0.775   0.011  0.00  0.00    +0.196 C 
ATOM      2  C   UNL     1      -1.325  -1.806  -1.117  0.00  0.00    +0.038 A 
ATOM      3  C   UNL     1      -1.008  -1.799  -2.568  0.00  0.00    +0.102 A 
ATOM      4  C   UNL     1      -1.260  -3.088  -3.004  0.00  0.00    +0.196 A 
ATOM      5  O   UNL     1      -1.680  -3.797  -1.957  0.00  0.00    -0.443 OA
ATOM      6  C   UNL     1      -1.721  -3.036  -0.825  0.00  0.00    +0.142 A 
ATOM      7  C   UNL     1      -2.114  -3.322   0.629  0.00  0.00    +0.227 C 
ATOM      8  S   UNL     1      -1.407  -1.860   1.494  0.00  0.00    -0.006 S 
ATOM      9  O   UNL     1      -0.099  -2.170   1.956  0.00  0.00    -0.172 OA
ATOM     10  O   UNL     1      -2.369  -1.331   2.396  0.00  0.00    -0.172 OA
ENDROOT
BRANCH   1  14
ATOM     11  C   UNL     1       2.377   1.411  -0.015  0.00  0.00    +0.000 A 
ATOM     12  C   UNL     1       1.171   2.086   0.002  0.00  0.00    +0.000 A 
ATOM     13  C   UNL     1      -0.017   1.378   0.010  0.00  0.00    +0.006 A 
ATOM     14  C   UNL     1       0.002  -0.004   0.002  0.00  0.00    -0.019 A 
ATOM     15  C   UNL     1       1.208  -0.679  -0.013  0.00  0.00    +0.006 A 
ATOM     16  C   UNL     1       2.396   0.029  -0.022  0.00  0.00    +0.000 A 
ENDBRANCH   1  14
BRANCH   7  17
ATOM     17  C   UNL     1      -3.613  -3.369   0.784  0.00  0.00    -0.016 A 
ATOM     18  C   UNL     1      -4.389  -2.323   0.322  0.00  0.00    +0.006 A 
ATOM     19  C   UNL     1      -5.763  -2.369   0.460  0.00  0.00    +0.000 A 
ATOM     20  C   UNL     1      -6.361  -3.456   1.069  0.00  0.00    +0.000 A 
ATOM     21  C   UNL     1      -5.585  -4.500   1.536  0.00  0.00    +0.000 A 
ATOM     22  C   UNL     1      -4.210  -4.457   1.394  0.00  0.00    +0.006 A 
ENDBRANCH   7  17
BRANCH   3  23
ATOM     23  C   UNL     1      -0.528  -0.669  -3.368  0.00  0.00    +0.247 C 
ATOM     24  O   UNL     1       0.667  -0.468  -3.483  0.00  0.00    -0.270 OA
ATOM     25  N   UNL     1      -1.411   0.149  -3.976  0.00  0.00    -0.325 N 
ATOM     26  H   UNL     1      -2.363  -0.012  -3.884  0.00  0.00    +0.145 HD
ATOM     27  H   UNL     1      -1.094   0.897  -4.505  0.00  0.00    +0.145 HD
ENDBRANCH   3  23
BRANCH   4  28
ATOM     28  N   UNL     1      -1.105  -3.554  -4.291  0.00  0.00    -0.329 N 
ATOM     29  H   UNL     1      -0.792  -2.957  -4.988  0.00  0.00    +0.145 HD
ATOM     30  H   UNL     1      -1.308  -4.479  -4.499  0.00  0.00    +0.145 HD
ENDBRANCH   4  28
TORSDOF 4
