REMARK  Name = ZINC36660315
REMARK  12 active torsions:
REMARK  status: ('A' for Active; 'I' for Inactive)
REMARK    1  A    between atoms: C_1  and  C_2
REMARK    2  A    between atoms: C_5  and  S_8
REMARK    3  A    between atoms: S_8  and  N_11
REMARK    4  A    between atoms: C_15  and  C_17
REMARK    5  A    between atoms: N_19  and  C_20
REMARK    6  A    between atoms: C_20  and  C_21
REMARK    7  A    between atoms: C_21  and  N_22
REMARK    8  A    between atoms: N_22  and  C_23
REMARK    9  A    between atoms: N_22  and  C_24
REMARK   10  A    between atoms: C_28  and  O_35
REMARK   11  A    between atoms: C_31  and  C_34
REMARK   12  A    between atoms: O_35  and  C_36
REMARK                            x       y       z     vdW  Elec       q    Type
REMARK                         _______ _______ _______ _____ _____    ______ ____
ROOT
ATOM      1  C   UNL     1       2.690  -4.149   1.809  0.00  0.00    +0.240 C 
ATOM      2  O   UNL     1       2.034  -3.147   1.618  0.00  0.00    -0.273 OA
ATOM      3  N   UNL     1       3.540  -4.208   2.854  0.00  0.00    -0.251 N 
ATOM      4  C   UNL     1       3.748  -3.088   3.643  0.00  0.00    +0.168 A 
ATOM      5  N   UNL     1       4.531  -2.951   4.687  0.00  0.00    -0.221 NA
ATOM      6  C   UNL     1       4.636  -1.788   5.368  0.00  0.00    +0.122 A 
ATOM      7  C   UNL     1       5.438  -1.508   6.503  0.00  0.00    +0.147 A 
ATOM      8  C   UNL     1       5.426  -0.259   7.079  0.00  0.00    +0.048 A 
ATOM      9  C   UNL     1       4.636   0.763   6.573  0.00  0.00    +0.008 A 
ATOM     10  C   UNL     1       3.843   0.523   5.467  0.00  0.00    -0.034 A 
ATOM     11  C   UNL     1       3.847  -0.722   4.884  0.00  0.00    +0.047 A 
ATOM     12  S   UNL     1       3.024  -1.461   3.494  0.00  0.00    -0.051 S 
ATOM     13  C   UNL     1       2.977   1.620   4.903  0.00  0.00    +0.045 C 
ENDROOT
BRANCH   1  18
ATOM     14  N   UNL     1       1.233  -5.308   0.237  0.00  0.00    -0.165 NA
ATOM     15  C   UNL     1       1.418  -5.228  -1.224  0.00  0.00    +0.110 C 
ATOM     16  C   UNL     1       2.819  -4.593  -1.412  0.00  0.00    +0.019 C 
ATOM     17  C   UNL     1       3.611  -5.236  -0.243  0.00  0.00    +0.031 C 
ATOM     18  C   UNL     1       2.556  -5.326   0.879  0.00  0.00    +0.166 C 
BRANCH  14  19
ATOM     19  S   UNL     1      -0.223  -5.361   1.024  0.00  0.00    +0.062 S 
ATOM     20  O   UNL     1       0.042  -5.838   2.336  0.00  0.00    -0.153 OA
ATOM     21  O   UNL     1      -1.135  -6.008   0.147  0.00  0.00    -0.153 OA
BRANCH  19  26
ATOM     22  C   UNL     1      -2.143   0.329   1.614  0.00  0.00    +0.044 C 
ATOM     23  C   UNL     1      -1.663  -1.092   1.467  0.00  0.00    -0.050 A 
ATOM     24  C   UNL     1      -1.908  -1.786   0.297  0.00  0.00    +0.005 A 
ATOM     25  C   UNL     1      -1.468  -3.090   0.161  0.00  0.00    +0.029 A 
ATOM     26  C   UNL     1      -0.783  -3.699   1.196  0.00  0.00    +0.106 A 
ATOM     27  C   UNL     1      -0.537  -3.004   2.366  0.00  0.00    +0.029 A 
ATOM     28  C   UNL     1      -0.973  -1.699   2.499  0.00  0.00    +0.005 A 
ENDBRANCH  19  26
ENDBRANCH  14  19
ENDBRANCH   1  18
BRANCH   7  29
ATOM     29  O   UNL     1       6.226  -2.483   7.029  0.00  0.00    -0.493 OA
ATOM     30  C   UNL     1       7.010  -2.139   8.173  0.00  0.00    +0.277 C 
ENDBRANCH   7  29
BRANCH   3  31
ATOM     31  C   UNL     1       4.243  -5.458   3.156  0.00  0.00    +0.097 C 
BRANCH  31  32
ATOM     32  C   UNL     1       5.610  -5.452   2.469  0.00  0.00    -0.060 C 
BRANCH  32  33
ATOM     33  N   UNL     1       6.262  -6.754   2.665  0.00  0.00    +0.377 N 
ATOM     34  C   UNL     1       7.520  -6.790   1.907  0.00  0.00    -0.097 C 
ATOM     35  C   UNL     1       6.545  -6.950   4.093  0.00  0.00    -0.097 C 
ATOM     36  H   UNL     1       5.652  -7.488   2.339  0.00  0.00    -0.083 HD
ENDBRANCH  32  33
ENDBRANCH  31  32
ENDBRANCH   3  31
TORSDOF 7
