REMARK  Name = ZINC42828152
REMARK  7 active torsions:
REMARK  status: ('A' for Active; 'I' for Inactive)
REMARK    1  A    between atoms: C_1  and  C_2
REMARK    2  A    between atoms: C_2  and  C_3
REMARK    3  A    between atoms: C_3  and  C_4
REMARK    4  A    between atoms: C_3  and  C_11
REMARK    5  A    between atoms: C_3  and  N_14
REMARK    6  A    between atoms: N_14  and  C_15
REMARK    7  A    between atoms: C_15  and  C_16
REMARK                            x       y       z     vdW  Elec       q    Type
REMARK                         _______ _______ _______ _____ _____    ______ ____
ROOT
ATOM      1  C   UNL     1      -1.483  -0.593  -0.015  0.00  0.00    +0.061 C 
ENDROOT
BRANCH   1   2
ATOM      2  C   UNL     1      -2.101   0.100   1.171  0.00  0.00    -0.048 A 
ATOM      3  C   UNL     1      -3.094   1.043   0.981  0.00  0.00    +0.004 A 
ATOM      4  C   UNL     1      -3.662   1.679   2.069  0.00  0.00    +0.015 A 
ATOM      5  C   UNL     1      -3.237   1.371   3.349  0.00  0.00    +0.018 A 
ATOM      6  C   UNL     1      -2.243   0.428   3.539  0.00  0.00    +0.015 A 
ATOM      7  C   UNL     1      -1.680  -0.211   2.451  0.00  0.00    +0.004 A 
ATOM      8 BR   UNL     1      -4.013   2.241   4.838  0.00  0.00    -0.050 Br
ENDBRANCH   1   2
BRANCH   1   9
ATOM      9  C   UNL     1      -1.714  -2.078   0.094  0.00  0.00    +0.350 C 
ATOM     10  O   UNL     1      -1.161  -2.719   0.971  0.00  0.00    -0.248 OA
ATOM     11  O   UNL     1      -2.455  -2.639  -0.696  0.00  0.00    -0.248 OA
ENDBRANCH   1   9
BRANCH   1  12
ATOM     12  N   UNL     1      -2.098  -0.091  -1.251  0.00  0.00    +0.394 N 
ATOM     13  H   UNL     1      -3.069  -0.362  -1.278  0.00  0.00    -0.084 HD
ATOM     14  H   UNL     1      -2.029   0.916  -1.276  0.00  0.00    -0.084 HD
BRANCH  12  15
ATOM     15  C   UNL     1      -1.398  -0.657  -2.412  0.00  0.00    -0.049 C 
BRANCH  15  16
ATOM     16  C   UNL     1      -2.011  -0.102  -3.698  0.00  0.00    +0.101 C 
ATOM     17  C   UNL     1      -1.367  -0.784  -4.907  0.00  0.00    +0.030 C 
ATOM     18  C   UNL     1      -1.942  -0.180  -6.192  0.00  0.00    +0.005 C 
ATOM     19  C   UNL     1      -1.703   1.333  -6.183  0.00  0.00    +0.028 C 
ATOM     20  C   UNL     1      -2.334   1.934  -4.925  0.00  0.00    +0.160 C 
ATOM     21  O   UNL     1      -1.778   1.307  -3.768  0.00  0.00    -0.378 OA
ENDBRANCH  15  16
ENDBRANCH  12  15
ENDBRANCH   1  12
BRANCH   1  23
ATOM     22  C   UNL     1       0.256   1.196  -0.153  0.00  0.00    +0.003 C 
ATOM     23  C   UNL     1       0.021  -0.312  -0.043  0.00  0.00    -0.000 C 
ENDBRANCH   1  23
TORSDOF 6
