REMARK  Name = ZINC12296444
REMARK  7 active torsions:
REMARK  status: ('A' for Active; 'I' for Inactive)
REMARK    1  A    between atoms: C_7  and  C_11
REMARK    2  A    between atoms: C_11  and  C_12
REMARK    3  A    between atoms: C_12  and  N_13
REMARK    4  A    between atoms: C_14  and  C_16
REMARK    5  A    between atoms: C_16  and  C_17
REMARK    6  A    between atoms: C_17  and  C_18
REMARK    7  A    between atoms: C_18  and  N_19
REMARK                            x       y       z     vdW  Elec       q    Type
REMARK                         _______ _______ _______ _____ _____    ______ ____
ROOT
ATOM      1  C   UNL     1      -4.416  -2.002   2.583  0.00  0.00    +0.106 C 
ENDROOT
BRANCH   1   2
ATOM      2  N   UNL     1      -3.319  -1.565   1.716  0.00  0.00    -0.299 N 
ATOM      3  C   UNL     1      -3.344  -0.334   1.166  0.00  0.00    +0.303 C 
ATOM      4  O   UNL     1      -4.229   0.446   1.461  0.00  0.00    -0.253 OA
ATOM      5  N   UNL     1      -2.388   0.032   0.290  0.00  0.00    -0.280 N 
ATOM      6  C   UNL     1      -2.459   1.325  -0.408  0.00  0.00    +0.114 C 
ATOM      7  C   UNL     1      -1.271   2.192   0.028  0.00  0.00    +0.056 C 
ATOM      8  C   UNL     1      -0.019   1.352   0.010  0.00  0.00    -0.016 A 
ATOM      9  C   UNL     1       1.360   1.798   0.000  0.00  0.00    +0.003 A 
ATOM     10  C   UNL     1       1.946   3.067  -0.005  0.00  0.00    +0.010 A 
ATOM     11  C   UNL     1       3.318   3.118  -0.013  0.00  0.00    +0.001 A 
ATOM     12  C   UNL     1       4.096   1.972  -0.018  0.00  0.00    +0.002 A 
ATOM     13  C   UNL     1       3.543   0.703  -0.015  0.00  0.00    +0.026 A 
ATOM     14  C   UNL     1       2.152   0.621  -0.006  0.00  0.00    +0.047 A 
ATOM     15  N   UNL     1       1.298  -0.444  -0.002  0.00  0.00    -0.356 N 
ATOM     16  H   UNL     1       1.567  -1.376  -0.004  0.00  0.00    +0.166 HD
ATOM     17  C   UNL     1       0.003   0.002   0.006  0.00  0.00    +0.038 A 
ATOM     18  C   UNL     1      -1.245  -0.853   0.006  0.00  0.00    +0.162 C 
ATOM     19  H   UNL     1      -2.575  -2.160   1.537  0.00  0.00    +0.150 HD
ENDBRANCH   1   2
BRANCH   1  20
ATOM     20  C   UNL     1      -4.143  -3.426   3.071  0.00  0.00    +0.028 C 
BRANCH  20  21
ATOM     21  C   UNL     1      -5.289  -3.882   3.977  0.00  0.00    +0.097 C 
BRANCH  21  23
ATOM     22  N   UNL     1      -5.901  -5.898   5.274  0.00  0.00    -0.315 N 
ATOM     23  C   UNL     1      -5.020  -5.285   4.458  0.00  0.00    +0.213 C 
ATOM     24  O   UNL     1      -4.012  -5.863   4.110  0.00  0.00    -0.276 OA
ATOM     25  H   UNL     1      -6.707  -5.436   5.552  0.00  0.00    +0.149 HD
BRANCH  22  26
ATOM     26  C   UNL     1      -5.640  -7.261   5.742  0.00  0.00    +0.109 C 
BRANCH  26  27
ATOM     27  C   UNL     1      -6.785  -7.718   6.647  0.00  0.00    +0.056 C 
BRANCH  27  34
ATOM     28  C   UNL     1      -4.312  -9.463  10.227  0.00  0.00    +0.001 A 
ATOM     29  C   UNL     1      -4.348 -10.849  10.284  0.00  0.00    +0.002 A 
ATOM     30  C   UNL     1      -5.057 -11.573   9.351  0.00  0.00    +0.026 A 
ATOM     31  C   UNL     1      -5.746 -10.910   8.340  0.00  0.00    +0.047 A 
ATOM     32  C   UNL     1      -5.707  -9.505   8.287  0.00  0.00    +0.003 A 
ATOM     33  C   UNL     1      -4.981  -8.791   9.243  0.00  0.00    +0.010 A 
ATOM     34  C   UNL     1      -6.517  -9.121   7.128  0.00  0.00    -0.021 A 
ATOM     35  C   UNL     1      -6.980 -10.255   6.580  0.00  0.00    +0.087 A 
ATOM     36  N   UNL     1      -6.525 -11.335   7.287  0.00  0.00    -0.360 N 
ATOM     37  H   UNL     1      -6.725 -12.261   7.080  0.00  0.00    +0.165 HD
ENDBRANCH  27  34
ENDBRANCH  26  27
ENDBRANCH  22  26
ENDBRANCH  21  23
ENDBRANCH  20  21
ENDBRANCH   1  20
TORSDOF 7
