REMARK  Name = ZINC43509681
REMARK  6 active torsions:
REMARK  status: ('A' for Active; 'I' for Inactive)
REMARK    1  A    between atoms: C_1  and  C_2
REMARK    2  A    between atoms: C_15  and  O_28
REMARK    3  A    between atoms: C_17  and  O_27
REMARK    4  A    between atoms: C_19  and  O_26
REMARK    5  A    between atoms: C_20  and  O_25
REMARK    6  A    between atoms: C_22  and  O_24
REMARK                            x       y       z     vdW  Elec       q    Type
REMARK                         _______ _______ _______ _____ _____    ______ ____
ROOT
ATOM      1  C   UNL     1      -0.019   1.526   0.010  0.00  0.00    +0.008 C 
ATOM      2  C   UNL     1       0.002  -0.004   0.002  0.00  0.00    -0.003 C 
ATOM      3  C   UNL     1      -1.425  -0.536   0.023  0.00  0.00    +0.037 C 
ATOM      4  C   UNL     1      -1.464  -2.043   0.147  0.00  0.00    -0.031 C 
ATOM      5  C   UNL     1      -0.454  -2.723   0.676  0.00  0.00    +0.010 C 
ATOM      6  C   UNL     1      -0.460  -4.222   0.814  0.00  0.00    +0.130 C 
ATOM      7  C   UNL     1       0.107  -4.628   2.157  0.00  0.00    +0.174 C 
ATOM      8  O   UNL     1       0.755  -3.857   2.832  0.00  0.00    -0.291 OA
ATOM      9  C   UNL     1      -0.165  -6.010   2.608  0.00  0.00    +0.027 A 
ATOM     10  C   UNL     1       0.518  -6.521   3.716  0.00  0.00    +0.012 A 
ATOM     11  C   UNL     1       0.268  -7.808   4.144  0.00  0.00    +0.004 A 
ATOM     12  C   UNL     1      -0.658  -8.591   3.479  0.00  0.00    +0.046 A 
ATOM     13  C   UNL     1      -1.341  -8.091   2.379  0.00  0.00    +0.123 A 
ATOM     14  C   UNL     1      -1.099  -6.798   1.936  0.00  0.00    +0.036 A 
ATOM     15  C   UNL     1      -1.858  -6.282   0.740  0.00  0.00    +0.184 C 
ATOM     16  C   UNL     1      -1.893  -4.759   0.741  0.00  0.00    +0.138 C 
ATOM     17  C   UNL     1      -2.522  -4.217  -0.544  0.00  0.00    +0.182 C 
ATOM     18  C   UNL     1      -2.724  -2.712  -0.355  0.00  0.00    +0.172 C 
ATOM     19  C   UNL     1       0.754  -2.025   1.153  0.00  0.00    +0.160 C 
ATOM     20  O   UNL     1       1.748  -2.649   1.459  0.00  0.00    -0.292 OA
ATOM     21  C   UNL     1       0.735  -0.517   1.251  0.00  0.00    +0.083 C 
ENDROOT
BRANCH  18  22
ATOM     22  O   UNL     1      -3.778  -2.481   0.582  0.00  0.00    -0.385 OA
ATOM     23  H   UNL     1      -3.983  -1.546   0.721  0.00  0.00    +0.210 HD
ENDBRANCH  18  22
BRANCH  17  24
ATOM     24  O   UNL     1      -1.656  -4.470  -1.651  0.00  0.00    -0.386 OA
ATOM     25  H   UNL     1      -1.996  -4.151  -2.498  0.00  0.00    +0.210 HD
ENDBRANCH  17  24
BRANCH  16  26
ATOM     26  O   UNL     1      -2.633  -4.306   1.877  0.00  0.00    -0.382 OA
ATOM     27  H   UNL     1      -3.551  -4.609   1.895  0.00  0.00    +0.210 HD
ENDBRANCH  16  26
BRANCH  15  28
ATOM     28  O   UNL     1      -1.214  -6.727  -0.456  0.00  0.00    -0.384 OA
ATOM     29  H   UNL     1      -1.165  -7.689  -0.541  0.00  0.00    +0.210 HD
ENDBRANCH  15  28
BRANCH  13  30
ATOM     30  O   UNL     1      -2.248  -8.870   1.734  0.00  0.00    -0.506 OA
ATOM     31  H   UNL     1      -3.148  -8.795   2.079  0.00  0.00    +0.292 HD
ENDBRANCH  13  30
TORSDOF 5
