REMARK  Name = ZINC10794617
REMARK  7 active torsions:
REMARK  status: ('A' for Active; 'I' for Inactive)
REMARK    1  A    between atoms: C_3  and  S_24
REMARK    2  A    between atoms: C_6  and  C_7
REMARK    3  A    between atoms: C_7  and  O_9
REMARK    4  A    between atoms: O_9  and  C_10
REMARK    5  A    between atoms: C_10  and  C_11
REMARK    6  A    between atoms: N_13  and  C_14
REMARK    7  A    between atoms: S_24  and  N_27
REMARK                            x       y       z     vdW  Elec       q    Type
REMARK                         _______ _______ _______ _____ _____    ______ ____
ROOT
ATOM      1  O   UNL     1       2.465   0.561   2.620  0.00  0.00    -0.452 OA
ENDROOT
BRANCH   1   2
ATOM      2  C   UNL     1       1.351  -0.150   2.879  0.00  0.00    +0.340 C 
ATOM      3  O   UNL     1       0.790  -0.748   1.982  0.00  0.00    -0.245 OA
BRANCH   2   9
ATOM      4  C   UNL     1       1.452   0.482   5.286  0.00  0.00    +0.017 A 
ATOM      5  C   UNL     1       0.936   0.438   6.564  0.00  0.00    +0.029 A 
ATOM      6  C   UNL     1      -0.212  -0.289   6.825  0.00  0.00    +0.105 A 
ATOM      7  C   UNL     1      -0.854  -0.971   5.806  0.00  0.00    +0.029 A 
ATOM      8  C   UNL     1      -0.351  -0.930   4.521  0.00  0.00    +0.017 A 
ATOM      9  C   UNL     1       0.807  -0.199   4.251  0.00  0.00    +0.059 A 
BRANCH   6  10
ATOM     10  S   UNL     1      -0.861  -0.346   8.462  0.00  0.00    +0.056 S 
ATOM     11  O   UNL     1      -0.388   0.817   9.127  0.00  0.00    -0.153 OA
ATOM     12  O   UNL     1      -2.245  -0.645   8.340  0.00  0.00    -0.153 OA
BRANCH  10  13
ATOM     13  N   UNL     1      -0.163  -1.642   9.220  0.00  0.00    -0.204 NA
ATOM     14  H   UNL     1       0.475  -2.197   8.745  0.00  0.00    +0.144 HD
ATOM     15  H   UNL     1      -0.392  -1.847  10.140  0.00  0.00    +0.144 HD
ENDBRANCH  10  13
ENDBRANCH   6  10
ENDBRANCH   2   9
ENDBRANCH   1   2
BRANCH   1  16
ATOM     16  C   UNL     1       2.939   0.569   1.248  0.00  0.00    +0.328 C 
BRANCH  16  17
ATOM     17  C   UNL     1       4.186   1.409   1.151  0.00  0.00    +0.255 C 
ATOM     18  O   UNL     1       4.631   1.949   2.142  0.00  0.00    -0.272 OA
ATOM     19  N   UNL     1       4.806   1.562  -0.035  0.00  0.00    -0.280 N 
ATOM     20  H   UNL     1       4.493   1.073  -0.812  0.00  0.00    +0.155 HD
BRANCH  19  21
ATOM     21  C   UNL     1       5.902   2.426  -0.147  0.00  0.00    +0.073 A 
ATOM     22  C   UNL     1       5.703   3.766  -0.456  0.00  0.00    +0.082 A 
ATOM     23  C   UNL     1       6.788   4.619  -0.560  0.00  0.00    +0.063 A 
ATOM     24  C   UNL     1       8.070   4.136  -0.368  0.00  0.00    +0.043 A 
ATOM     25  C   UNL     1       8.272   2.800  -0.066  0.00  0.00    +0.063 A 
ATOM     26  C   UNL     1       7.191   1.944   0.045  0.00  0.00    +0.082 A 
ATOM     27 CL   UNL     1       7.444   0.269   0.425  0.00  0.00    -0.080 Cl
ATOM     28 CL   UNL     1       9.882   2.199   0.174  0.00  0.00    -0.082 Cl
ATOM     29 CL   UNL     1       6.540   6.294  -0.939  0.00  0.00    -0.082 Cl
ATOM     30 CL   UNL     1       4.095   4.371  -0.703  0.00  0.00    -0.080 Cl
ENDBRANCH  19  21
ENDBRANCH  16  17
ENDBRANCH   1  16
TORSDOF 7
