REMARK  Name = ZINC29489328
REMARK  8 active torsions:
REMARK  status: ('A' for Active; 'I' for Inactive)
REMARK    1  A    between atoms: C_4  and  C_7
REMARK    2  A    between atoms: C_7  and  N_8
REMARK    3  A    between atoms: N_8  and  C_9
REMARK    4  A    between atoms: C_9  and  C_11
REMARK    5  A    between atoms: C_9  and  C_22
REMARK    6  A    between atoms: C_11  and  O_12
REMARK    7  A    between atoms: O_12  and  C_13
REMARK    8  A    between atoms: C_13  and  C_14
REMARK                            x       y       z     vdW  Elec       q    Type
REMARK                         _______ _______ _______ _____ _____    ______ ____
ROOT
ATOM      1  C   UNL     1      -1.384  -0.482  -0.084  0.00  0.00    +0.043 C 
ENDROOT
BRANCH   1   2
ATOM      2  C   UNL     1      -2.001  -0.004  -1.373  0.00  0.00    +0.204 C 
ATOM      3  O   UNL     1      -1.466   0.878  -2.011  0.00  0.00    -0.277 OA
ATOM      4  N   UNL     1      -3.147  -0.556  -1.818  0.00  0.00    -0.303 N 
ATOM      5  C   UNL     1      -3.804  -1.630  -1.058  0.00  0.00    +0.108 C 
ATOM      6  C   UNL     1      -5.261  -1.219  -0.793  0.00  0.00    +0.030 C 
ATOM      7  C   UNL     1      -5.935  -0.867  -2.117  0.00  0.00    -0.001 C 
ATOM      8  C   UNL     1      -5.943  -2.095  -3.045  0.00  0.00    +0.016 C 
ATOM      9  C   UNL     1      -7.289  -1.940  -3.786  0.00  0.00    +0.036 C 
ATOM     10  C   UNL     1      -8.168  -1.141  -2.848  0.00  0.00    -0.044 A 
ATOM     11  C   UNL     1      -7.388  -0.522  -1.888  0.00  0.00    -0.038 A 
ATOM     12  C   UNL     1      -7.984   0.270  -0.921  0.00  0.00    +0.004 A 
ATOM     13  C   UNL     1      -9.355   0.441  -0.911  0.00  0.00    +0.000 A 
ATOM     14  C   UNL     1     -10.135  -0.179  -1.869  0.00  0.00    +0.000 A 
ATOM     15  C   UNL     1      -9.542  -0.968  -2.835  0.00  0.00    +0.004 A 
ATOM     16  C   UNL     1      -5.215   0.295  -2.795  0.00  0.00    +0.030 C 
ATOM     17  C   UNL     1      -3.760  -0.100  -3.073  0.00  0.00    +0.108 C 
ENDBRANCH   1   2
BRANCH   1  18
ATOM     18  N   UNL     1       0.052  -0.176  -0.086  0.00  0.00    +0.391 N 
ATOM     19  H   UNL     1       0.392  -0.070   0.955  0.00  0.00    -0.084 HD
ATOM     20  H   UNL     1       0.211   0.772  -0.621  0.00  0.00    -0.084 HD
BRANCH  18  21
ATOM     21  C   UNL     1       0.817  -1.244  -0.744  0.00  0.00    -0.046 C 
BRANCH  21  25
ATOM     22  C   UNL     1       4.920  -0.090  -1.026  0.00  0.00    +0.000 A 
ATOM     23  C   UNL     1       4.471  -0.779   0.085  0.00  0.00    +0.000 A 
ATOM     24  C   UNL     1       3.143  -1.152   0.176  0.00  0.00    +0.002 A 
ATOM     25  C   UNL     1       2.265  -0.837  -0.843  0.00  0.00    -0.064 A 
ATOM     26  C   UNL     1       2.715  -0.152  -1.956  0.00  0.00    +0.002 A 
ATOM     27  C   UNL     1       4.042   0.226  -2.045  0.00  0.00    +0.000 A 
ENDBRANCH  21  25
ENDBRANCH  18  21
ENDBRANCH   1  18
BRANCH   1  28
ATOM     28  C   UNL     1      -2.055   0.226   1.095  0.00  0.00    +0.153 C 
BRANCH  28  29
ATOM     29  O   UNL     1      -1.553  -0.311   2.321  0.00  0.00    -0.376 OA
BRANCH  29  30
ATOM     30  C   UNL     1      -2.118   0.284   3.490  0.00  0.00    +0.195 C 
BRANCH  30  31
ATOM     31  C   UNL     1      -1.520  -0.354   4.718  0.00  0.00    -0.020 A 
ATOM     32  C   UNL     1      -2.120  -1.465   5.281  0.00  0.00    +0.007 A 
ATOM     33  C   UNL     1      -1.570  -2.055   6.403  0.00  0.00    +0.022 A 
ATOM     34  C   UNL     1      -0.424  -1.527   6.970  0.00  0.00    +0.059 A 
ATOM     35  C   UNL     1       0.174  -0.411   6.409  0.00  0.00    +0.060 A 
ATOM     36  C   UNL     1      -0.375   0.174   5.283  0.00  0.00    +0.027 A 
ATOM     37 CL   UNL     1       1.613   0.252   7.119  0.00  0.00    -0.082 Cl
ATOM     38 CL   UNL     1       0.265  -2.264   8.383  0.00  0.00    -0.082 Cl
ENDBRANCH  30  31
ENDBRANCH  29  30
ENDBRANCH  28  29
ENDBRANCH   1  28
TORSDOF 8
