REMARK  Name = ZINC02407271
REMARK  5 active torsions:
REMARK  status: ('A' for Active; 'I' for Inactive)
REMARK    1  A    between atoms: C_9  and  S_22
REMARK    2  A    between atoms: C_10  and  N_21
REMARK    3  A    between atoms: N_11  and  N_14
REMARK    4  A    between atoms: C_15  and  C_16
REMARK    5  A    between atoms: S_22  and  C_25
REMARK                            x       y       z     vdW  Elec       q    Type
REMARK                         _______ _______ _______ _____ _____    ______ ____
ROOT
ATOM      1  C   UNL     1      -1.249   3.387   0.031  0.00  0.00    +0.002 A 
ATOM      2  C   UNL     1      -0.057   4.110   0.024  0.00  0.00    +0.002 A 
ATOM      3  C   UNL     1       1.146   3.475   0.009  0.00  0.00    +0.030 A 
ATOM      4  C   UNL     1       1.196   2.069   0.002  0.00  0.00    +0.092 A 
ATOM      5  C   UNL     1      -0.016   1.333   0.009  0.00  0.00    +0.090 A 
ATOM      6  C   UNL     1      -1.242   2.027   0.019  0.00  0.00    +0.030 A 
ATOM      7  N   UNL     1       0.002  -0.004   0.002  0.00  0.00    -0.240 NA
ATOM      8  C   UNL     1       1.162  -0.642  -0.012  0.00  0.00    +0.137 A 
ATOM      9  C   UNL     1       1.539  -2.006  -0.023  0.00  0.00    +0.162 A 
ATOM     10  C   UNL     1       2.892  -2.068  -0.035  0.00  0.00    +0.148 A 
ATOM     11  N   UNL     1       3.435  -0.806  -0.034  0.00  0.00    -0.197 N 
ATOM     12  C   UNL     1       2.415   0.123  -0.019  0.00  0.00    +0.184 A 
ATOM     13  N   UNL     1       2.377   1.437  -0.012  0.00  0.00    -0.224 NA
ENDROOT
BRANCH  10  14
ATOM     14  N   UNL     1       3.626  -3.242  -0.049  0.00  0.00    -0.341 N 
ATOM     15  H   UNL     1       4.595  -3.207  -0.058  0.00  0.00    +0.144 HD
ATOM     16  H   UNL     1       3.171  -4.098  -0.050  0.00  0.00    +0.144 HD
ENDBRANCH  10  14
BRANCH   9  17
ATOM     17  S   UNL     1       0.440  -3.384  -0.020  0.00  0.00    +0.037 S 
ATOM     18  O   UNL     1       1.165  -4.481   0.518  0.00  0.00    -0.164 OA
ATOM     19  O   UNL     1      -0.781  -2.927   0.545  0.00  0.00    -0.164 OA
BRANCH  17  20
ATOM     20  C   UNL     1       0.099  -3.782  -1.702  0.00  0.00    +0.131 A 
ATOM     21  C   UNL     1       0.760  -4.627  -2.530  0.00  0.00    +0.035 A 
ATOM     22  C   UNL     1       0.306  -4.789  -3.825  0.00  0.00    +0.009 A 
ATOM     23  C   UNL     1      -0.781  -4.089  -4.233  0.00  0.00    +0.047 A 
ATOM     24  S   UNL     1      -1.202  -3.171  -2.760  0.00  0.00    -0.078 S 
ENDBRANCH  17  20
ENDBRANCH   9  17
BRANCH  11  25
ATOM     25  N   UNL     1       4.805  -0.511  -0.045  0.00  0.00    -0.171 NA
ATOM     26  C   UNL     1       5.451  -0.380   1.076  0.00  0.00    +0.148 C 
BRANCH  26  27
ATOM     27  C   UNL     1       6.885  -0.071   1.064  0.00  0.00    +0.032 A 
ATOM     28  C   UNL     1       7.748   0.107   2.131  0.00  0.00    +0.017 A 
ATOM     29  C   UNL     1       9.066   0.393   1.865  0.00  0.00    +0.008 A 
ATOM     30  C   UNL     1       9.478   0.491   0.574  0.00  0.00    +0.046 A 
ATOM     31  S   UNL     1       7.973   0.167  -0.331  0.00  0.00    -0.096 S 
ENDBRANCH  26  27
ENDBRANCH  11  25
TORSDOF 5
