REMARK  Name = ZINC37523066
REMARK  10 active torsions:
REMARK  status: ('A' for Active; 'I' for Inactive)
REMARK    1  A    between atoms: C_1  and  O_2
REMARK    2  A    between atoms: O_2  and  C_3
REMARK    3  A    between atoms: C_5  and  O_33
REMARK    4  A    between atoms: C_6  and  C_11
REMARK    5  A    between atoms: C_7  and  O_9
REMARK    6  A    between atoms: O_9  and  C_10
REMARK    7  A    between atoms: C_11  and  N_12
REMARK    8  A    between atoms: C_21  and  C_23
REMARK    9  A    between atoms: C_28  and  C_29
REMARK   10  A    between atoms: O_33  and  C_34
REMARK                            x       y       z     vdW  Elec       q    Type
REMARK                         _______ _______ _______ _____ _____    ______ ____
ROOT
ATOM      1  N   UNL     1       4.210  -2.901  -4.068  0.00  0.00    +0.391 N 
ATOM      2  C   UNL     1       4.989  -1.661  -4.023  0.00  0.00    -0.075 C 
ATOM      3  C   UNL     1       6.455  -1.945  -3.722  0.00  0.00    +0.003 C 
ATOM      4  C   UNL     1       6.567  -3.149  -2.783  0.00  0.00    +0.119 C 
ATOM      5  N   UNL     1       6.620  -4.376  -3.586  0.00  0.00    -0.352 N 
ATOM      6  C   UNL     1       7.487  -5.413  -3.422  0.00  0.00    +0.086 A 
ATOM      7  C   UNL     1       7.198  -6.354  -4.345  0.00  0.00    +0.019 A 
ATOM      8  C   UNL     1       6.116  -5.877  -5.111  0.00  0.00    +0.021 A 
ATOM      9  C   UNL     1       5.786  -4.662  -4.630  0.00  0.00    +0.009 A 
ATOM     10  C   UNL     1       4.695  -3.761  -5.156  0.00  0.00    +0.011 C 
ATOM     11  H   UNL     1       4.307  -3.386  -3.189  0.00  0.00    -0.080 HD
ENDROOT
BRANCH  10  12
ATOM     12  C   UNL     1       3.558  -4.601  -5.678  0.00  0.00    -0.044 A 
ATOM     13  C   UNL     1       2.848  -5.416  -4.817  0.00  0.00    +0.003 A 
ATOM     14  C   UNL     1       1.805  -6.186  -5.296  0.00  0.00    +0.000 A 
ATOM     15  C   UNL     1       1.471  -6.140  -6.637  0.00  0.00    +0.001 A 
ATOM     16  C   UNL     1       2.180  -5.324  -7.498  0.00  0.00    +0.012 A 
ATOM     17  C   UNL     1       3.221  -4.551  -7.018  0.00  0.00    +0.057 A 
BRANCH  17  18
ATOM     18  C   UNL     1       3.991  -3.658  -7.956  0.00  0.00    +0.418 C 
ATOM     19  F   UNL     1       3.481  -3.792  -9.252  0.00  0.00    -0.166 F 
ATOM     20  F   UNL     1       3.865  -2.327  -7.541  0.00  0.00    -0.166 F 
ATOM     21  F   UNL     1       5.341  -4.024  -7.946  0.00  0.00    -0.166 F 
ENDBRANCH  17  18
ENDBRANCH  10  12
BRANCH   1  22
ATOM     22  C   UNL     1       2.795  -2.580  -4.294  0.00  0.00    -0.034 C 
BRANCH  22  26
ATOM     23  C   UNL     1       1.309  -0.275  -1.007  0.00  0.00    +0.127 A 
ATOM     24  C   UNL     1       1.869   0.362  -2.104  0.00  0.00    +0.091 A 
ATOM     25  C   UNL     1       2.351  -0.384  -3.169  0.00  0.00    +0.128 A 
ATOM     26  C   UNL     1       2.272  -1.768  -3.137  0.00  0.00    +0.020 A 
ATOM     27  C   UNL     1       1.712  -2.406  -2.040  0.00  0.00    +0.128 A 
ATOM     28  C   UNL     1       1.235  -1.659  -0.973  0.00  0.00    +0.091 A 
BRANCH  23  30
ATOM     29  C   UNL     1       0.946   1.878  -0.067  0.00  0.00    +0.277 C 
ATOM     30  O   UNL     1       0.837   0.457   0.036  0.00  0.00    -0.495 OA
ENDBRANCH  23  30
BRANCH  27  31
ATOM     31  O   UNL     1       1.634  -3.762  -2.009  0.00  0.00    -0.495 OA
ATOM     32  C   UNL     1       1.045  -4.352  -0.848  0.00  0.00    +0.277 C 
ENDBRANCH  27  31
BRANCH  25  33
ATOM     33  O   UNL     1       2.900   0.240  -4.243  0.00  0.00    -0.495 OA
ATOM     34  C   UNL     1       2.949   1.668  -4.209  0.00  0.00    +0.277 C 
ENDBRANCH  25  33
ENDBRANCH  22  26
ENDBRANCH   1  22
TORSDOF 7
