REMARK  Name = ZINC27179985
REMARK  5 active torsions:
REMARK  status: ('A' for Active; 'I' for Inactive)
REMARK    1  A    between atoms: C_1  and  C_2
REMARK    2  A    between atoms: C_11  and  C_13
REMARK    3  A    between atoms: N_15  and  N_16
REMARK    4  A    between atoms: C_17  and  C_19
REMARK    5  A    between atoms: C_19  and  C_20
REMARK                            x       y       z     vdW  Elec       q    Type
REMARK                         _______ _______ _______ _____ _____    ______ ____
ROOT
ATOM      1  C   UNL     1       1.147   1.655   0.000  0.00  0.00    +0.260 C 
ATOM      2  O   UNL     1       1.130   2.871   0.007  0.00  0.00    -0.269 OA
ATOM      3  N   UNL     1      -0.011   0.966   0.007  0.00  0.00    -0.230 N 
ATOM      4  H   UNL     1       0.004  -0.134   0.006  0.00  0.00    +0.173 HD
ENDROOT
BRANCH   1  15
ATOM      5  C   UNL     1       5.436  -3.267  -0.066  0.00  0.00    +0.109 C 
ATOM      6  C   UNL     1       6.511  -2.211  -0.070  0.00  0.00    +0.217 C 
ATOM      7  O   UNL     1       7.680  -2.534  -0.083  0.00  0.00    -0.276 OA
ATOM      8  N   UNL     1       6.173  -0.906  -0.061  0.00  0.00    -0.271 N 
ATOM      9  C   UNL     1       7.126   0.207  -0.064  0.00  0.00    +0.118 C 
ATOM     10  C   UNL     1       6.261   1.478  -0.050  0.00  0.00    +0.056 C 
ATOM     11  C   UNL     1       4.838   0.968  -0.039  0.00  0.00    -0.024 A 
ATOM     12  C   UNL     1       4.867  -0.420  -0.046  0.00  0.00    +0.040 A 
ATOM     13  C   UNL     1       3.661  -1.129  -0.038  0.00  0.00    +0.024 A 
ATOM     14  C   UNL     1       2.460  -0.462  -0.024  0.00  0.00    +0.015 A 
ATOM     15  C   UNL     1       2.435   0.935  -0.016  0.00  0.00    +0.039 A 
ATOM     16  C   UNL     1       3.638   1.645  -0.030  0.00  0.00    +0.018 A 
ENDBRANCH   1  15
BRANCH   3  17
ATOM     17  N   UNL     1      -1.234   1.650   0.017  0.00  0.00    -0.234 N 
ATOM     18  C   UNL     1      -2.392   0.960   0.019  0.00  0.00    +0.233 C 
ATOM     19  O   UNL     1      -2.375  -0.253   0.012  0.00  0.00    -0.274 OA
ATOM     20  H   UNL     1      -1.249   2.750   0.023  0.00  0.00    +0.173 HD
BRANCH  18  21
ATOM     21  C   UNL     1      -3.707   1.696   0.029  0.00  0.00    +0.133 C 
BRANCH  21  22
ATOM     22  C   UNL     1      -4.839   0.701   0.029  0.00  0.00    -0.031 A 
ATOM     23  C   UNL     1      -5.426   0.333  -1.143  0.00  0.00    +0.005 A 
ATOM     24  C   UNL     1      -6.474  -0.585  -1.163  0.00  0.00    +0.001 A 
ATOM     25  C   UNL     1      -6.941  -1.141  -0.011  0.00  0.00    +0.008 A 
ATOM     26  C   UNL     1      -6.359  -0.786   1.218  0.00  0.00    -0.018 A 
ATOM     27  C   UNL     1      -5.290   0.144   1.238  0.00  0.00    -0.014 A 
ATOM     28  C   UNL     1      -4.711   0.503   2.467  0.00  0.00    +0.009 A 
ATOM     29  C   UNL     1      -5.178  -0.052   3.618  0.00  0.00    +0.001 A 
ATOM     30  C   UNL     1      -6.227  -0.970   3.599  0.00  0.00    +0.001 A 
ATOM     31  C   UNL     1      -6.814  -1.338   2.428  0.00  0.00    +0.008 A 
ENDBRANCH  21  22
ENDBRANCH  18  21
ENDBRANCH   3  17
TORSDOF 4
