REMARK  Name = ZINC16001747
REMARK  4 active torsions:
REMARK  status: ('A' for Active; 'I' for Inactive)
REMARK    1  A    between atoms: C_1  and  C_2
REMARK    2  A    between atoms: C_7  and  C_8
REMARK    3  A    between atoms: N_25  and  C_28
REMARK    4  A    between atoms: C_33  and  C_34
REMARK                            x       y       z     vdW  Elec       q    Type
REMARK                         _______ _______ _______ _____ _____    ______ ____
ROOT
ATOM      1  C   UNL     1      10.586   1.077  -3.776  0.00  0.00    +0.044 C 
ATOM      2  C   UNL     1       9.511   1.815  -3.020  0.00  0.00    -0.046 A 
ATOM      3  C   UNL     1       9.117   1.367  -1.772  0.00  0.00    +0.004 A 
ATOM      4  C   UNL     1       8.130   2.045  -1.078  0.00  0.00    +0.005 A 
ATOM      5  C   UNL     1       7.541   3.161  -1.629  0.00  0.00    -0.027 A 
ATOM      6  C   UNL     1       7.929   3.619  -2.884  0.00  0.00    +0.039 A 
ATOM      7  C   UNL     1       8.924   2.932  -3.576  0.00  0.00    -0.026 A 
ATOM      8  C   UNL     1       9.360   3.411  -4.936  0.00  0.00    +0.046 C 
ATOM      9  N   UNL     1       7.196   4.755  -3.232  0.00  0.00    -0.286 N 
ATOM     10  C   UNL     1       6.319   5.106  -2.274  0.00  0.00    +0.212 C 
ATOM     11  O   UNL     1       5.554   6.047  -2.303  0.00  0.00    -0.277 OA
ATOM     12  C   UNL     1       6.469   4.105  -1.156  0.00  0.00    +0.053 C 
ATOM     13  C   UNL     1       5.219   3.473  -0.727  0.00  0.00    +0.089 C 
ATOM     14  C   UNL     1       5.640   2.865   0.670  0.00  0.00    +0.074 C 
ATOM     15  C   UNL     1       6.303   4.120   1.252  0.00  0.00    -0.054 C 
ATOM     16  N   UNL     1       6.929   4.812   0.083  0.00  0.00    +0.395 N 
ATOM     17  C   UNL     1       6.421   6.197   0.039  0.00  0.00    -0.076 C 
ATOM     18  C   UNL     1       5.882   6.486   1.468  0.00  0.00    -0.020 C 
ATOM     19  C   UNL     1       5.282   5.107   1.850  0.00  0.00    -0.016 C 
ATOM     20  C   UNL     1       4.246   2.510   1.112  0.00  0.00    +0.228 C 
ATOM     21  O   UNL     1       3.800   2.554   2.239  0.00  0.00    -0.275 OA
ATOM     22  N   UNL     1       3.587   2.125  -0.021  0.00  0.00    -0.210 N 
ATOM     23  C   UNL     1       4.230   2.519  -1.168  0.00  0.00    +0.229 C 
ATOM     24  O   UNL     1       4.015   2.147  -2.302  0.00  0.00    -0.275 OA
ATOM     25  H   UNL     1       7.374   5.250  -4.198  0.00  0.00    +0.155 HD
ATOM     26  H   UNL     1       8.026   4.820   0.160  0.00  0.00    -0.079 HD
ENDROOT
BRANCH  22  27
ATOM     27  C   UNL     1       2.381   1.409  -0.013  0.00  0.00    +0.048 A 
ATOM     28  C   UNL     1       2.396   0.021  -0.021  0.00  0.00    +0.024 A 
ATOM     29  C   UNL     1       1.207  -0.682  -0.013  0.00  0.00    +0.003 A 
ATOM     30  C   UNL     1       0.002  -0.004   0.002  0.00  0.00    +0.020 A 
ATOM     31  C   UNL     1      -0.017   1.379   0.010  0.00  0.00    +0.046 A 
ATOM     32  C   UNL     1       1.171   2.088   0.002  0.00  0.00    -0.010 A 
ATOM     33  C   UNL     1       1.150   3.595   0.010  0.00  0.00    +0.047 C 
ATOM     34 CL   UNL     1      -1.532   2.227   0.021  0.00  0.00    -0.083 Cl
ENDBRANCH  22  27
TORSDOF 1
