REMARK  Name = ZINC67305164
REMARK  7 active torsions:
REMARK  status: ('A' for Active; 'I' for Inactive)
REMARK    1  A    between atoms: C_1  and  C_2
REMARK    2  A    between atoms: N_4  and  C_5
REMARK    3  A    between atoms: C_10  and  N_11
REMARK    4  A    between atoms: C_12  and  C_14
REMARK    5  A    between atoms: C_14  and  C_15
REMARK    6  A    between atoms: C_18  and  S_21
REMARK    7  A    between atoms: S_21  and  N_24
REMARK                            x       y       z     vdW  Elec       q    Type
REMARK                         _______ _______ _______ _____ _____    ______ ____
ROOT
ATOM      1  N   UNL     1       0.151  -2.220  -3.593  0.00  0.00    -0.284 N 
ATOM      2  C   UNL     1       0.133  -2.930  -4.739  0.00  0.00    +0.222 C 
ATOM      3  O   UNL     1       0.241  -4.138  -4.705  0.00  0.00    -0.275 OA
ATOM      4  H   UNL     1       0.145  -1.251  -3.623  0.00  0.00    +0.155 HD
ENDROOT
BRANCH   1  10
ATOM      5  C   UNL     1       0.709  -2.247  -1.236  0.00  0.00    +0.056 A 
ATOM      6  C   UNL     1       0.728  -2.906  -0.016  0.00  0.00    +0.045 A 
ATOM      7  C   UNL     1       0.227  -4.191   0.084  0.00  0.00    +0.043 A 
ATOM      8  C   UNL     1      -0.294  -4.824  -1.032  0.00  0.00    +0.022 A 
ATOM      9  C   UNL     1      -0.316  -4.174  -2.252  0.00  0.00    +0.026 A 
ATOM     10  C   UNL     1       0.179  -2.883  -2.359  0.00  0.00    +0.055 A 
ATOM     11 CL   UNL     1       0.251  -5.014   1.612  0.00  0.00    -0.083 Cl
BRANCH   5  15
ATOM     12  C   UNL     1       1.913   1.204  -0.334  0.00  0.00    +0.109 C 
ATOM     13  C   UNL     1       1.255  -0.150  -0.253  0.00  0.00    +0.214 C 
ATOM     14  O   UNL     1       0.761  -0.522   0.790  0.00  0.00    -0.276 OA
ATOM     15  N   UNL     1       1.215  -0.946  -1.340  0.00  0.00    -0.284 N 
ATOM     16  H   UNL     1       1.538  -0.617  -2.194  0.00  0.00    +0.155 HD
ENDBRANCH   5  15
ENDBRANCH   1  10
BRANCH   2  17
ATOM     17  C   UNL     1      -0.022  -2.224  -6.061  0.00  0.00    +0.131 C 
BRANCH  17  18
ATOM     18  C   UNL     1      -0.012  -3.237  -7.176  0.00  0.00    -0.039 A 
ATOM     19  C   UNL     1       1.183  -3.601  -7.768  0.00  0.00    +0.006 A 
ATOM     20  C   UNL     1       1.193  -4.530  -8.791  0.00  0.00    +0.029 A 
ATOM     21  C   UNL     1       0.008  -5.096  -9.222  0.00  0.00    +0.105 A 
ATOM     22  C   UNL     1      -1.187  -4.732  -8.630  0.00  0.00    +0.029 A 
ATOM     23  C   UNL     1      -1.196  -3.806  -7.604  0.00  0.00    +0.006 A 
BRANCH  21  24
ATOM     24  S   UNL     1       0.020  -6.280 -10.527  0.00  0.00    +0.056 S 
ATOM     25  O   UNL     1      -1.275  -6.253 -11.113  0.00  0.00    -0.153 OA
ATOM     26  O   UNL     1       1.202  -6.042 -11.280  0.00  0.00    -0.153 OA
BRANCH  24  27
ATOM     27  N   UNL     1       0.194  -7.773  -9.832  0.00  0.00    -0.204 NA
ATOM     28  H   UNL     1       0.266  -7.854  -8.868  0.00  0.00    +0.144 HD
ATOM     29  H   UNL     1       0.224  -8.566 -10.389  0.00  0.00    +0.144 HD
ENDBRANCH  24  27
ENDBRANCH  21  24
ENDBRANCH  17  18
ENDBRANCH   2  17
TORSDOF 6
