REMARK  Name = ZINC38613370
REMARK  7 active torsions:
REMARK  status: ('A' for Active; 'I' for Inactive)
REMARK    1  A    between atoms: C_5  and  C_7
REMARK    2  A    between atoms: C_7  and  O_8
REMARK    3  A    between atoms: O_8  and  C_9
REMARK    4  A    between atoms: C_13  and  C_15
REMARK    5  A    between atoms: C_18  and  C_22
REMARK    6  A    between atoms: N_24  and  N_25
REMARK    7  A    between atoms: C_26  and  C_27
REMARK                            x       y       z     vdW  Elec       q    Type
REMARK                         _______ _______ _______ _____ _____    ______ ____
ROOT
ATOM      1  C   UNL     1      -3.090  -6.548  -0.014  0.00  0.00    +0.131 C 
ATOM      2  C   UNL     1      -3.477  -7.031  -1.434  0.00  0.00    +0.069 C 
ATOM      3  C   UNL     1      -4.231  -8.338  -1.079  0.00  0.00    +0.215 C 
ATOM      4  N   UNL     1      -3.712  -8.698   0.247  0.00  0.00    -0.203 NA
ATOM      5  N   UNL     1      -3.121  -7.769   0.802  0.00  0.00    -0.305 N 
ATOM      6  H   UNL     1      -2.719  -7.836   1.682  0.00  0.00    +0.183 HD
ENDROOT
BRANCH   1  11
ATOM      7  C   UNL     1      -0.272  -4.030  -0.017  0.00  0.00    +0.121 A 
ATOM      8  C   UNL     1       0.839  -4.861  -0.027  0.00  0.00    +0.045 A 
ATOM      9  C   UNL     1       0.674  -6.233  -0.033  0.00  0.00    +0.004 A 
ATOM     10  C   UNL     1      -0.598  -6.777  -0.028  0.00  0.00    +0.006 A 
ATOM     11  C   UNL     1      -1.706  -5.951  -0.019  0.00  0.00    -0.020 A 
ATOM     12  C   UNL     1      -1.546  -4.579  -0.007  0.00  0.00    +0.051 A 
BRANCH   7  13
ATOM     13  O   UNL     1      -0.112  -2.680  -0.011  0.00  0.00    -0.487 OA
BRANCH  13  14
ATOM     14  C   UNL     1       1.229  -2.186  -0.022  0.00  0.00    +0.266 C 
BRANCH  14  19
ATOM     15  C   UNL     1      -0.017   1.378   0.010  0.00  0.00    +0.000 A 
ATOM     16  C   UNL     1       1.171   2.086   0.002  0.00  0.00    +0.001 A 
ATOM     17  C   UNL     1       2.377   1.412  -0.013  0.00  0.00    +0.020 A 
ATOM     18  C   UNL     1       2.397   0.029  -0.021  0.00  0.00    +0.047 A 
ATOM     19  C   UNL     1       1.208  -0.679  -0.013  0.00  0.00    +0.008 A 
ATOM     20  C   UNL     1       0.002  -0.004   0.002  0.00  0.00    +0.008 A 
ATOM     21 CL   UNL     1       3.912  -0.818  -0.041  0.00  0.00    -0.083 Cl
ENDBRANCH  14  19
ENDBRANCH  13  14
ENDBRANCH   7  13
ENDBRANCH   1  11
BRANCH   3  22
ATOM     22  C   UNL     1      -5.716  -8.091  -1.020  0.00  0.00    +0.259 C 
ATOM     23  O   UNL     1      -6.263  -7.939   0.052  0.00  0.00    -0.272 OA
ATOM     24  N   UNL     1      -6.437  -8.039  -2.157  0.00  0.00    -0.205 N 
ATOM     25  H   UNL     1      -5.999  -8.161  -3.015  0.00  0.00    +0.177 HD
BRANCH  24  26
ATOM     26  N   UNL     1      -7.818  -7.810  -2.102  0.00  0.00    -0.188 NA
ATOM     27  C   UNL     1      -8.518  -7.759  -3.207  0.00  0.00    +0.136 C 
BRANCH  27  28
ATOM     28  C   UNL     1      -9.900  -7.530  -3.151  0.00  0.00    +0.000 C 
ATOM     29  C   UNL     1     -10.785  -7.453  -4.225  0.00  0.00    +0.004 A 
ATOM     30  C   UNL     1     -10.604  -7.571  -5.621  0.00  0.00    +0.010 A 
ATOM     31  C   UNL     1     -11.671  -7.448  -6.449  0.00  0.00    +0.001 A 
ATOM     32  C   UNL     1     -12.958  -7.207  -5.958  0.00  0.00    +0.002 A 
ATOM     33  C   UNL     1     -13.205  -7.083  -4.632  0.00  0.00    +0.026 A 
ATOM     34  C   UNL     1     -12.138  -7.199  -3.701  0.00  0.00    +0.043 A 
ATOM     35  N   UNL     1     -12.116  -7.119  -2.387  0.00  0.00    -0.380 N 
ATOM     36  C   UNL     1     -10.743  -7.320  -1.913  0.00  0.00    +0.150 C 
ATOM     37  H   UNL     1     -12.887  -6.957  -1.821  0.00  0.00    +0.160 HD
ENDBRANCH  27  28
ENDBRANCH  24  26
ENDBRANCH   3  22
TORSDOF 7
