REMARK  Name = ZINC09521052
REMARK  9 active torsions:
REMARK  status: ('A' for Active; 'I' for Inactive)
REMARK    1  A    between atoms: C_1  and  C_2
REMARK    2  A    between atoms: C_12  and  C_14
REMARK    3  A    between atoms: C_14  and  S_15
REMARK    4  A    between atoms: S_15  and  C_16
REMARK    5  A    between atoms: N_22  and  C_23
REMARK    6  A    between atoms: C_23  and  C_24
REMARK    7  A    between atoms: C_23  and  C_25
REMARK    8  A    between atoms: C_23  and  C_26
REMARK    9  A    between atoms: C_27  and  O_29
REMARK                            x       y       z     vdW  Elec       q    Type
REMARK                         _______ _______ _______ _____ _____    ______ ____
ROOT
ATOM      1  S   UNL     1      -0.888   1.685  -1.458  0.00  0.00    -0.077 S 
ENDROOT
BRANCH   1   2
ATOM      2  C   UNL     1       0.122   0.990  -2.724  0.00  0.00    +0.194 A 
ATOM      3  N   UNL     1      -0.202   1.204  -3.988  0.00  0.00    -0.202 NA
ATOM      4  C   UNL     1       0.539   0.700  -4.972  0.00  0.00    +0.167 A 
ATOM      5  C   UNL     1       1.669  -0.076  -4.644  0.00  0.00    +0.100 A 
ATOM      6  C   UNL     1       2.258  -0.482  -5.862  0.00  0.00    +0.149 A 
ATOM      7  N   UNL     1       1.551   0.001  -6.844  0.00  0.00    -0.176 NA
ATOM      8  N   UNL     1       0.477   0.740  -6.333  0.00  0.00    -0.241 N 
ATOM      9  C   UNL     1       1.970  -0.281  -3.285  0.00  0.00    +0.227 A 
ATOM     10  N   UNL     1       1.179   0.265  -2.373  0.00  0.00    -0.187 NA
BRANCH   8  11
ATOM     11  C   UNL     1      -0.539   1.437  -7.126  0.00  0.00    +0.058 C 
ATOM     12  C   UNL     1      -0.507   2.931  -6.797  0.00  0.00    +0.036 C 
ATOM     13  C   UNL     1      -0.251   1.236  -8.615  0.00  0.00    +0.036 C 
ATOM     14  C   UNL     1      -1.922   0.872  -6.793  0.00  0.00    +0.036 C 
ENDBRANCH   8  11
BRANCH   9  15
ATOM     15  O   UNL     1       3.044  -1.018  -2.918  0.00  0.00    -0.492 OA
ATOM     16  H   UNL     1       2.856  -1.960  -2.810  0.00  0.00    +0.294 HD
ENDBRANCH   9  15
ENDBRANCH   1   2
BRANCH   1  17
ATOM     17  C   UNL     1      -0.013   1.086   0.008  0.00  0.00    +0.173 C 
BRANCH  17  29
ATOM     18  C   UNL     1      -3.815   3.708   8.908  0.00  0.00    +0.044 C 
ATOM     19  C   UNL     1      -3.349   3.386   7.512  0.00  0.00    -0.049 A 
ATOM     20  C   UNL     1      -4.047   3.864   6.412  0.00  0.00    +0.005 A 
ATOM     21  C   UNL     1      -3.646   3.586   5.132  0.00  0.00    +0.029 A 
ATOM     22  C   UNL     1      -2.497   2.797   4.891  0.00  0.00    +0.080 A 
ATOM     23  C   UNL     1      -1.810   2.328   6.034  0.00  0.00    +0.041 A 
ATOM     24  C   UNL     1      -2.221   2.612   7.313  0.00  0.00    +0.020 A 
ATOM     25  S   UNL     1      -0.474   1.400   5.319  0.00  0.00    -0.052 S 
ATOM     26  C   UNL     1      -0.890   1.693   3.606  0.00  0.00    +0.165 A 
ATOM     27  N   UNL     1      -1.969   2.434   3.702  0.00  0.00    -0.225 NA
ATOM     28  N   UNL     1      -0.242   1.246   2.466  0.00  0.00    -0.264 N 
ATOM     29  C   UNL     1      -0.718   1.572   1.248  0.00  0.00    +0.229 C 
ATOM     30  O   UNL     1      -1.714   2.256   1.150  0.00  0.00    -0.275 OA
ATOM     31  H   UNL     1       0.555   0.699   2.544  0.00  0.00    +0.157 HD
ENDBRANCH  17  29
ENDBRANCH   1  17
TORSDOF 5
