REMARK  Name = ZINC24503205
REMARK  10 active torsions:
REMARK  status: ('A' for Active; 'I' for Inactive)
REMARK    1  A    between atoms: C_3  and  S_25
REMARK    2  A    between atoms: C_6  and  C_7
REMARK    3  A    between atoms: C_7  and  C_8
REMARK    4  A    between atoms: C_8  and  C_9
REMARK    5  A    between atoms: C_9  and  O_11
REMARK    6  A    between atoms: O_11  and  C_12
REMARK    7  A    between atoms: C_12  and  C_13
REMARK    8  A    between atoms: N_15  and  C_16
REMARK    9  A    between atoms: C_19  and  N_22
REMARK   10  A    between atoms: S_25  and  N_28
REMARK                            x       y       z     vdW  Elec       q    Type
REMARK                         _______ _______ _______ _____ _____    ______ ____
ROOT
ATOM      1  C   UNL     1       5.383  -6.576  -0.607  0.00  0.00    +0.125 C 
ENDROOT
BRANCH   1   2
ATOM      2  C   UNL     1       3.986  -6.022  -0.487  0.00  0.00    +0.308 C 
ATOM      3  O   UNL     1       3.037  -6.770  -0.495  0.00  0.00    -0.251 OA
BRANCH   2   4
ATOM      4  O   UNL     1       3.797  -4.699  -0.370  0.00  0.00    -0.455 OA
BRANCH   4   5
ATOM      5  C   UNL     1       2.425  -4.236  -0.258  0.00  0.00    +0.328 C 
BRANCH   5   6
ATOM      6  C   UNL     1       2.410  -2.734  -0.137  0.00  0.00    +0.255 C 
ATOM      7  O   UNL     1       3.452  -2.114  -0.144  0.00  0.00    -0.272 OA
ATOM      8  N   UNL     1       1.237  -2.079  -0.021  0.00  0.00    -0.283 N 
ATOM      9  H   UNL     1       0.298  -2.645   0.073  0.00  0.00    +0.155 HD
BRANCH   8  10
ATOM     10  C   UNL     1       1.214  -0.680  -0.019  0.00  0.00    +0.034 A 
ATOM     11  C   UNL     1       2.137   0.031  -0.774  0.00  0.00    +0.025 A 
ATOM     12  C   UNL     1       2.111   1.412  -0.771  0.00  0.00    +0.034 A 
ATOM     13  C   UNL     1       1.168   2.086  -0.017  0.00  0.00    +0.126 A 
ATOM     14  C   UNL     1       0.248   1.380   0.736  0.00  0.00    +0.034 A 
ATOM     15  C   UNL     1       0.268  -0.001   0.737  0.00  0.00    +0.025 A 
BRANCH  13  16
ATOM     16  N   UNL     1       1.144   3.566  -0.015  0.00  0.00    +0.056 N 
ATOM     17  O   UNL     1       1.954   4.189  -0.678  0.00  0.00    -0.126 OA
ATOM     18  O   UNL     1       0.314   4.161   0.649  0.00  0.00    -0.126 OA
ENDBRANCH  13  16
ENDBRANCH   8  10
ENDBRANCH   5   6
ENDBRANCH   4   5
ENDBRANCH   2   4
ENDBRANCH   1   2
BRANCH   1  19
ATOM     19  C   UNL     1       5.319  -8.100  -0.726  0.00  0.00    +0.046 C 
BRANCH  19  25
ATOM     20  C   UNL     1       7.288  -8.818  -2.094  0.00  0.00    +0.005 A 
ATOM     21  C   UNL     1       8.571  -9.321  -2.204  0.00  0.00    +0.029 A 
ATOM     22  C   UNL     1       9.277  -9.670  -1.068  0.00  0.00    +0.105 A 
ATOM     23  C   UNL     1       8.701  -9.511   0.179  0.00  0.00    +0.029 A 
ATOM     24  C   UNL     1       7.420  -9.003   0.290  0.00  0.00    +0.005 A 
ATOM     25  C   UNL     1       6.715  -8.654  -0.847  0.00  0.00    -0.047 A 
BRANCH  22  26
ATOM     26  S   UNL     1      10.910 -10.316  -1.209  0.00  0.00    +0.061 S 
ATOM     27  O   UNL     1      11.423  -9.856  -2.452  0.00  0.00    -0.153 OA
ATOM     28  O   UNL     1      11.559 -10.053   0.028  0.00  0.00    -0.153 OA
BRANCH  26  29
ATOM     29  N   UNL     1      10.776 -11.962  -1.332  0.00  0.00    -0.177 NA
ATOM     30  C   UNL     1      10.795 -12.752  -0.121  0.00  0.00    +0.109 C 
ATOM     31  C   UNL     1      12.248 -13.131   0.236  0.00  0.00    +0.017 C 
ATOM     32  C   UNL     1      12.762 -14.129  -0.714  0.00  0.00    +0.001 C 
ATOM     33  C   UNL     1      12.842 -13.641  -2.157  0.00  0.00    +0.001 C 
ATOM     34  C   UNL     1      11.502 -13.835  -2.825  0.00  0.00    +0.017 C 
ATOM     35  C   UNL     1      10.648 -12.563  -2.675  0.00  0.00    +0.109 C 
ENDBRANCH  26  29
ENDBRANCH  22  26
ENDBRANCH  19  25
ENDBRANCH   1  19
TORSDOF 10
