REMARK  Name = ZINC01391676
REMARK  7 active torsions:
REMARK  status: ('A' for Active; 'I' for Inactive)
REMARK    1  A    between atoms: C_1  and  C_2
REMARK    2  A    between atoms: C_2  and  O_3
REMARK    3  A    between atoms: O_3  and  C_4
REMARK    4  A    between atoms: C_4  and  C_6
REMARK    5  A    between atoms: C_6  and  C_7
REMARK    6  A    between atoms: N_14  and  S_15
REMARK    7  A    between atoms: S_15  and  C_18
REMARK                            x       y       z     vdW  Elec       q    Type
REMARK                         _______ _______ _______ _____ _____    ______ ____
ROOT
ATOM      1  C   UNL     1       1.425  -4.247  -2.522  0.00  0.00    +0.176 C 
ATOM      2  C   UNL     1       2.222  -4.830  -3.657  0.00  0.00    +0.233 C 
ATOM      3  O   UNL     1       1.647  -5.096  -4.691  0.00  0.00    -0.274 OA
ATOM      4  N   UNL     1       3.532  -5.066  -3.578  0.00  0.00    -0.313 N 
ATOM      5  C   UNL     1       4.335  -4.882  -2.377  0.00  0.00    +0.121 C 
ATOM      6  C   UNL     1       3.655  -3.908  -1.414  0.00  0.00    +0.129 C 
ATOM      7  N   UNL     1       2.235  -4.291  -1.296  0.00  0.00    -0.163 NA
ATOM      8  H   UNL     1       3.982  -5.383  -4.377  0.00  0.00    +0.149 HD
ENDROOT
BRANCH   7   9
ATOM      9  S   UNL     1       1.581  -4.753   0.154  0.00  0.00    +0.063 S 
ATOM     10  O   UNL     1       2.036  -3.817   1.121  0.00  0.00    -0.153 OA
ATOM     11  O   UNL     1       0.201  -4.995  -0.082  0.00  0.00    -0.153 OA
BRANCH   9  12
ATOM     12  C   UNL     1       2.299  -6.305   0.579  0.00  0.00    +0.125 A 
ATOM     13  C   UNL     1       3.106  -6.411   1.696  0.00  0.00    +0.051 A 
ATOM     14  C   UNL     1       3.669  -7.629   2.030  0.00  0.00    +0.061 A 
ATOM     15  C   UNL     1       3.425  -8.743   1.245  0.00  0.00    +0.061 A 
ATOM     16  C   UNL     1       2.619  -8.637   0.127  0.00  0.00    +0.043 A 
ATOM     17  C   UNL     1       2.051  -7.419  -0.204  0.00  0.00    +0.069 A 
ATOM     18 CL   UNL     1       1.032  -7.287  -1.603  0.00  0.00    -0.081 Cl
ATOM     19 CL   UNL     1       4.133 -10.272   1.663  0.00  0.00    -0.082 Cl
ATOM     20 CL   UNL     1       4.683  -7.761   3.433  0.00  0.00    -0.082 Cl
ENDBRANCH   9  12
ENDBRANCH   7   9
BRANCH   1  21
ATOM     21  C   UNL     1       1.060  -2.797  -2.843  0.00  0.00    +0.150 C 
BRANCH  21  22
ATOM     22  C   UNL     1       0.134  -2.264  -1.780  0.00  0.00    +0.309 C 
ATOM     23  O   UNL     1      -0.306  -3.007  -0.935  0.00  0.00    -0.251 OA
BRANCH  22  24
ATOM     24  O   UNL     1      -0.202  -0.965  -1.772  0.00  0.00    -0.465 OA
BRANCH  24  26
ATOM     25  C   UNL     1      -1.349   0.970  -0.889  0.00  0.00    +0.048 C 
ATOM     26  C   UNL     1      -1.083  -0.529  -0.736  0.00  0.00    +0.229 C 
ENDBRANCH  24  26
ENDBRANCH  22  24
ENDBRANCH  21  22
ENDBRANCH   1  21
TORSDOF 6
