REMARK  Name = ZINC08936625
REMARK  8 active torsions:
REMARK  status: ('A' for Active; 'I' for Inactive)
REMARK    1  A    between atoms: C_1  and  C_2
REMARK    2  A    between atoms: C_7  and  N_8
REMARK    3  A    between atoms: C_9  and  C_11
REMARK    4  A    between atoms: C_11  and  N_12
REMARK    5  A    between atoms: C_15  and  C_19
REMARK    6  A    between atoms: C_15  and  C_20
REMARK    7  A    between atoms: C_23  and  O_26
REMARK    8  A    between atoms: O_26  and  C_27
REMARK                            x       y       z     vdW  Elec       q    Type
REMARK                         _______ _______ _______ _____ _____    ______ ____
ROOT
ATOM      1  N   UNL     1       3.666   6.179   0.312  0.00  0.00    -0.215 N 
ATOM      2  C   UNL     1       4.412   6.530  -0.754  0.00  0.00    +0.251 C 
ATOM      3  O   UNL     1       4.087   6.488  -1.921  0.00  0.00    -0.272 OA
ATOM      4  C   UNL     1       5.743   6.987  -0.190  0.00  0.00    +0.135 C 
ATOM      5  N   UNL     1       5.576   6.825   1.265  0.00  0.00    -0.281 N 
ATOM      6  C   UNL     1       4.331   6.354   1.459  0.00  0.00    +0.310 C 
ATOM      7  O   UNL     1       3.865   6.110   2.555  0.00  0.00    -0.252 OA
ATOM      8  C   UNL     1       6.002   8.453  -0.542  0.00  0.00    +0.047 C 
ATOM      9  H   UNL     1       6.234   7.023   1.949  0.00  0.00    +0.152 HD
ENDROOT
BRANCH   4  10
ATOM     10  C   UNL     1       6.862   6.113  -0.696  0.00  0.00    -0.015 A 
ATOM     11  C   UNL     1       6.761   5.513  -1.937  0.00  0.00    +0.010 A 
ATOM     12  C   UNL     1       7.788   4.716  -2.406  0.00  0.00    +0.046 A 
ATOM     13  C   UNL     1       8.915   4.508  -1.624  0.00  0.00    +0.127 A 
ATOM     14  C   UNL     1       9.011   5.107  -0.376  0.00  0.00    +0.046 A 
ATOM     15  C   UNL     1       7.984   5.908   0.085  0.00  0.00    +0.010 A 
BRANCH  13  16
ATOM     16  O   UNL     1       9.923   3.719  -2.080  0.00  0.00    -0.434 OA
BRANCH  16  17
ATOM     17  C   UNL     1       9.756   3.136  -3.374  0.00  0.00    +0.541 C 
ATOM     18  F   UNL     1       8.615   2.327  -3.377  0.00  0.00    -0.166 F 
ATOM     19  F   UNL     1       9.612   4.150  -4.327  0.00  0.00    -0.166 F 
ENDBRANCH  16  17
ENDBRANCH  13  16
ENDBRANCH   4  10
BRANCH   1  20
ATOM     20  C   UNL     1       2.293   5.674   0.225  0.00  0.00    +0.214 C 
BRANCH  20  22
ATOM     21  N   UNL     1       1.161   3.486   0.009  0.00  0.00    -0.284 N 
ATOM     22  C   UNL     1       2.317   4.173   0.104  0.00  0.00    +0.235 C 
ATOM     23  O   UNL     1       3.376   3.582   0.091  0.00  0.00    -0.274 OA
ATOM     24  H   UNL     1       0.319   3.962  -0.061  0.00  0.00    +0.155 HD
BRANCH  21  31
ATOM     25  C   UNL     1      -1.002   2.115  -1.231  0.00  0.00    +0.046 C 
ATOM     26  C   UNL     1       0.139   1.378  -0.579  0.00  0.00    -0.028 A 
ATOM     27  C   UNL     1       0.157  -0.003  -0.574  0.00  0.00    +0.020 A 
ATOM     28  C   UNL     1       1.206  -0.681   0.020  0.00  0.00    +0.018 A 
ATOM     29  C   UNL     1       2.241   0.023   0.611  0.00  0.00    +0.017 A 
ATOM     30  C   UNL     1       2.229   1.404   0.608  0.00  0.00    +0.024 A 
ATOM     31  C   UNL     1       1.176   2.086   0.013  0.00  0.00    +0.036 A 
ATOM     32 BR   UNL     1       1.226  -2.572   0.026  0.00  0.00    -0.050 Br
ENDBRANCH  21  31
ENDBRANCH  20  22
ENDBRANCH   1  20
TORSDOF 6
