REMARK  Name = ZINC22744319
REMARK  5 active torsions:
REMARK  status: ('A' for Active; 'I' for Inactive)
REMARK    1  A    between atoms: C_1  and  C_2
REMARK    2  A    between atoms: C_4  and  C_8
REMARK    3  A    between atoms: N_5  and  C_7
REMARK    4  A    between atoms: C_20  and  C_22
REMARK    5  A    between atoms: C_32  and  C_33
REMARK                            x       y       z     vdW  Elec       q    Type
REMARK                         _______ _______ _______ _____ _____    ______ ____
ROOT
ATOM      1  C   UNL     1       1.060  -3.830  -1.651  0.00  0.00    +0.200 A 
ATOM      2  N   UNL     1       0.475  -2.793  -1.037  0.00  0.00    -0.205 NA
ATOM      3  C   UNL     1       1.306  -1.780  -1.001  0.00  0.00    +0.167 A 
ATOM      4  C   UNL     1       1.206  -0.479  -0.483  0.00  0.00    +0.070 A 
ATOM      5  C   UNL     1       2.304   0.329  -0.627  0.00  0.00    +0.230 A 
ATOM      6  N   UNL     1       3.410  -0.116  -1.241  0.00  0.00    -0.201 NA
ATOM      7  C   UNL     1       3.530  -1.326  -1.733  0.00  0.00    +0.229 A 
ATOM      8  N   UNL     1       2.480  -2.177  -1.619  0.00  0.00    -0.201 N 
ATOM      9  N   UNL     1       2.286  -3.491  -2.021  0.00  0.00    -0.142 NA
ATOM     10  O   UNL     1       2.270   1.589  -0.141  0.00  0.00    -0.437 OA
ATOM     11  C   UNL     1       1.085   2.205   0.102  0.00  0.00    +0.134 C 
ATOM     12  C   UNL     1      -0.044   1.518   0.267  0.00  0.00    -0.015 C 
ATOM     13  C   UNL     1      -0.034   0.007   0.197  0.00  0.00    +0.087 C 
ATOM     14  C   UNL     1      -1.366   2.197   0.518  0.00  0.00    +0.036 C 
ATOM     15  C   UNL     1      -1.177   3.582   1.128  0.00  0.00    +0.009 C 
ATOM     16  C   UNL     1      -0.244   4.398   0.221  0.00  0.00    +0.039 C 
ATOM     17  C   UNL     1       1.086   3.679   0.196  0.00  0.00    -0.004 C 
ATOM     18  C   UNL     1       2.241   4.365   0.258  0.00  0.00    +0.015 C 
ENDROOT
BRANCH   1  22
ATOM     19  C   UNL     1      -2.273  -7.656  -1.708  0.00  0.00    +0.067 C 
ATOM     20  C   UNL     1      -1.020  -6.845  -1.916  0.00  0.00    +0.061 A 
ATOM     21  C   UNL     1      -0.828  -5.525  -1.510  0.00  0.00    +0.056 A 
ATOM     22  C   UNL     1       0.433  -5.151  -1.881  0.00  0.00    +0.107 A 
ATOM     23  N   UNL     1       1.004  -6.218  -2.508  0.00  0.00    -0.263 N 
ATOM     24  N   UNL     1       0.071  -7.263  -2.508  0.00  0.00    -0.176 NA
ATOM     25  C   UNL     1       2.354  -6.265  -3.076  0.00  0.00    +0.173 C 
ENDBRANCH   1  22
BRANCH  13  26
ATOM     26  C   UNL     1      -0.088  -0.555   1.594  0.00  0.00    -0.036 A 
ATOM     27  C   UNL     1       0.914  -0.257   2.498  0.00  0.00    +0.004 A 
ATOM     28  C   UNL     1       0.862  -0.769   3.781  0.00  0.00    +0.000 A 
ATOM     29  C   UNL     1      -0.187  -1.588   4.157  0.00  0.00    +0.000 A 
ATOM     30  C   UNL     1      -1.186  -1.890   3.250  0.00  0.00    +0.000 A 
ATOM     31  C   UNL     1      -1.137  -1.374   1.969  0.00  0.00    +0.004 A 
ENDBRANCH  13  26
BRANCH  18  32
ATOM     32  C   UNL     1       2.230   5.836   0.180  0.00  0.00    -0.025 A 
ATOM     33  C   UNL     1       1.272   6.490  -0.599  0.00  0.00    +0.008 A 
ATOM     34  C   UNL     1       1.265   7.868  -0.664  0.00  0.00    +0.001 A 
ATOM     35  C   UNL     1       2.209   8.602   0.033  0.00  0.00    +0.000 A 
ATOM     36  C   UNL     1       3.163   7.960   0.803  0.00  0.00    +0.001 A 
ATOM     37  C   UNL     1       3.180   6.584   0.881  0.00  0.00    +0.008 A 
ENDBRANCH  18  32
TORSDOF 3
