REMARK  Name = ZINC18015929
REMARK  12 active torsions:
REMARK  status: ('A' for Active; 'I' for Inactive)
REMARK    1  A    between atoms: C_1  and  N_62
REMARK    2  A    between atoms: C_2  and  N_62
REMARK    3  A    between atoms: C_3  and  C_5
REMARK    4  A    between atoms: C_3  and  C_12
REMARK    5  A    between atoms: C_3  and  N_62
REMARK    6  A    between atoms: C_5  and  C_6
REMARK    7  A    between atoms: C_12  and  N_13
REMARK    8  A    between atoms: C_14  and  C_16
REMARK    9  A    between atoms: C_19  and  N_22
REMARK   10  A    between atoms: N_22  and  S_23
REMARK   11  A    between atoms: S_23  and  C_26
REMARK   12  A    between atoms: C_27  and  C_28
REMARK                            x       y       z     vdW  Elec       q    Type
REMARK                         _______ _______ _______ _____ _____    ______ ____
ROOT
ATOM      1  C   UNL     1       0.579  -0.608  -3.564  0.00  0.00    +0.037 A 
ATOM      2  C   UNL     1      -0.112   0.483  -4.101  0.00  0.00    +0.015 A 
ATOM      3  C   UNL     1      -0.829   0.336  -5.266  0.00  0.00    +0.025 A 
ATOM      4  C   UNL     1      -0.874  -0.900  -5.906  0.00  0.00    +0.048 A 
ATOM      5  C   UNL     1      -0.192  -1.990  -5.371  0.00  0.00    +0.025 A 
ATOM      6  C   UNL     1       0.530  -1.848  -4.209  0.00  0.00    +0.015 A 
ENDROOT
BRANCH   1   8
ATOM      7  N   UNL     1       1.398   0.744  -1.698  0.00  0.00    -0.313 N 
ATOM      8  C   UNL     1       1.352  -0.452  -2.318  0.00  0.00    +0.244 C 
ATOM      9  O   UNL     1       1.948  -1.403  -1.850  0.00  0.00    -0.270 OA
ATOM     10  H   UNL     1       0.925   1.503  -2.074  0.00  0.00    +0.149 HD
BRANCH   7  11
ATOM     11  C   UNL     1       2.166   0.898  -0.460  0.00  0.00    +0.089 C 
BRANCH  11  12
ATOM     12  C   UNL     1       1.911   2.287   0.128  0.00  0.00    -0.048 C 
BRANCH  12  15
ATOM     13  C   UNL     1      -0.429   2.432  -0.477  0.00  0.00    -0.096 C 
ATOM     14  C   UNL     1       0.234   1.226   1.515  0.00  0.00    -0.096 C 
ATOM     15  N   UNL     1       0.530   2.385   0.647  0.00  0.00    +0.379 N 
ATOM     16  H   UNL     1       0.441   3.246   1.198  0.00  0.00    -0.082 HD
ENDBRANCH  12  15
BRANCH  12  17
ATOM     17  C   UNL     1       2.888   2.541   1.278  0.00  0.00    +0.021 C 
BRANCH  17  18
ATOM     18  C   UNL     1       2.746   3.964   1.753  0.00  0.00    -0.049 A 
ATOM     19  C   UNL     1       3.438   4.977   1.116  0.00  0.00    +0.003 A 
ATOM     20  C   UNL     1       3.304   6.283   1.548  0.00  0.00    +0.000 A 
ATOM     21  C   UNL     1       2.486   6.575   2.624  0.00  0.00    +0.000 A 
ATOM     22  C   UNL     1       1.799   5.561   3.265  0.00  0.00    +0.000 A 
ATOM     23  C   UNL     1       1.928   4.256   2.829  0.00  0.00    +0.003 A 
ENDBRANCH  17  18
ENDBRANCH  12  17
ENDBRANCH  11  12
ENDBRANCH   7  11
ENDBRANCH   1   8
BRANCH   4  24
ATOM     24  N   UNL     1      -1.603  -1.047  -7.081  0.00  0.00    -0.217 N 
ATOM     25  H   UNL     1      -1.203  -1.483  -7.849  0.00  0.00    +0.174 HD
BRANCH  24  26
ATOM     26  S   UNL     1      -3.155  -0.476  -7.169  0.00  0.00    +0.066 S 
ATOM     27  O   UNL     1      -3.119   0.870  -6.715  0.00  0.00    -0.151 OA
ATOM     28  O   UNL     1      -3.648  -0.834  -8.453  0.00  0.00    -0.151 OA
BRANCH  26  29
ATOM     29  C   UNL     1      -4.110  -1.378  -5.994  0.00  0.00    +0.157 C 
ATOM     30  C   UNL     1      -4.649  -0.752  -4.958  0.00  0.00    +0.028 C 
BRANCH  30  31
ATOM     31  C   UNL     1      -5.450  -1.509  -3.972  0.00  0.00    -0.024 A 
ATOM     32  C   UNL     1      -5.644  -2.881  -4.133  0.00  0.00    +0.008 A 
ATOM     33  C   UNL     1      -6.388  -3.583  -3.206  0.00  0.00    +0.001 A 
ATOM     34  C   UNL     1      -6.950  -2.926  -2.126  0.00  0.00    +0.000 A 
ATOM     35  C   UNL     1      -6.766  -1.565  -1.964  0.00  0.00    +0.001 A 
ATOM     36  C   UNL     1      -6.019  -0.853  -2.880  0.00  0.00    +0.008 A 
ENDBRANCH  30  31
ENDBRANCH  26  29
ENDBRANCH  24  26
ENDBRANCH   4  24
TORSDOF 10
