REMARK  Name = ZINC08976387
REMARK  2 active torsions:
REMARK  status: ('A' for Active; 'I' for Inactive)
REMARK    1  A    between atoms: C_5  and  C_6
REMARK    2  A    between atoms: N_8  and  C_9
REMARK                            x       y       z     vdW  Elec       q    Type
REMARK                         _______ _______ _______ _____ _____    ______ ____
ROOT
ATOM      1  C   UNL     1       2.464  -3.554   2.045  0.00  0.00    +0.257 C 
ATOM      2  O   UNL     1       3.582  -3.200   2.373  0.00  0.00    -0.269 OA
ATOM      3  N   UNL     1       1.627  -2.680   1.452  0.00  0.00    -0.250 N 
ATOM      4  H   UNL     1       0.737  -2.963   1.190  0.00  0.00    +0.158 HD
ENDROOT
BRANCH   3   5
ATOM      5  C   UNL     1       2.039  -1.378   1.216  0.00  0.00    +0.228 A 
ATOM      6  C   UNL     1       1.316  -0.386   0.631  0.00  0.00    +0.037 A 
ATOM      7  C   UNL     1       2.183   0.723   0.632  0.00  0.00    +0.089 A 
ATOM      8  N   UNL     1       3.291   0.322   1.187  0.00  0.00    -0.081 NA
ATOM      9  O   UNL     1       3.233  -0.840   1.519  0.00  0.00    -0.339 OA
ATOM     10  C   UNL     1       1.482   1.902  -0.002  0.00  0.00    +0.059 C 
ATOM     11  C   UNL     1      -0.019   1.540   0.011  0.00  0.00    +0.011 C 
ATOM     12  C   UNL     1       0.002  -0.004   0.002  0.00  0.00    +0.042 C 
ENDBRANCH   3   5
BRANCH   1  17
ATOM     13  C   UNL     1       2.727  -5.974   2.884  0.00  0.00    +0.022 A 
ATOM     14  C   UNL     1       2.076  -7.176   2.996  0.00  0.00    +0.024 A 
ATOM     15  C   UNL     1       0.802  -7.287   2.532  0.00  0.00    +0.056 A 
ATOM     16  S   UNL     1       0.463  -5.699   1.925  0.00  0.00    -0.077 S 
ATOM     17  C   UNL     1       2.030  -4.930   2.294  0.00  0.00    +0.075 A 
ATOM     18 BR   UNL     1      -0.329  -8.803   2.553  0.00  0.00    -0.043 Br
ENDBRANCH   1  17
TORSDOF 2
