REMARK  Name = ZINC39672349
REMARK  8 active torsions:
REMARK  status: ('A' for Active; 'I' for Inactive)
REMARK    1  A    between atoms: C_1  and  C_2
REMARK    2  A    between atoms: C_5  and  C_7
REMARK    3  A    between atoms: C_7  and  N_8
REMARK    4  A    between atoms: C_9  and  C_11
REMARK    5  A    between atoms: C_22  and  C_24
REMARK    6  A    between atoms: C_29  and  O_30
REMARK    7  A    between atoms: O_30  and  C_31
REMARK    8  A    between atoms: C_31  and  C_33
REMARK                            x       y       z     vdW  Elec       q    Type
REMARK                         _______ _______ _______ _____ _____    ______ ____
ROOT
ATOM      1  C   UNL     1      -2.495  -4.658   4.172  0.00  0.00    +0.100 C 
ATOM      2  C   UNL     1      -3.375  -5.111   2.986  0.00  0.00    +0.121 C 
ATOM      3  N   UNL     1      -3.463  -6.583   3.125  0.00  0.00    -0.296 N 
ATOM      4  C   UNL     1      -3.590  -6.809   4.585  0.00  0.00    +0.115 C 
ATOM      5  C   UNL     1      -2.642  -5.773   5.221  0.00  0.00    -0.004 C 
ATOM      6  C   UNL     1      -3.252  -5.216   6.503  0.00  0.00    -0.010 C 
ATOM      7  C   UNL     1      -3.334  -6.330   7.551  0.00  0.00    -0.082 C 
ATOM      8  N   UNL     1      -1.989  -6.857   7.814  0.00  0.00    +0.379 N 
ATOM      9  C   UNL     1      -1.447  -7.474   6.598  0.00  0.00    -0.082 C 
ATOM     10  C   UNL     1      -1.285  -6.409   5.510  0.00  0.00    -0.010 C 
ATOM     11  C   UNL     1      -3.433  -7.509   2.146  0.00  0.00    +0.250 C 
ATOM     12  O   UNL     1      -3.611  -8.682   2.412  0.00  0.00    -0.270 OA
ATOM     13  H   UNL     1      -1.385  -6.103   8.105  0.00  0.00    -0.086 HD
ATOM     14  H   UNL     1      -2.038  -7.548   8.547  0.00  0.00    -0.086 HD
ENDROOT
BRANCH  11  15
ATOM     15  C   UNL     1      -3.185  -7.099   0.750  0.00  0.00    +0.079 A 
ATOM     16  C   UNL     1      -3.678  -5.880   0.278  0.00  0.00    +0.017 A 
ATOM     17  C   UNL     1      -3.442  -5.502  -1.026  0.00  0.00    +0.001 A 
ATOM     18  C   UNL     1      -2.718  -6.326  -1.873  0.00  0.00    +0.004 A 
ATOM     19  C   UNL     1      -2.226  -7.534  -1.419  0.00  0.00    +0.047 A 
ATOM     20  C   UNL     1      -2.449  -7.927  -0.107  0.00  0.00    +0.144 A 
BRANCH  20  21
ATOM     21  O   UNL     1      -1.961  -9.111   0.342  0.00  0.00    -0.425 OA
BRANCH  21  22
ATOM     22  C   UNL     1      -0.763  -9.110   0.950  0.00  0.00    +0.309 C 
ATOM     23  O   UNL     1      -0.196  -8.065   1.164  0.00  0.00    -0.251 OA
ATOM     24  C   UNL     1      -0.128 -10.411   1.365  0.00  0.00    +0.136 C 
ENDBRANCH  21  22
ENDBRANCH  20  21
ENDBRANCH  11  15
BRANCH   1  26
ATOM     25  N   UNL     1      -0.248  -3.638   4.346  0.00  0.00    -0.309 N 
ATOM     26  C   UNL     1      -1.057  -4.530   3.740  0.00  0.00    +0.219 C 
ATOM     27  O   UNL     1      -0.628  -5.230   2.848  0.00  0.00    -0.275 OA
ATOM     28  H   UNL     1      -0.592  -3.078   5.059  0.00  0.00    +0.149 HD
BRANCH  25  29
ATOM     29  C   UNL     1       1.150  -3.514   3.925  0.00  0.00    +0.167 C 
BRANCH  29  34
ATOM     30  C   UNL     1       3.753  -1.720   7.805  0.00  0.00    +0.066 C 
ATOM     31  C   UNL     1       3.018  -1.563   6.499  0.00  0.00    +0.046 A 
ATOM     32  C   UNL     1       2.890  -0.353   5.897  0.00  0.00    +0.070 A 
ATOM     33  S   UNL     1       1.956  -0.805   4.444  0.00  0.00    -0.079 S 
ATOM     34  C   UNL     1       1.831  -2.455   4.753  0.00  0.00    +0.096 A 
ATOM     35  N   UNL     1       2.474  -2.596   5.886  0.00  0.00    -0.248 NA
ENDBRANCH  29  34
ENDBRANCH  25  29
ENDBRANCH   1  26
TORSDOF 6
