REMARK  Name = ZINC40146812
REMARK  9 active torsions:
REMARK  status: ('A' for Active; 'I' for Inactive)
REMARK    1  A    between atoms: C_1  and  C_2
REMARK    2  A    between atoms: C_2  and  C_3
REMARK    3  A    between atoms: C_3  and  C_5
REMARK    4  A    between atoms: C_3  and  C_6
REMARK    5  A    between atoms: C_6  and  C_8
REMARK    6  A    between atoms: C_6  and  N_18
REMARK    7  A    between atoms: C_19  and  C_21
REMARK    8  A    between atoms: N_29  and  C_32
REMARK    9  A    between atoms: C_32  and  C_33
REMARK                            x       y       z     vdW  Elec       q    Type
REMARK                         _______ _______ _______ _____ _____    ______ ____
ROOT
ATOM      1  N   UNL     1       2.553   1.241   1.268  0.00  0.00    -0.301 N 
ATOM      2  C   UNL     1       2.517   2.016   0.166  0.00  0.00    +0.245 C 
ATOM      3  O   UNL     1       2.226   1.529  -0.909  0.00  0.00    -0.270 OA
ATOM      4  H   UNL     1       2.717   1.641   2.136  0.00  0.00    +0.150 HD
ENDROOT
BRANCH   2   5
ATOM      5  C   UNL     1       2.834   3.459   0.264  0.00  0.00    +0.039 A 
ATOM      6  C   UNL     1       3.176   4.013   1.508  0.00  0.00    +0.014 A 
ATOM      7  C   UNL     1       3.471   5.337   1.624  0.00  0.00    +0.016 A 
ATOM      8  C   UNL     1       3.435   6.163   0.491  0.00  0.00    +0.065 A 
ATOM      9  C   UNL     1       3.091   5.617  -0.773  0.00  0.00    +0.080 A 
ATOM     10  C   UNL     1       2.796   4.249  -0.873  0.00  0.00    +0.041 A 
ATOM     11  N   UNL     1       3.062   6.420  -1.846  0.00  0.00    -0.222 NA
ATOM     12  C   UNL     1       3.349   7.707  -1.736  0.00  0.00    +0.183 A 
ATOM     13  N   UNL     1       3.680   8.273  -0.563  0.00  0.00    -0.287 N 
ATOM     14  C   UNL     1       3.735   7.540   0.570  0.00  0.00    +0.262 A 
ATOM     15  O   UNL     1       4.066   8.107   1.743  0.00  0.00    -0.267 OA
ATOM     16  S   UNL     1       3.296   8.688  -3.138  0.00  0.00    -0.011 S 
BRANCH  13  17
ATOM     17  C   UNL     1       3.987   9.705  -0.512  0.00  0.00    +0.124 C 
ATOM     18  C   UNL     1       2.703  10.492  -0.241  0.00  0.00    +0.027 C 
ENDBRANCH  13  17
ENDBRANCH   2   5
BRANCH   1  19
ATOM     19  C   UNL     1       2.342  -0.204   1.155  0.00  0.00    +0.142 C 
BRANCH  19  20
ATOM     20  C   UNL     1       3.083  -0.908   2.263  0.00  0.00    +0.129 A 
ATOM     21  N   UNL     1       4.132  -1.755   2.083  0.00  0.00    -0.340 N 
ATOM     22  H   UNL     1       4.528  -2.008   1.234  0.00  0.00    +0.167 HD
ATOM     23  C   UNL     1       4.529  -2.188   3.332  0.00  0.00    +0.066 A 
ATOM     24  C   UNL     1       5.523  -3.044   3.789  0.00  0.00    +0.028 A 
ATOM     25  C   UNL     1       5.660  -3.271   5.141  0.00  0.00    +0.002 A 
ATOM     26  C   UNL     1       4.812  -2.651   6.048  0.00  0.00    +0.002 A 
ATOM     27  C   UNL     1       3.829  -1.806   5.618  0.00  0.00    +0.030 A 
ATOM     28  C   UNL     1       3.671  -1.560   4.251  0.00  0.00    +0.089 A 
ATOM     29  N   UNL     1       2.817  -0.789   3.531  0.00  0.00    -0.231 NA
ENDBRANCH  19  20
BRANCH  19  30
ATOM     30  C   UNL     1       0.848  -0.512   1.266  0.00  0.00    +0.013 C 
ATOM     31  C   UNL     1       0.310   0.039   2.588  0.00  0.00    +0.010 C 
BRANCH  30  33
ATOM     32  C   UNL     1       1.036  -2.557  -0.158  0.00  0.00    +0.004 C 
ATOM     33  C   UNL     1       0.634  -2.026   1.220  0.00  0.00    +0.002 C 
ENDBRANCH  30  33
ENDBRANCH  19  30
ENDBRANCH   1  19
TORSDOF 6
