REMARK  Name = ZINC12139946
REMARK  10 active torsions:
REMARK  status: ('A' for Active; 'I' for Inactive)
REMARK    1  A    between atoms: C_1  and  N_2
REMARK    2  A    between atoms: C_6  and  C_23
REMARK    3  A    between atoms: C_8  and  C_16
REMARK    4  A    between atoms: C_10  and  C_11
REMARK    5  A    between atoms: C_10  and  O_15
REMARK    6  A    between atoms: C_16  and  C_18
REMARK    7  A    between atoms: C_27  and  O_31
REMARK    8  A    between atoms: C_28  and  O_29
REMARK    9  A    between atoms: O_29  and  C_30
REMARK   10  A    between atoms: O_31  and  C_32
REMARK                            x       y       z     vdW  Elec       q    Type
REMARK                         _______ _______ _______ _____ _____    ______ ____
ROOT
ATOM      1  C   UNL     1       1.980   3.564  -0.086  0.00  0.00    +0.137 C 
ATOM      2  N   UNL     1       1.488   2.371   0.608  0.00  0.00    -0.253 N 
ATOM      3  C   UNL     1       2.322   1.680   1.399  0.00  0.00    +0.305 C 
ATOM      4  O   UNL     1       3.466   2.072   1.525  0.00  0.00    -0.253 OA
ATOM      5  N   UNL     1       1.945   0.573   2.056  0.00  0.00    -0.291 N 
ATOM      6  C   UNL     1       0.579   0.057   1.955  0.00  0.00    +0.124 C 
ATOM      7  C   UNL     1      -0.003   0.438   0.589  0.00  0.00    +0.145 C 
ATOM      8  C   UNL     1       0.096   1.958   0.424  0.00  0.00    +0.245 C 
ATOM      9  H   UNL     1       2.590   0.106   2.609  0.00  0.00    +0.151 HD
ENDROOT
BRANCH   6  10
ATOM     10  C   UNL     1       0.596  -1.444   2.094  0.00  0.00    +0.019 A 
ATOM     11  C   UNL     1       1.417  -2.204   1.282  0.00  0.00    +0.009 A 
ATOM     12  C   UNL     1       1.436  -3.580   1.407  0.00  0.00    +0.004 A 
ATOM     13  C   UNL     1       0.633  -4.203   2.345  0.00  0.00    +0.049 A 
ATOM     14  C   UNL     1      -0.191  -3.447   3.162  0.00  0.00    +0.162 A 
ATOM     15  C   UNL     1      -0.206  -2.061   3.040  0.00  0.00    +0.166 A 
BRANCH  15  16
ATOM     16  O   UNL     1      -1.011  -1.314   3.843  0.00  0.00    -0.491 OA
ATOM     17  C   UNL     1      -2.380  -1.189   3.454  0.00  0.00    +0.277 C 
ENDBRANCH  15  16
BRANCH  14  18
ATOM     18  O   UNL     1      -0.981  -4.058   4.086  0.00  0.00    -0.491 OA
ATOM     19  C   UNL     1      -0.909  -5.484   4.159  0.00  0.00    +0.277 C 
ENDBRANCH  14  18
ENDBRANCH   6  10
BRANCH   8  20
ATOM     20  C   UNL     1      -0.373   2.351  -0.979  0.00  0.00    +0.436 C 
ATOM     21  F   UNL     1      -1.659   1.845  -1.199  0.00  0.00    -0.166 F 
ATOM     22  F   UNL     1      -0.395   3.745  -1.089  0.00  0.00    -0.166 F 
ATOM     23  F   UNL     1       0.505   1.822  -1.930  0.00  0.00    -0.166 F 
ENDBRANCH   8  20
BRANCH   8  24
ATOM     24  O   UNL     1      -0.726   2.599   1.401  0.00  0.00    -0.364 OA
ATOM     25  H   UNL     1      -0.711   3.565   1.354  0.00  0.00    +0.212 HD
ENDBRANCH   8  24
BRANCH   7  26
ATOM     26  C   UNL     1      -1.448   0.014   0.519  0.00  0.00    +0.180 C 
ATOM     27  O   UNL     1      -2.315   0.737   0.966  0.00  0.00    -0.291 OA
BRANCH  26  28
ATOM     28  C   UNL     1      -1.793  -1.224  -0.067  0.00  0.00    +0.055 A 
ATOM     29  C   UNL     1      -3.036  -1.844  -0.138  0.00  0.00    +0.019 A 
ATOM     30  C   UNL     1      -3.092  -3.056  -0.775  0.00  0.00    +0.008 A 
ATOM     31  C   UNL     1      -1.951  -3.590  -1.289  0.00  0.00    +0.046 A 
ATOM     32  S   UNL     1      -0.747  -2.403  -0.903  0.00  0.00    -0.094 S 
ENDBRANCH  26  28
ENDBRANCH   7  26
TORSDOF 7
