REMARK  Name = ZINC13536598
REMARK  4 active torsions:
REMARK  status: ('A' for Active; 'I' for Inactive)
REMARK    1  A    between atoms: N_10  and  N_11
REMARK    2  A    between atoms: C_12  and  C_13
REMARK    3  A    between atoms: C_14  and  C_28
REMARK    4  A    between atoms: C_17  and  O_18
REMARK                            x       y       z     vdW  Elec       q    Type
REMARK                         _______ _______ _______ _____ _____    ______ ____
ROOT
ATOM      1  C   UNL     1       6.061  -5.944  -0.088  0.00  0.00    +0.088 A 
ATOM      2  C   UNL     1       6.565  -7.264  -0.105  0.00  0.00    +0.178 A 
ATOM      3  N   UNL     1       7.869  -7.206  -0.116  0.00  0.00    -0.157 NA
ATOM      4  N   UNL     1       8.267  -5.864  -0.105  0.00  0.00    -0.175 N 
ATOM      5  C   UNL     1       7.150  -5.089  -0.094  0.00  0.00    +0.227 A 
ATOM      6  C   UNL     1       9.579  -5.404  -0.111  0.00  0.00    +0.198 A 
ATOM      7  N   UNL     1      10.017  -4.167  -0.096  0.00  0.00    -0.221 NA
ATOM      8  C   UNL     1      11.332  -3.862  -0.104  0.00  0.00    +0.081 A 
ATOM      9  C   UNL     1      11.931  -2.581  -0.090  0.00  0.00    +0.029 A 
ATOM     10  C   UNL     1      13.295  -2.446  -0.102  0.00  0.00    +0.002 A 
ATOM     11  C   UNL     1      14.133  -3.552  -0.129  0.00  0.00    +0.001 A 
ATOM     12  C   UNL     1      13.581  -4.820  -0.142  0.00  0.00    +0.017 A 
ATOM     13  C   UNL     1      12.216  -4.965  -0.130  0.00  0.00    +0.041 A 
ATOM     14  S   UNL     1      11.098  -6.346  -0.133  0.00  0.00    -0.048 S 
ENDROOT
BRANCH   2  15
ATOM     15  C   UNL     1       5.739  -8.524  -0.111  0.00  0.00    +0.437 C 
ATOM     16  F   UNL     1       5.472  -8.901  -1.432  0.00  0.00    -0.164 F 
ATOM     17  F   UNL     1       6.444  -9.547   0.532  0.00  0.00    -0.164 F 
ATOM     18  F   UNL     1       4.534  -8.294   0.561  0.00  0.00    -0.164 F 
ENDBRANCH   2  15
BRANCH   1  20
ATOM     19  N   UNL     1       4.314  -4.295  -0.062  0.00  0.00    -0.188 NA
ATOM     20  C   UNL     1       4.640  -5.552  -0.072  0.00  0.00    +0.145 C 
BRANCH  19  30
ATOM     21  C   UNL     1      -0.017   1.366   0.010  0.00  0.00    +0.002 A 
ATOM     22  C   UNL     1       1.156   2.107   0.002  0.00  0.00    +0.001 A 
ATOM     23  C   UNL     1       2.373   1.449  -0.013  0.00  0.00    +0.017 A 
ATOM     24  C   UNL     1       2.401   0.077  -0.021  0.00  0.00    +0.041 A 
ATOM     25  C   UNL     1       1.227  -0.710  -0.013  0.00  0.00    +0.080 A 
ATOM     26  C   UNL     1       0.002  -0.004   0.002  0.00  0.00    +0.029 A 
ATOM     27  N   UNL     1       1.419  -2.047  -0.023  0.00  0.00    -0.224 NA
ATOM     28  C   UNL     1       2.617  -2.588  -0.037  0.00  0.00    +0.179 A 
ATOM     29  S   UNL     1       3.683  -1.153  -0.039  0.00  0.00    -0.051 S 
ATOM     30  N   UNL     1       2.963  -3.922  -0.047  0.00  0.00    -0.215 N 
ATOM     31  H   UNL     1       2.272  -4.603  -0.044  0.00  0.00    +0.176 HD
ENDBRANCH  19  30
ENDBRANCH   1  20
BRANCH   5  32
ATOM     32  O   UNL     1       7.109  -3.734  -0.087  0.00  0.00    -0.492 OA
ATOM     33  H   UNL     1       7.106  -3.345   0.798  0.00  0.00    +0.294 HD
ENDBRANCH   5  32
TORSDOF 4
