REMARK  Name = ZINC66908373
REMARK  5 active torsions:
REMARK  status: ('A' for Active; 'I' for Inactive)
REMARK    1  A    between atoms: C_4  and  C_6
REMARK    2  A    between atoms: C_6  and  C_7
REMARK    3  A    between atoms: N_9  and  C_10
REMARK    4  A    between atoms: N_18  and  C_19
REMARK    5  A    between atoms: N_22  and  C_25
REMARK                            x       y       z     vdW  Elec       q    Type
REMARK                         _______ _______ _______ _____ _____    ______ ____
ROOT
ATOM      1  C   UNL     1      -0.395  -4.744  -2.131  0.00  0.00    +0.076 C 
ATOM      2  C   UNL     1       0.700  -5.741  -1.741  0.00  0.00    +0.041 C 
ATOM      3  C   UNL     1       0.054  -7.073  -1.345  0.00  0.00    +0.111 C 
ATOM      4  N   UNL     1      -0.810  -7.524  -2.444  0.00  0.00    -0.286 N 
ATOM      5  C   UNL     1      -1.838  -6.608  -2.957  0.00  0.00    +0.111 C 
ATOM      6  C   UNL     1      -1.171  -5.281  -3.335  0.00  0.00    +0.041 C 
ATOM      7  C   UNL     1      -0.663  -8.756  -2.972  0.00  0.00    +0.302 C 
ATOM      8  O   UNL     1       0.251  -9.469  -2.606  0.00  0.00    -0.253 OA
ATOM      9  N   UNL     1      -1.529  -9.196  -3.906  0.00  0.00    -0.297 N 
ATOM     10  H   UNL     1      -2.214  -8.602  -4.251  0.00  0.00    +0.151 HD
ENDROOT
BRANCH   9  11
ATOM     11  C   UNL     1      -1.436 -10.572  -4.401  0.00  0.00    +0.071 C 
ATOM     12  C   UNL     1      -0.415 -10.639  -5.540  0.00  0.00    +0.004 C 
ATOM     13  C   UNL     1      -0.380 -12.061  -6.104  0.00  0.00    -0.077 C 
ATOM     14  N   UNL     1      -1.709 -12.421  -6.614  0.00  0.00    +0.382 N 
ATOM     15  C   UNL     1      -2.679 -12.429  -5.513  0.00  0.00    -0.077 C 
ATOM     16  C   UNL     1      -2.802 -11.021  -4.926  0.00  0.00    +0.004 C 
ATOM     17  H   UNL     1      -1.996 -11.748  -7.309  0.00  0.00    -0.081 HD
BRANCH  14  18
ATOM     18  C   UNL     1      -1.652 -13.756  -7.224  0.00  0.00    -0.069 C 
ATOM     19  C   UNL     1      -1.820 -13.847  -8.742  0.00  0.00    -0.017 C 
ATOM     20  C   UNL     1      -2.946 -14.317  -7.819  0.00  0.00    -0.017 C 
ENDBRANCH  14  18
ENDBRANCH   9  11
BRANCH   1  23
ATOM     21  C   UNL     1       0.507  -2.567  -1.510  0.00  0.00    +0.214 C 
ATOM     22  O   UNL     1       0.262  -2.829  -0.351  0.00  0.00    -0.276 OA
ATOM     23  N   UNL     1       0.217  -3.459  -2.478  0.00  0.00    -0.312 N 
ATOM     24  H   UNL     1       0.413  -3.250  -3.405  0.00  0.00    +0.149 HD
BRANCH  21  25
ATOM     25  C   UNL     1       1.136  -1.245  -1.867  0.00  0.00    +0.099 C 
BRANCH  25  29
ATOM     26  C   UNL     1      -0.011   1.537   0.015  0.00  0.00    +0.000 C 
ATOM     27  C   UNL     1       1.486   1.934   0.009  0.00  0.00    +0.000 C 
ATOM     28  C   UNL     1       2.116   0.876  -0.930  0.00  0.00    +0.004 C 
ATOM     29  C   UNL     1       1.360  -0.426  -0.595  0.00  0.00    -0.002 C 
ATOM     30  C   UNL     1       0.007  -0.006   0.006  0.00  0.00    +0.004 C 
ENDBRANCH  25  29
ENDBRANCH  21  25
ENDBRANCH   1  23
TORSDOF 5
