REMARK  Name = ZINC09272461
REMARK  7 active torsions:
REMARK  status: ('A' for Active; 'I' for Inactive)
REMARK    1  A    between atoms: C_1  and  C_2
REMARK    2  A    between atoms: C_9  and  N_31
REMARK    3  A    between atoms: C_10  and  C_29
REMARK    4  A    between atoms: C_11  and  C_13
REMARK    5  A    between atoms: C_17  and  O_19
REMARK    6  A    between atoms: O_19  and  C_20
REMARK    7  A    between atoms: C_20  and  C_21
REMARK                            x       y       z     vdW  Elec       q    Type
REMARK                         _______ _______ _______ _____ _____    ______ ____
ROOT
ATOM      1  C   UNL     1      -0.018   1.503   0.010  0.00  0.00    +0.068 C 
ATOM      2  C   UNL     1       0.002  -0.004   0.002  0.00  0.00    +0.068 A 
ATOM      3  C   UNL     1       0.008  -0.813  -1.126  0.00  0.00    +0.049 A 
ATOM      4  C   UNL     1       0.028  -2.116  -0.713  0.00  0.00    +0.222 A 
ATOM      5  N   UNL     1       0.033  -2.116   0.629  0.00  0.00    -0.246 N 
ATOM      6  H   UNL     1       0.046  -2.900   1.201  0.00  0.00    +0.192 HD
ATOM      7  N   UNL     1       0.023  -0.780   1.060  0.00  0.00    -0.176 NA
ATOM      8  O   UNL     1       0.042  -3.159  -1.580  0.00  0.00    -0.423 OA
ATOM      9  C   UNL     1       0.311  -2.892  -2.874  0.00  0.00    +0.200 C 
ATOM     10  C   UNL     1       0.309  -1.648  -3.402  0.00  0.00    +0.098 C 
ATOM     11  C   UNL     1      -0.005  -0.421  -2.581  0.00  0.00    +0.101 C 
ENDROOT
BRANCH  11  12
ATOM     12  C   UNL     1      -1.367   0.105  -2.954  0.00  0.00    -0.031 A 
ATOM     13  C   UNL     1      -2.482  -0.702  -2.814  0.00  0.00    +0.005 A 
ATOM     14  C   UNL     1      -3.732  -0.222  -3.155  0.00  0.00    +0.004 A 
ATOM     15  C   UNL     1      -3.872   1.065  -3.637  0.00  0.00    +0.045 A 
ATOM     16  C   UNL     1      -2.755   1.877  -3.779  0.00  0.00    +0.121 A 
ATOM     17  C   UNL     1      -1.502   1.395  -3.430  0.00  0.00    +0.050 A 
BRANCH  16  18
ATOM     18  O   UNL     1      -2.890   3.143  -4.253  0.00  0.00    -0.487 OA
BRANCH  18  19
ATOM     19  C   UNL     1      -4.211   3.574  -4.587  0.00  0.00    +0.266 C 
BRANCH  19  20
ATOM     20  C   UNL     1      -4.164   4.993  -5.091  0.00  0.00    +0.008 A 
ATOM     21  C   UNL     1      -2.954   5.658  -5.174  0.00  0.00    +0.010 A 
ATOM     22  C   UNL     1      -2.910   6.959  -5.637  0.00  0.00    +0.020 A 
ATOM     23  C   UNL     1      -4.077   7.598  -6.018  0.00  0.00    +0.042 A 
ATOM     24  C   UNL     1      -5.287   6.933  -5.936  0.00  0.00    +0.040 A 
ATOM     25  C   UNL     1      -5.330   5.629  -5.478  0.00  0.00    +0.049 A 
ATOM     26 CL   UNL     1      -6.848   4.792  -5.380  0.00  0.00    -0.083 Cl
ATOM     27 CL   UNL     1      -4.022   9.233  -6.599  0.00  0.00    -0.083 Cl
ENDBRANCH  19  20
ENDBRANCH  18  19
ENDBRANCH  16  18
ENDBRANCH  11  12
BRANCH   9  28
ATOM     28  N   UNL     1       0.605  -3.945  -3.704  0.00  0.00    -0.328 N 
ATOM     29  H   UNL     1       0.615  -4.850  -3.354  0.00  0.00    +0.145 HD
ATOM     30  H   UNL     1       0.803  -3.785  -4.640  0.00  0.00    +0.145 HD
ENDBRANCH   9  28
BRANCH  10  31
ATOM     31  C   UNL     1       0.616  -1.487  -4.791  0.00  0.00    +0.101 C 
ATOM     32  N   UNL     1       0.860  -1.360  -5.894  0.00  0.00    -0.191 NA
ENDBRANCH  10  31
TORSDOF 6
