REMARK  Name = ZINC63289578
REMARK  9 active torsions:
REMARK  status: ('A' for Active; 'I' for Inactive)
REMARK    1  A    between atoms: C_1  and  C_2
REMARK    2  A    between atoms: C_4  and  N_10
REMARK    3  A    between atoms: C_8  and  C_9
REMARK    4  A    between atoms: N_10  and  S_11
REMARK    5  A    between atoms: S_11  and  C_14
REMARK    6  A    between atoms: C_17  and  N_20
REMARK    7  A    between atoms: C_21  and  C_23
REMARK    8  A    between atoms: C_23  and  S_24
REMARK    9  A    between atoms: S_24  and  C_25
REMARK                            x       y       z     vdW  Elec       q    Type
REMARK                         _______ _______ _______ _____ _____    ______ ____
ROOT
ATOM      1  C   UNL     1      -4.751  -0.978   0.096  0.00  0.00    +0.105 A 
ATOM      2  C   UNL     1      -4.707  -2.357   0.174  0.00  0.00    +0.030 A 
ATOM      3  C   UNL     1      -5.433  -3.020   1.145  0.00  0.00    +0.025 A 
ATOM      4  C   UNL     1      -6.207  -2.298   2.044  0.00  0.00    +0.034 A 
ATOM      5  C   UNL     1      -6.249  -0.912   1.964  0.00  0.00    +0.025 A 
ATOM      6  C   UNL     1      -5.517  -0.256   0.993  0.00  0.00    +0.030 A 
ENDROOT
BRANCH   4   7
ATOM      7  N   UNL     1      -6.943  -2.966   3.029  0.00  0.00    -0.285 N 
ATOM      8  C   UNL     1      -6.467  -4.105   3.570  0.00  0.00    +0.227 C 
ATOM      9  O   UNL     1      -5.359  -4.500   3.274  0.00  0.00    -0.275 OA
ATOM     10  H   UNL     1      -7.796  -2.609   3.322  0.00  0.00    +0.155 HD
BRANCH   8  11
ATOM     11  C   UNL     1      -7.312  -4.887   4.542  0.00  0.00    +0.169 C 
BRANCH  11  12
ATOM     12  S   UNL     1      -6.400  -6.357   5.088  0.00  0.00    -0.106 S 
BRANCH  12  13
ATOM     13  C   UNL     1      -7.538  -7.178   6.237  0.00  0.00    +0.236 C 
ATOM     14  N   UNL     1      -8.811  -7.467   5.566  0.00  0.00    -0.355 N 
ATOM     15  C   UNL     1      -9.746  -6.827   6.207  0.00  0.00    +0.061 A 
ATOM     16  C   UNL     1     -11.199  -6.726   6.016  0.00  0.00    +0.027 A 
ATOM     17  C   UNL     1     -11.930  -5.969   6.859  0.00  0.00    +0.002 A 
ATOM     18  C   UNL     1     -11.358  -5.261   7.931  0.00  0.00    +0.002 A 
ATOM     19  C   UNL     1     -10.036  -5.286   8.196  0.00  0.00    +0.027 A 
ATOM     20  C   UNL     1      -9.140  -6.078   7.342  0.00  0.00    +0.061 A 
ATOM     21  N   UNL     1      -7.855  -6.284   7.358  0.00  0.00    -0.355 N 
ATOM     22  H   UNL     1      -8.933  -8.031   4.786  0.00  0.00    +0.162 HD
ATOM     23  H   UNL     1      -7.223  -5.914   7.994  0.00  0.00    +0.162 HD
ENDBRANCH  12  13
ENDBRANCH  11  12
ENDBRANCH   8  11
ENDBRANCH   4   7
BRANCH   1  24
ATOM     24  S   UNL     1      -3.825  -0.137  -1.144  0.00  0.00    +0.061 S 
ATOM     25  O   UNL     1      -4.460   1.118  -1.345  0.00  0.00    -0.153 OA
ATOM     26  O   UNL     1      -3.623  -1.066  -2.200  0.00  0.00    -0.153 OA
BRANCH  24  27
ATOM     27  N   UNL     1      -2.331   0.185  -0.505  0.00  0.00    -0.149 NA
ATOM     28  H   UNL     1      -2.053   1.103  -0.361  0.00  0.00    +0.152 HD
BRANCH  27  31
ATOM     29  C   UNL     1       0.193   1.030  -0.188  0.00  0.00    +0.019 C 
ATOM     30  C   UNL     1       0.051  -0.489  -0.306  0.00  0.00    +0.093 C 
ATOM     31  C   UNL     1      -1.430  -0.916  -0.159  0.00  0.00    +0.301 C 
ATOM     32  O   UNL     1      -1.503  -1.222   1.249  0.00  0.00    -0.373 OA
ATOM     33  N   UNL     1      -0.200  -1.563   1.679  0.00  0.00    -0.092 NA
ATOM     34  C   UNL     1       0.716  -1.185   0.866  0.00  0.00    +0.062 C 
ATOM     35  C   UNL     1       2.198  -1.394   1.041  0.00  0.00    +0.064 C 
ENDBRANCH  27  31
ENDBRANCH  24  27
ENDBRANCH   1  24
TORSDOF 7
