REMARK  Name = ZINC10068738
REMARK  15 active torsions:
REMARK  status: ('A' for Active; 'I' for Inactive)
REMARK    1  A    between atoms: C_1  and  C_2
REMARK    2  A    between atoms: C_2  and  C_3
REMARK    3  A    between atoms: C_2  and  C_4
REMARK    4  A    between atoms: C_2  and  C_5
REMARK    5  A    between atoms: C_8  and  C_11
REMARK    6  A    between atoms: N_13  and  C_14
REMARK    7  A    between atoms: C_14  and  C_15
REMARK    8  A    between atoms: C_15  and  C_16
REMARK    9  A    between atoms: C_16  and  N_65
REMARK   10  A    between atoms: C_17  and  N_65
REMARK   11  A    between atoms: C_18  and  N_65
REMARK   12  A    between atoms: C_22  and  O_30
REMARK   13  A    between atoms: C_25  and  O_28
REMARK   14  A    between atoms: O_28  and  C_29
REMARK   15  A    between atoms: O_30  and  C_31
REMARK                            x       y       z     vdW  Elec       q    Type
REMARK                         _______ _______ _______ _____ _____    ______ ____
ROOT
ATOM      1  C   UNL     1      -0.157   1.472  -0.124  0.00  0.00    +0.252 C 
ATOM      2  O   UNL     1      -1.110   1.901   0.497  0.00  0.00    -0.270 OA
ATOM      3  N   UNL     1      -0.145   0.191  -0.540  0.00  0.00    -0.246 N 
ATOM      4  C   UNL     1      -1.188  -0.657  -0.203  0.00  0.00    +0.169 A 
ATOM      5  N   UNL     1      -1.356  -1.920  -0.516  0.00  0.00    -0.221 NA
ATOM      6  C   UNL     1      -2.430  -2.632  -0.109  0.00  0.00    +0.125 A 
ATOM      7  C   UNL     1      -2.728  -3.994  -0.372  0.00  0.00    +0.147 A 
ATOM      8  C   UNL     1      -3.877  -4.569   0.116  0.00  0.00    +0.051 A 
ATOM      9  C   UNL     1      -4.784  -3.843   0.876  0.00  0.00    +0.050 A 
ATOM     10  C   UNL     1      -4.524  -2.510   1.151  0.00  0.00    +0.136 A 
ATOM     11  C   UNL     1      -3.374  -1.926   0.667  0.00  0.00    +0.086 A 
ATOM     12  S   UNL     1      -2.650  -0.306   0.762  0.00  0.00    -0.048 S 
ENDROOT
BRANCH   1  16
ATOM     13  C   UNL     1       3.129   4.019  -0.995  0.00  0.00    -0.042 A 
ATOM     14  C   UNL     1       1.865   4.557  -0.829  0.00  0.00    +0.005 A 
ATOM     15  C   UNL     1       0.794   3.736  -0.546  0.00  0.00    +0.013 A 
ATOM     16  C   UNL     1       0.987   2.358  -0.427  0.00  0.00    +0.037 A 
ATOM     17  C   UNL     1       2.265   1.822  -0.590  0.00  0.00    +0.013 A 
ATOM     18  C   UNL     1       3.327   2.654  -0.879  0.00  0.00    +0.005 A 
BRANCH  13  20
ATOM     19  C   UNL     1       4.468   5.936  -0.171  0.00  0.00    +0.015 C 
ATOM     20  C   UNL     1       4.295   4.922  -1.304  0.00  0.00    -0.013 C 
ATOM     21  C   UNL     1       5.568   4.084  -1.438  0.00  0.00    +0.015 C 
ATOM     22  C   UNL     1       4.032   5.664  -2.616  0.00  0.00    +0.015 C 
ENDBRANCH  13  20
ENDBRANCH   1  16
BRANCH  10  23
ATOM     23  O   UNL     1      -5.400  -1.781   1.896  0.00  0.00    -0.494 OA
ATOM     24  C   UNL     1      -6.570  -2.454   2.363  0.00  0.00    +0.277 C 
ENDBRANCH  10  23
BRANCH   7  25
ATOM     25  O   UNL     1      -1.866  -4.740  -1.114  0.00  0.00    -0.493 OA
ATOM     26  C   UNL     1      -2.221  -6.105  -1.343  0.00  0.00    +0.277 C 
ENDBRANCH   7  25
BRANCH   3  27
ATOM     27  C   UNL     1       0.970  -0.306  -1.350  0.00  0.00    +0.114 C 
BRANCH  27  28
ATOM     28  C   UNL     1       1.845  -1.230  -0.500  0.00  0.00    +0.001 C 
BRANCH  28  29
ATOM     29  C   UNL     1       3.010  -1.749  -1.346  0.00  0.00    -0.078 C 
BRANCH  29  32
ATOM     30  C   UNL     1       4.837  -3.338  -1.361  0.00  0.00    -0.097 C 
ATOM     31  C   UNL     1       4.508  -1.890   0.551  0.00  0.00    -0.097 C 
ATOM     32  N   UNL     1       3.833  -2.656  -0.518  0.00  0.00    +0.376 N 
ATOM     33  H   UNL     1       3.223  -3.361  -0.088  0.00  0.00    -0.083 HD
ENDBRANCH  29  32
ENDBRANCH  28  29
ENDBRANCH  27  28
ENDBRANCH   3  27
TORSDOF 8
