REMARK  Name = ZINC39676238
REMARK  7 active torsions:
REMARK  status: ('A' for Active; 'I' for Inactive)
REMARK    1  A    between atoms: C_1  and  C_2
REMARK    2  A    between atoms: C_2  and  C_4
REMARK    3  A    between atoms: C_2  and  O_33
REMARK    4  A    between atoms: C_8  and  C_17
REMARK    5  A    between atoms: N_19  and  C_20
REMARK    6  A    between atoms: C_20  and  C_21
REMARK    7  A    between atoms: O_33  and  C_34
REMARK                            x       y       z     vdW  Elec       q    Type
REMARK                         _______ _______ _______ _____ _____    ______ ____
ROOT
ATOM      1  C   UNL     1       0.610  -0.642  -1.166  0.00  0.00    +0.256 C 
ATOM      2  O   UNL     1       1.711  -1.064  -0.884  0.00  0.00    -0.272 OA
ATOM      3  N   UNL     1       0.225  -0.571  -2.456  0.00  0.00    -0.297 N 
ATOM      4  C   UNL     1      -1.096  -0.163  -2.989  0.00  0.00    +0.121 C 
ATOM      5  C   UNL     1      -0.768   0.674  -4.246  0.00  0.00    +0.100 C 
ATOM      6  C   UNL     1       0.626   0.194  -4.684  0.00  0.00    -0.004 C 
ATOM      7  C   UNL     1       1.031  -0.879  -3.663  0.00  0.00    +0.115 C 
ATOM      8  C   UNL     1       1.620   1.352  -4.645  0.00  0.00    -0.010 C 
ATOM      9  C   UNL     1       2.985   0.864  -5.139  0.00  0.00    -0.082 C 
ATOM     10  N   UNL     1       2.856   0.348  -6.507  0.00  0.00    +0.379 N 
ATOM     11  C   UNL     1       1.971  -0.823  -6.521  0.00  0.00    -0.082 C 
ATOM     12  C   UNL     1       0.563  -0.406  -6.085  0.00  0.00    -0.010 C 
ATOM     13  H   UNL     1       2.470   1.067  -7.101  0.00  0.00    -0.086 HD
ATOM     14  H   UNL     1       3.767   0.084  -6.853  0.00  0.00    -0.086 HD
ENDROOT
BRANCH   5  15
ATOM     15  C   UNL     1      -0.737   2.142  -3.906  0.00  0.00    +0.219 C 
ATOM     16  O   UNL     1      -0.264   2.510  -2.852  0.00  0.00    -0.275 OA
ATOM     17  N   UNL     1      -1.237   3.045  -4.773  0.00  0.00    -0.308 N 
ATOM     18  H   UNL     1      -1.616   2.750  -5.616  0.00  0.00    +0.149 HD
BRANCH  17  19
ATOM     19  C   UNL     1      -1.207   4.471  -4.443  0.00  0.00    +0.178 C 
BRANCH  19  20
ATOM     20  C   UNL     1      -1.822   5.261  -5.570  0.00  0.00    +0.128 A 
ATOM     21  N   UNL     1      -1.881   6.613  -5.452  0.00  0.00    -0.309 N 
ATOM     22  H   UNL     1      -1.533   7.042  -4.655  0.00  0.00    +0.170 HD
ATOM     23  C   UNL     1      -2.423   7.367  -6.436  0.00  0.00    +0.259 A 
ATOM     24  O   UNL     1      -2.483   8.580  -6.344  0.00  0.00    -0.267 OA
ATOM     25  C   UNL     1      -2.937   6.665  -7.622  0.00  0.00    +0.065 A 
ATOM     26  C   UNL     1      -3.514   7.348  -8.691  0.00  0.00    +0.015 A 
ATOM     27  C   UNL     1      -3.979   6.640  -9.777  0.00  0.00    +0.001 A 
ATOM     28  C   UNL     1      -3.877   5.256  -9.814  0.00  0.00    +0.002 A 
ATOM     29  C   UNL     1      -3.311   4.562  -8.768  0.00  0.00    +0.028 A 
ATOM     30  C   UNL     1      -2.832   5.257  -7.656  0.00  0.00    +0.078 A 
ATOM     31  N   UNL     1      -2.262   4.614  -6.606  0.00  0.00    -0.232 NA
ENDBRANCH  19  20
ENDBRANCH  17  19
ENDBRANCH   5  15
BRANCH   1  33
ATOM     32  C   UNL     1      -0.493   1.323  -0.131  0.00  0.00    +0.062 C 
ATOM     33  C   UNL     1      -0.329  -0.197  -0.075  0.00  0.00    +0.256 C 
BRANCH  33  34
ATOM     34  O   UNL     1       0.206  -0.572   1.196  0.00  0.00    -0.480 OA
BRANCH  34  35
ATOM     35  C   UNL     1      -0.679  -0.739   2.213  0.00  0.00    +0.122 A 
ATOM     36  C   UNL     1      -2.021  -0.443   2.023  0.00  0.00    +0.045 A 
ATOM     37  C   UNL     1      -2.919  -0.615   3.059  0.00  0.00    +0.004 A 
ATOM     38  C   UNL     1      -2.481  -1.081   4.284  0.00  0.00    +0.000 A 
ATOM     39  C   UNL     1      -1.144  -1.377   4.477  0.00  0.00    +0.004 A 
ATOM     40  C   UNL     1      -0.243  -1.213   3.443  0.00  0.00    +0.045 A 
ENDBRANCH  34  35
ENDBRANCH  33  34
ENDBRANCH   1  33
TORSDOF 6
