REMARK  Name = ZINC12191039
REMARK  5 active torsions:
REMARK  status: ('A' for Active; 'I' for Inactive)
REMARK    1  A    between atoms: C_1  and  N_2
REMARK    2  A    between atoms: C_4  and  C_7
REMARK    3  A    between atoms: C_7  and  N_8
REMARK    4  A    between atoms: C_19  and  N_54
REMARK    5  A    between atoms: C_23  and  N_54
REMARK                            x       y       z     vdW  Elec       q    Type
REMARK                         _______ _______ _______ _____ _____    ______ ____
ROOT
ATOM      1  N   UNL     1       4.047   0.755  -1.414  0.00  0.00    -0.294 N 
ATOM      2  C   UNL     1       4.292  -0.420  -2.047  0.00  0.00    +0.203 A 
ATOM      3  N   UNL     1       4.710  -0.447  -3.285  0.00  0.00    -0.230 NA
ATOM      4  C   UNL     1       4.921   0.680  -3.959  0.00  0.00    +0.116 A 
ATOM      5  C   UNL     1       4.703   1.943  -3.387  0.00  0.00    +0.076 A 
ATOM      6  C   UNL     1       4.237   1.937  -2.031  0.00  0.00    +0.263 A 
ATOM      7  O   UNL     1       4.018   2.983  -1.446  0.00  0.00    -0.267 OA
ATOM      8  C   UNL     1       4.978   3.092  -4.248  0.00  0.00    -0.023 A 
ATOM      9  C   UNL     1       5.411   2.830  -5.499  0.00  0.00    -0.006 A 
ATOM     10  S   UNL     1       5.477   1.062  -5.601  0.00  0.00    -0.073 S 
ATOM     11  C   UNL     1       5.761   3.823  -6.565  0.00  0.00    +0.027 C 
ATOM     12  C   UNL     1       5.911   5.203  -5.911  0.00  0.00    -0.066 C 
ATOM     13  C   UNL     1       4.707   5.446  -4.996  0.00  0.00    -0.011 C 
ATOM     14  C   UNL     1       4.790   4.531  -3.774  0.00  0.00    +0.035 C 
ENDROOT
BRANCH  12  15
ATOM     15  N   UNL     1       5.948   6.245  -6.955  0.00  0.00    +0.383 N 
ATOM     16  H   UNL     1       5.628   7.136  -6.556  0.00  0.00    -0.085 HD
ATOM     17  H   UNL     1       5.327   5.974  -7.726  0.00  0.00    -0.085 HD
BRANCH  15  18
ATOM     18  C   UNL     1       7.321   6.407  -7.468  0.00  0.00    -0.071 C 
ATOM     19  C   UNL     1       8.093   7.372  -6.566  0.00  0.00    -0.016 C 
ATOM     20  C   UNL     1       9.514   7.547  -7.105  0.00  0.00    -0.002 C 
ATOM     21  C   UNL     1       9.456   8.113  -8.525  0.00  0.00    -0.000 C 
ATOM     22  C   UNL     1       8.683   7.148  -9.427  0.00  0.00    -0.002 C 
ATOM     23  C   UNL     1       7.262   6.973  -8.889  0.00  0.00    -0.016 C 
ENDBRANCH  15  18
ENDBRANCH  12  15
BRANCH   1  24
ATOM     24  C   UNL     1       3.572   0.738  -0.028  0.00  0.00    +0.164 C 
BRANCH  24  28
ATOM     25  C   UNL     1      -1.171  -0.882   0.008  0.00  0.00    +0.172 C 
ATOM     26  N   UNL     1       0.002  -0.004   0.002  0.00  0.00    -0.274 N 
ATOM     27  C   UNL     1       1.292  -0.402  -0.012  0.00  0.00    +0.113 A 
ATOM     28  C   UNL     1       2.066   0.708  -0.014  0.00  0.00    +0.010 A 
ATOM     29  C   UNL     1       1.220   1.822   0.000  0.00  0.00    +0.139 A 
ATOM     30  N   UNL     1      -0.017   1.397   0.010  0.00  0.00    -0.180 NA
ENDBRANCH  24  28
ENDBRANCH   1  24
TORSDOF 4
