REMARK  Name = ZINC14541702
REMARK  10 active torsions:
REMARK  status: ('A' for Active; 'I' for Inactive)
REMARK    1  A    between atoms: C_1  and  C_2
REMARK    2  A    between atoms: C_2  and  O_3
REMARK    3  A    between atoms: O_3  and  C_4
REMARK    4  A    between atoms: C_4  and  C_6
REMARK    5  A    between atoms: C_9  and  C_11
REMARK    6  A    between atoms: C_11  and  C_12
REMARK    7  A    between atoms: C_12  and  N_65
REMARK    8  A    between atoms: C_13  and  N_65
REMARK    9  A    between atoms: C_19  and  C_23
REMARK   10  A    between atoms: N_21  and  C_22
REMARK                            x       y       z     vdW  Elec       q    Type
REMARK                         _______ _______ _______ _____ _____    ______ ____
ROOT
ATOM      1  C   UNL     1       0.499   4.065  -0.369  0.00  0.00    -0.067 C 
ATOM      2  C   UNL     1      -0.730   3.644   0.441  0.00  0.00    -0.009 C 
ATOM      3  C   UNL     1      -1.205   2.261  -0.021  0.00  0.00    +0.054 C 
ATOM      4  C   UNL     1      -0.018   1.333  -0.042  0.00  0.00    +0.043 A 
ATOM      5  C   UNL     1       1.271   1.754  -0.015  0.00  0.00    +0.004 A 
ATOM      6  C   UNL     1       2.058   0.590  -0.039  0.00  0.00    +0.151 A 
ATOM      7  N   UNL     1       1.220  -0.432  -0.080  0.00  0.00    -0.166 NA
ATOM      8  N   UNL     1       0.003  -0.009  -0.083  0.00  0.00    -0.270 N 
ATOM      9  C   UNL     1      -1.184  -0.867  -0.124  0.00  0.00    +0.172 C 
ATOM     10  C   UNL     1       1.699   3.195   0.028  0.00  0.00    +0.023 C 
ENDROOT
BRANCH   6  11
ATOM     11  C   UNL     1       3.533   0.522  -0.022  0.00  0.00    +0.267 C 
ATOM     12  O   UNL     1       4.190   1.542  -0.092  0.00  0.00    -0.268 OA
ATOM     13  N   UNL     1       4.151  -0.672   0.071  0.00  0.00    -0.292 N 
ATOM     14  C   UNL     1       5.617  -0.770   0.173  0.00  0.00    +0.113 C 
ATOM     15  C   UNL     1       5.954  -1.374   1.535  0.00  0.00    +0.054 C 
ATOM     16  C   UNL     1       5.111  -2.592   1.806  0.00  0.00    -0.041 A 
ATOM     17  C   UNL     1       5.564  -3.489   2.765  0.00  0.00    +0.004 A 
ATOM     18  C   UNL     1       4.834  -4.620   3.069  0.00  0.00    +0.000 A 
ATOM     19  C   UNL     1       3.641  -4.864   2.415  0.00  0.00    +0.000 A 
ATOM     20  C   UNL     1       3.190  -3.977   1.459  0.00  0.00    +0.005 A 
ATOM     21  C   UNL     1       3.927  -2.841   1.149  0.00  0.00    -0.027 A 
ATOM     22  C   UNL     1       3.391  -1.926   0.082  0.00  0.00    +0.143 C 
ENDBRANCH   6  11
BRANCH   1  23
ATOM     23  N   UNL     1       0.812   5.479  -0.089  0.00  0.00    +0.381 N 
ATOM     24  H   UNL     1       0.599   5.685   0.894  0.00  0.00    -0.086 HD
ATOM     25  H   UNL     1       1.810   5.646  -0.265  0.00  0.00    -0.086 HD
BRANCH  23  26
ATOM     26  C   UNL     1       0.011   6.363  -0.956  0.00  0.00    -0.075 C 
BRANCH  26  27
ATOM     27  C   UNL     1       0.357   7.821  -0.643  0.00  0.00    +0.044 C 
BRANCH  27  31
ATOM     28  C   UNL     1      -2.207  10.039  -2.206  0.00  0.00    +0.155 A 
ATOM     29  C   UNL     1      -1.509  10.277  -3.364  0.00  0.00    +0.082 A 
ATOM     30  S   UNL     1      -0.066   9.353  -3.095  0.00  0.00    -0.080 S 
ATOM     31  C   UNL     1      -0.458   8.731  -1.524  0.00  0.00    +0.077 A 
ATOM     32  N   UNL     1      -1.640   9.243  -1.298  0.00  0.00    -0.238 NA
BRANCH  28  33
ATOM     33  C   UNL     1      -3.533  10.634  -1.978  0.00  0.00    +0.358 C 
ATOM     34  O   UNL     1      -4.030  11.352  -2.823  0.00  0.00    -0.243 OA
BRANCH  33  35
ATOM     35  O   UNL     1      -4.196  10.383  -0.832  0.00  0.00    -0.460 OA
BRANCH  35  37
ATOM     36  C   UNL     1      -6.094  10.606   0.677  0.00  0.00    +0.048 C 
ATOM     37  C   UNL     1      -5.499  11.004  -0.675  0.00  0.00    +0.229 C 
ENDBRANCH  35  37
ENDBRANCH  33  35
ENDBRANCH  28  33
ENDBRANCH  27  31
ENDBRANCH  26  27
ENDBRANCH  23  26
ENDBRANCH   1  23
TORSDOF 8
