REMARK  Name = ZINC43051209
REMARK  4 active torsions:
REMARK  status: ('A' for Active; 'I' for Inactive)
REMARK    1  A    between atoms: C_5  and  C_7
REMARK    2  A    between atoms: C_7  and  C_9
REMARK    3  A    between atoms: C_7  and  N_11
REMARK    4  A    between atoms: C_9  and  N_10
REMARK                            x       y       z     vdW  Elec       q    Type
REMARK                         _______ _______ _______ _____ _____    ______ ____
ROOT
ATOM      1  C   UNL     1       1.229  -2.186  -0.022  0.00  0.00    +0.088 C 
ENDROOT
BRANCH   1   2
ATOM      2  N   UNL     1      -0.011  -2.695   0.572  0.00  0.00    -0.314 N 
ATOM      3  C   UNL     1      -1.311  -2.464  -0.075  0.00  0.00    +0.201 C 
ATOM      4  C   UNL     1      -2.327  -2.104   0.979  0.00  0.00    +0.235 C 
ATOM      5  O   UNL     1      -3.263  -1.389   0.689  0.00  0.00    -0.274 OA
ATOM      6  N   UNL     1      -2.207  -2.566   2.238  0.00  0.00    -0.283 N 
ATOM      7  C   UNL     1      -1.110  -3.350   2.611  0.00  0.00    +0.055 A 
ATOM      8  C   UNL     1       0.007  -3.421   1.770  0.00  0.00    +0.052 A 
ATOM      9  C   UNL     1       1.100  -4.191   2.123  0.00  0.00    +0.025 A 
ATOM     10  C   UNL     1       1.085  -4.900   3.312  0.00  0.00    +0.002 A 
ATOM     11  C   UNL     1      -0.018  -4.841   4.143  0.00  0.00    +0.002 A 
ATOM     12  C   UNL     1      -1.117  -4.061   3.800  0.00  0.00    +0.025 A 
ATOM     13  H   UNL     1      -2.889  -2.352   2.894  0.00  0.00    +0.155 HD
ENDBRANCH   1   2
BRANCH   1  18
ATOM     14  C   UNL     1       0.823   1.253  -1.526  0.00  0.00    +0.000 A 
ATOM     15  C   UNL     1       0.982   2.061  -0.416  0.00  0.00    +0.001 A 
ATOM     16  C   UNL     1       1.220   1.496   0.822  0.00  0.00    +0.020 A 
ATOM     17  C   UNL     1       1.300   0.120   0.951  0.00  0.00    +0.046 A 
ATOM     18  C   UNL     1       1.141  -0.688  -0.161  0.00  0.00    -0.011 A 
ATOM     19  C   UNL     1       0.903  -0.121  -1.399  0.00  0.00    +0.007 A 
ATOM     20 CL   UNL     1       1.600  -0.591   2.506  0.00  0.00    -0.083 Cl
ENDBRANCH   1  18
BRANCH   1  21
ATOM     21  C   UNL     1       1.429  -2.815  -1.402  0.00  0.00    -0.059 C 
BRANCH  21  22
ATOM     22  N   UNL     1       1.394  -4.279  -1.282  0.00  0.00    +0.380 N 
ATOM     23  H   UNL     1       2.131  -4.583  -0.664  0.00  0.00    -0.090 HD
ATOM     24  H   UNL     1       0.502  -4.565  -0.909  0.00  0.00    -0.090 HD
ATOM     25  H   UNL     1       1.526  -4.694  -2.192  0.00  0.00    -0.090 HD
ENDBRANCH  21  22
ENDBRANCH   1  21
TORSDOF 4
