REMARK  Name = ZINC28363531
REMARK  6 active torsions:
REMARK  status: ('A' for Active; 'I' for Inactive)
REMARK    1  A    between atoms: N_10  and  C_13
REMARK    2  A    between atoms: C_16  and  N_20
REMARK    3  A    between atoms: C_22  and  C_27
REMARK    4  A    between atoms: C_27  and  N_28
REMARK    5  A    between atoms: N_28  and  C_29
REMARK    6  A    between atoms: N_28  and  N_31
REMARK                            x       y       z     vdW  Elec       q    Type
REMARK                         _______ _______ _______ _____ _____    ______ ____
ROOT
ATOM      1  C   UNL     1       0.744   9.157  -1.016  0.00  0.00    +0.066 A 
ATOM      2  C   UNL     1       1.963   9.816  -1.098  0.00  0.00    +0.028 A 
ATOM      3  C   UNL     1       2.003  11.197  -1.095  0.00  0.00    +0.025 A 
ATOM      4  C   UNL     1       0.825  11.926  -1.001  0.00  0.00    +0.042 A 
ATOM      5  C   UNL     1      -0.394  11.268  -0.914  0.00  0.00    +0.063 A 
ATOM      6  C   UNL     1      -0.436   9.886  -0.922  0.00  0.00    +0.146 A 
ATOM      7  F   UNL     1      -1.622   9.245  -0.838  0.00  0.00    -0.203 F 
ENDROOT
BRANCH   1  17
ATOM      8  C   UNL     1      -1.221   1.761   0.017  0.00  0.00    +0.005 A 
ATOM      9  C   UNL     1      -0.013   1.076   0.008  0.00  0.00    +0.018 A 
ATOM     10  C   UNL     1       1.169   1.789   0.001  0.00  0.00    +0.084 A 
ATOM     11  N   UNL     1       1.163   3.109   0.007  0.00  0.00    -0.350 N 
ATOM     12  C   UNL     1       0.033   3.798   0.021  0.00  0.00    +0.099 A 
ATOM     13  C   UNL     1      -1.195   3.144   0.029  0.00  0.00    +0.042 A 
ATOM     14  N   UNL     1       0.073   5.187   0.028  0.00  0.00    -0.314 N 
ATOM     15  C   UNL     1      -0.685   5.742  -1.102  0.00  0.00    +0.125 C 
ATOM     16  C   UNL     1      -0.683   7.270  -1.014  0.00  0.00    +0.124 C 
ATOM     17  N   UNL     1       0.704   7.756  -1.024  0.00  0.00    -0.325 N 
ATOM     18  C   UNL     1       1.462   7.202   0.107  0.00  0.00    +0.124 C 
ATOM     19  C   UNL     1       1.460   5.674   0.018  0.00  0.00    +0.125 C 
ATOM     20  H   UNL     1       2.113   3.663   0.001  0.00  0.00    +0.166 HD
ENDBRANCH   1  17
BRANCH   4  21
ATOM     21  N   UNL     1       0.867  13.327  -0.994  0.00  0.00    -0.234 N 
ATOM     22  C   UNL     1       2.086  14.147  -1.079  0.00  0.00    +0.163 C 
ATOM     23  C   UNL     1       1.559  15.594  -1.030  0.00  0.00    +0.214 C 
ATOM     24  O   UNL     1       0.114  15.440  -0.922  0.00  0.00    -0.443 OA
ATOM     25  C   UNL     1      -0.196  14.139  -0.913  0.00  0.00    +0.408 C 
ATOM     26  O   UNL     1      -1.338  13.729  -0.837  0.00  0.00    -0.226 OA
BRANCH  23  27
ATOM     27  C   UNL     1       2.113  16.325   0.195  0.00  0.00    +0.170 C 
BRANCH  27  28
ATOM     28  N   UNL     1       1.598  17.696   0.220  0.00  0.00    -0.266 N 
BRANCH  28  29
ATOM     29  N   UNL     1       2.288  18.696  -0.404  0.00  0.00    -0.254 NA
ATOM     30  H   UNL     1       1.750  19.647  -0.278  0.00  0.00    +0.141 HD
ATOM     31  H   UNL     1       3.292  18.781   0.039  0.00  0.00    +0.141 HD
ENDBRANCH  28  29
BRANCH  28  32
ATOM     32  C   UNL     1       0.443  17.971   0.859  0.00  0.00    +0.139 C 
ATOM     33  S   UNL     1      -0.118  19.468   0.885  0.00  0.00    -0.043 S 
ENDBRANCH  28  32
ENDBRANCH  27  28
ENDBRANCH  23  27
ENDBRANCH   4  21
TORSDOF 6
