REMARK  Name = ZINC39962543
REMARK  10 active torsions:
REMARK  status: ('A' for Active; 'I' for Inactive)
REMARK    1  A    between atoms: C_1  and  C_2
REMARK    2  A    between atoms: C_2  and  O_3
REMARK    3  A    between atoms: O_3  and  C_4
REMARK    4  A    between atoms: C_6  and  C_20
REMARK    5  A    between atoms: C_9  and  O_10
REMARK    6  A    between atoms: O_10  and  C_11
REMARK    7  A    between atoms: C_11  and  C_12
REMARK    8  A    between atoms: C_22  and  C_33
REMARK    9  A    between atoms: C_23  and  N_32
REMARK   10  A    between atoms: C_28  and  C_31
REMARK                            x       y       z     vdW  Elec       q    Type
REMARK                         _______ _______ _______ _____ _____    ______ ____
ROOT
ATOM      1  C   UNL     1      -1.498  -1.849   0.006  0.00  0.00    +0.163 A 
ATOM      2  C   UNL     1      -0.389  -2.680  -0.003  0.00  0.00    +0.054 A 
ATOM      3  C   UNL     1      -0.553  -4.052  -0.009  0.00  0.00    -0.030 A 
ATOM      4  C   UNL     1      -1.822  -4.600  -0.006  0.00  0.00    +0.023 A 
ATOM      5  C   UNL     1      -2.934  -3.777   0.003  0.00  0.00    +0.063 A 
ATOM      6  C   UNL     1      -2.776  -2.400   0.016  0.00  0.00    +0.176 A 
ATOM      7 BR   UNL     1      -4.668  -4.531   0.006  0.00  0.00    -0.046 Br
ENDROOT
BRANCH   3   8
ATOM      8  C   UNL     1       0.655  -4.954  -0.020  0.00  0.00    +0.098 C 
ATOM      9  C   UNL     1       0.620  -5.865  -1.233  0.00  0.00    +0.097 C 
ATOM     10  C   UNL     1       0.396  -7.191  -1.119  0.00  0.00    +0.195 C 
ATOM     11  O   UNL     1       0.204  -7.878   0.022  0.00  0.00    -0.448 OA
ATOM     12  C   UNL     1      -0.225  -7.140   1.169  0.00  0.00    +0.343 C 
ATOM     13  C   UNL     1       0.632  -5.869   1.173  0.00  0.00    +0.030 C 
ATOM     14  C   UNL     1       1.232  -5.863   2.338  0.00  0.00    +0.066 C 
ATOM     15  N   UNL     1       0.950  -7.003   3.020  0.00  0.00    -0.155 NA
ATOM     16  N   UNL     1       0.158  -7.784   2.429  0.00  0.00    -0.138 NA
ATOM     17  C   UNL     1       2.110  -4.749   2.849  0.00  0.00    +0.067 C 
BRANCH  10  18
ATOM     18  N   UNL     1       0.358  -7.912  -2.285  0.00  0.00    -0.329 N 
ATOM     19  H   UNL     1       0.490  -7.465  -3.136  0.00  0.00    +0.145 HD
ATOM     20  H   UNL     1       0.200  -8.868  -2.259  0.00  0.00    +0.145 HD
ENDBRANCH  10  18
BRANCH   9  21
ATOM     21  C   UNL     1       0.829  -5.303  -2.534  0.00  0.00    +0.101 C 
ATOM     22  N   UNL     1       0.996  -4.857  -3.565  0.00  0.00    -0.191 NA
ENDBRANCH   9  21
ENDBRANCH   3   8
BRANCH   1  23
ATOM     23  O   UNL     1      -1.339  -0.499   0.012  0.00  0.00    -0.489 OA
BRANCH  23  25
ATOM     24  C   UNL     1      -0.019   1.526   0.010  0.00  0.00    +0.048 C 
ATOM     25  C   UNL     1       0.002  -0.004   0.002  0.00  0.00    +0.226 C 
ENDBRANCH  23  25
ENDBRANCH   1  23
BRANCH   6  26
ATOM     26  O   UNL     1      -3.868  -1.589   0.030  0.00  0.00    -0.483 OA
BRANCH  26  27
ATOM     27  C   UNL     1      -4.401  -1.195  -1.236  0.00  0.00    +0.267 C 
BRANCH  27  28
ATOM     28  C   UNL     1      -5.598  -0.305  -1.022  0.00  0.00    +0.025 A 
ATOM     29  C   UNL     1      -6.007   0.008   0.261  0.00  0.00    +0.010 A 
ATOM     30  C   UNL     1      -7.105   0.824   0.457  0.00  0.00    +0.001 A 
ATOM     31  C   UNL     1      -7.796   1.328  -0.629  0.00  0.00    +0.003 A 
ATOM     32  C   UNL     1      -7.389   1.017  -1.913  0.00  0.00    +0.039 A 
ATOM     33  C   UNL     1      -6.286   0.203  -2.110  0.00  0.00    +0.130 A 
ATOM     34  F   UNL     1      -5.884  -0.098  -3.365  0.00  0.00    -0.205 F 
ENDBRANCH  27  28
ENDBRANCH  26  27
ENDBRANCH   6  26
TORSDOF 8
