REMARK  Name = ZINC13498644
REMARK  11 active torsions:
REMARK  status: ('A' for Active; 'I' for Inactive)
REMARK    1  A    between atoms: C_1  and  C_2
REMARK    2  A    between atoms: C_2  and  C_3
REMARK    3  A    between atoms: C_2  and  C_4
REMARK    4  A    between atoms: C_4  and  C_6
REMARK    5  A    between atoms: C_4  and  N_76
REMARK    6  A    between atoms: N_10  and  C_11
REMARK    7  A    between atoms: C_17  and  C_18
REMARK    8  A    between atoms: C_17  and  N_76
REMARK    9  A    between atoms: C_22  and  O_30
REMARK   10  A    between atoms: O_30  and  C_31
REMARK   11  A    between atoms: C_32  and  N_76
REMARK                            x       y       z     vdW  Elec       q    Type
REMARK                         _______ _______ _______ _____ _____    ______ ____
ROOT
ATOM      1  N   UNL     1       0.538  -2.477  -2.080  0.00  0.00    +0.391 N 
ATOM      2  H   UNL     1      -0.424  -2.754  -1.851  0.00  0.00    -0.080 HD
ENDROOT
BRANCH   1   3
ATOM      3  C   UNL     1       0.542  -1.058  -2.497  0.00  0.00    -0.067 C 
ATOM      4  C   UNL     1       1.920  -0.659  -3.027  0.00  0.00    -0.015 C 
ATOM      5  C   UNL     1       1.896   0.810  -3.455  0.00  0.00    -0.002 C 
ATOM      6  C   UNL     1       0.851   1.004  -4.555  0.00  0.00    -0.000 C 
ATOM      7  C   UNL     1      -0.528   0.604  -4.025  0.00  0.00    -0.002 C 
ATOM      8  C   UNL     1      -0.503  -0.865  -3.598  0.00  0.00    -0.015 C 
ENDBRANCH   1   3
BRANCH   1   9
ATOM      9  C   UNL     1       1.033  -3.328  -3.182  0.00  0.00    +0.006 C 
BRANCH   9  10
ATOM     10  C   UNL     1       2.535  -3.433  -3.131  0.00  0.00    +0.139 A 
ATOM     11  N   UNL     1       3.269  -3.644  -2.066  0.00  0.00    -0.115 NA
ATOM     12  N   UNL     1       4.504  -3.670  -2.432  0.00  0.00    -0.023 NA
ATOM     13  N   UNL     1       4.578  -3.474  -3.703  0.00  0.00    -0.044 NA
ATOM     14  N   UNL     1       3.385  -3.324  -4.170  0.00  0.00    -0.228 N 
BRANCH  14  15
ATOM     15  C   UNL     1       3.022  -3.080  -5.568  0.00  0.00    +0.111 C 
ATOM     16  C   UNL     1       3.514  -4.242  -6.433  0.00  0.00    +0.027 C 
ATOM     17  C   UNL     1       3.136  -3.987  -7.893  0.00  0.00    +0.002 C 
ATOM     18  C   UNL     1       3.785  -2.686  -8.369  0.00  0.00    +0.000 C 
ATOM     19  C   UNL     1       3.293  -1.524  -7.505  0.00  0.00    +0.002 C 
ATOM     20  C   UNL     1       3.671  -1.779  -6.044  0.00  0.00    +0.027 C 
ENDBRANCH  14  15
ENDBRANCH   9  10
BRANCH   9  22
ATOM     21  C   UNL     1       0.786  -5.299  -1.667  0.00  0.00    +0.006 C 
ATOM     22  C   UNL     1       0.419  -4.722  -3.035  0.00  0.00    -0.024 C 
ATOM     23  C   UNL     1      -1.103  -4.624  -3.155  0.00  0.00    +0.006 C 
ENDBRANCH   9  22
ENDBRANCH   1   9
BRANCH   1  24
ATOM     24  C   UNL     1       1.388  -2.654  -0.884  0.00  0.00    -0.036 C 
BRANCH  24  25
ATOM     25  C   UNL     1       0.622  -2.183   0.326  0.00  0.00    +0.001 A 
ATOM     26  C   UNL     1      -0.104  -3.069   1.052  0.00  0.00    +0.017 A 
ATOM     27  C   UNL     1      -0.837  -2.580   2.222  0.00  0.00    +0.002 A 
ATOM     28  C   UNL     1      -1.601  -3.448   3.009  0.00  0.00    +0.055 A 
ATOM     29  C   UNL     1      -2.279  -2.955   4.105  0.00  0.00    +0.121 A 
ATOM     30  C   UNL     1      -2.204  -1.601   4.428  0.00  0.00    +0.047 A 
ATOM     31  C   UNL     1      -1.454  -0.738   3.661  0.00  0.00    +0.030 A 
ATOM     32  C   UNL     1      -0.764  -1.214   2.551  0.00  0.00    +0.049 A 
ATOM     33  N   UNL     1      -0.007  -0.364   1.770  0.00  0.00    -0.322 N 
ATOM     34  H   UNL     1       0.043   0.577   1.998  0.00  0.00    +0.169 HD
ATOM     35  C   UNL     1       0.667  -0.824   0.702  0.00  0.00    +0.251 A 
ATOM     36  O   UNL     1       1.330  -0.045   0.038  0.00  0.00    -0.268 OA
BRANCH  29  37
ATOM     37  O   UNL     1      -3.025  -3.793   4.873  0.00  0.00    -0.495 OA
ATOM     38  C   UNL     1      -3.701  -3.218   5.993  0.00  0.00    +0.277 C 
ENDBRANCH  29  37
ENDBRANCH  24  25
ENDBRANCH   1  24
TORSDOF 8
