REMARK  Name = ZINC24456526
REMARK  9 active torsions:
REMARK  status: ('A' for Active; 'I' for Inactive)
REMARK    1  A    between atoms: C_1  and  C_2
REMARK    2  A    between atoms: C_7  and  N_12
REMARK    3  A    between atoms: C_9  and  C_11
REMARK    4  A    between atoms: C_16  and  C_18
REMARK    5  A    between atoms: C_18  and  S_19
REMARK    6  A    between atoms: S_19  and  C_20
REMARK    7  A    between atoms: N_26  and  C_27
REMARK    8  A    between atoms: C_27  and  C_28
REMARK    9  A    between atoms: C_28  and  C_29
REMARK                            x       y       z     vdW  Elec       q    Type
REMARK                         _______ _______ _______ _____ _____    ______ ____
ROOT
ATOM      1  C   UNL     1       8.806   0.625  -1.543  0.00  0.00    +0.173 C 
ENDROOT
BRANCH   1   6
ATOM      2  N   UNL     1      12.448   3.763  -1.586  0.00  0.00    -0.296 N 
ATOM      3  C   UNL     1      11.120   3.534  -1.570  0.00  0.00    +0.306 C 
ATOM      4  O   UNL     1      10.342   4.468  -1.560  0.00  0.00    -0.252 OA
ATOM      5  N   UNL     1      10.654   2.269  -1.565  0.00  0.00    -0.239 N 
ATOM      6  C   UNL     1       9.326   2.040  -1.549  0.00  0.00    +0.231 C 
ATOM      7  O   UNL     1       8.550   2.971  -1.539  0.00  0.00    -0.274 OA
ATOM      8  H   UNL     1      13.152   2.918  -1.595  0.00  0.00    +0.151 HD
ATOM      9  H   UNL     1      11.358   1.424  -1.574  0.00  0.00    +0.159 HD
BRANCH   2  15
ATOM     10  C   UNL     1      16.273   6.629  -2.850  0.00  0.00    +0.008 C 
ATOM     11  C   UNL     1      14.877   6.602  -2.224  0.00  0.00    -0.009 C 
ATOM     12  C   UNL     1      14.953   7.123  -0.787  0.00  0.00    +0.003 C 
ATOM     13  C   UNL     1      13.557   7.096  -0.161  0.00  0.00    +0.002 C 
ATOM     14  C   UNL     1      13.029   5.660  -0.155  0.00  0.00    +0.022 C 
ATOM     15  C   UNL     1      12.954   5.138  -1.591  0.00  0.00    +0.078 C 
ATOM     16  C   UNL     1      14.349   5.166  -2.218  0.00  0.00    +0.009 C 
ATOM     17  C   UNL     1      15.292   4.279  -1.402  0.00  0.00    +0.009 C 
ENDBRANCH   2  15
ENDBRANCH   1   6
BRANCH   1  18
ATOM     18  S   UNL     1       6.996   0.648  -1.522  0.00  0.00    -0.077 S 
BRANCH  18  19
ATOM     19  C   UNL     1       6.668  -1.083  -1.518  0.00  0.00    +0.192 A 
ATOM     20  N   UNL     1       7.566  -2.026  -1.526  0.00  0.00    -0.145 NA
ATOM     21  N   UNL     1       6.900  -3.259  -1.527  0.00  0.00    -0.226 N 
ATOM     22  H   UNL     1       7.477  -4.196  -1.538  0.00  0.00    +0.194 HD
ATOM     23  C   UNL     1       5.575  -3.002  -1.513  0.00  0.00    +0.345 A 
ATOM     24  O   UNL     1       4.682  -3.830  -1.509  0.00  0.00    -0.245 OA
ATOM     25  N   UNL     1       5.420  -1.663  -1.504  0.00  0.00    -0.270 N 
BRANCH  25  26
ATOM     26  C   UNL     1       4.142  -0.948  -1.487  0.00  0.00    +0.133 C 
BRANCH  26  27
ATOM     27  C   UNL     1       3.711  -0.707  -0.039  0.00  0.00    +0.057 C 
BRANCH  27  28
ATOM     28  C   UNL     1       2.396   0.029  -0.022  0.00  0.00    -0.046 A 
ATOM     29  C   UNL     1       1.208  -0.679  -0.014  0.00  0.00    +0.004 A 
ATOM     30  C   UNL     1       0.002  -0.004   0.002  0.00  0.00    +0.000 A 
ATOM     31  C   UNL     1      -0.017   1.378   0.010  0.00  0.00    +0.000 A 
ATOM     32  C   UNL     1       1.171   2.086   0.002  0.00  0.00    +0.000 A 
ATOM     33  C   UNL     1       2.377   1.411  -0.014  0.00  0.00    +0.004 A 
ENDBRANCH  27  28
ENDBRANCH  26  27
ENDBRANCH  25  26
ENDBRANCH  18  19
ENDBRANCH   1  18
TORSDOF 7
