REMARK  Name = ZINC20881825
REMARK  9 active torsions:
REMARK  status: ('A' for Active; 'I' for Inactive)
REMARK    1  A    between atoms: C_1  and  C_2
REMARK    2  A    between atoms: C_2  and  O_3
REMARK    3  A    between atoms: O_3  and  C_4
REMARK    4  A    between atoms: C_7  and  C_12
REMARK    5  A    between atoms: C_9  and  O_10
REMARK    6  A    between atoms: O_10  and  C_11
REMARK    7  A    between atoms: C_17  and  C_27
REMARK    8  A    between atoms: C_30  and  O_36
REMARK    9  A    between atoms: C_31  and  N_33
REMARK                            x       y       z     vdW  Elec       q    Type
REMARK                         _______ _______ _______ _____ _____    ______ ____
ROOT
ATOM      1  C   UNL     1       5.253   5.093  -1.599  0.00  0.00    +0.032 C 
ATOM      2  C   UNL     1       3.791   5.193  -1.167  0.00  0.00    +0.059 C 
ATOM      3  C   UNL     1       3.256   3.811  -0.830  0.00  0.00    +0.017 C 
ATOM      4  C   UNL     1       3.697   2.731  -1.497  0.00  0.00    +0.036 C 
ATOM      5  C   UNL     1       3.230   1.310  -1.291  0.00  0.00    +0.136 C 
ATOM      6  N   UNL     1       2.423   1.111  -0.106  0.00  0.00    -0.331 N 
ATOM      7  C   UNL     1       1.174   1.717   0.026  0.00  0.00    +0.049 A 
ATOM      8  C   UNL     1       0.006   0.972   0.032  0.00  0.00    +0.025 A 
ATOM      9  C   UNL     1      -1.215   1.623   0.063  0.00  0.00    +0.002 A 
ATOM     10  C   UNL     1      -1.271   3.004   0.099  0.00  0.00    +0.002 A 
ATOM     11  C   UNL     1      -0.105   3.751   0.109  0.00  0.00    +0.025 A 
ATOM     12  C   UNL     1       1.117   3.101   0.088  0.00  0.00    +0.052 A 
ATOM     13  N   UNL     1       2.324   3.787   0.156  0.00  0.00    -0.316 N 
ATOM     14  C   UNL     1       4.693   2.867  -2.494  0.00  0.00    +0.163 C 
ATOM     15  O   UNL     1       5.058   1.876  -3.095  0.00  0.00    -0.292 OA
ATOM     16  C   UNL     1       5.313   4.188  -2.835  0.00  0.00    +0.088 C 
ATOM     17  H   UNL     1       2.792   0.472   0.710  0.00  0.00    +0.147 HD
ATOM     18  H   UNL     1       2.499   4.338   1.092  0.00  0.00    +0.152 HD
ENDROOT
BRANCH   1  22
ATOM     19  C   UNL     1       6.746   8.980  -2.574  0.00  0.00    +0.162 A 
ATOM     20  C   UNL     1       5.647   8.468  -3.245  0.00  0.00    +0.050 A 
ATOM     21  C   UNL     1       5.167   7.211  -2.928  0.00  0.00    +0.008 A 
ATOM     22  C   UNL     1       5.781   6.462  -1.941  0.00  0.00    -0.040 A 
ATOM     23  C   UNL     1       6.875   6.969  -1.264  0.00  0.00    +0.053 A 
ATOM     24  C   UNL     1       7.364   8.226  -1.581  0.00  0.00    +0.162 A 
BRANCH  24  25
ATOM     25  O   UNL     1       8.443   8.723  -0.920  0.00  0.00    -0.491 OA
ATOM     26  C   UNL     1       9.027   7.893   0.087  0.00  0.00    +0.277 C 
ENDBRANCH  24  25
BRANCH  19  27
ATOM     27  O   UNL     1       7.219  10.216  -2.884  0.00  0.00    -0.489 OA
BRANCH  27  29
ATOM     28  C   UNL     1       7.205  12.293  -4.121  0.00  0.00    +0.048 C 
ATOM     29  C   UNL     1       6.534  10.933  -3.913  0.00  0.00    +0.226 C 
ENDBRANCH  27  29
ENDBRANCH  19  27
ENDBRANCH   1  22
BRANCH   5  30
ATOM     30  C   UNL     1       2.425   0.892  -2.494  0.00  0.00    -0.020 A 
ATOM     31  C   UNL     1       2.869  -0.142  -3.297  0.00  0.00    +0.009 A 
ATOM     32  C   UNL     1       2.129  -0.531  -4.397  0.00  0.00    +0.048 A 
ATOM     33  C   UNL     1       0.946   0.126  -4.703  0.00  0.00    +0.147 A 
ATOM     34  C   UNL     1       0.505   1.167  -3.899  0.00  0.00    +0.168 A 
ATOM     35  C   UNL     1       1.246   1.548  -2.797  0.00  0.00    +0.042 A 
BRANCH  34  36
ATOM     36  N   UNL     1      -0.757   1.869  -4.223  0.00  0.00    +0.060 N 
ATOM     37  O   UNL     1      -1.143   2.784  -3.517  0.00  0.00    -0.126 OA
ATOM     38  O   UNL     1      -1.409   1.533  -5.195  0.00  0.00    -0.126 OA
ENDBRANCH  34  36
BRANCH  33  39
ATOM     39  O   UNL     1       0.219  -0.251  -5.788  0.00  0.00    -0.504 OA
ATOM     40  H   UNL     1      -0.719   0.270  -6.029  0.00  0.00    +0.292 HD
ENDBRANCH  33  39
ENDBRANCH   5  30
TORSDOF 7
