REMARK  Name = ZINC38845443
REMARK  13 active torsions:
REMARK  status: ('A' for Active; 'I' for Inactive)
REMARK    1  A    between atoms: C_1  and  C_2
REMARK    2  A    between atoms: C_2  and  N_3
REMARK    3  A    between atoms: N_3  and  C_4
REMARK    4  A    between atoms: N_3  and  C_6
REMARK    5  A    between atoms: C_4  and  C_5
REMARK    6  A    between atoms: C_6  and  C_7
REMARK    7  A    between atoms: C_7  and  N_8
REMARK    8  A    between atoms: C_14  and  S_18
REMARK    9  A    between atoms: S_18  and  C_21
REMARK   10  A    between atoms: C_22  and  C_24
REMARK   11  A    between atoms: C_24  and  C_25
REMARK   12  A    between atoms: C_25  and  S_26
REMARK   13  A    between atoms: S_26  and  C_29
REMARK                            x       y       z     vdW  Elec       q    Type
REMARK                         _______ _______ _______ _____ _____    ______ ____
ROOT
ATOM      1  N   UNL     1       1.365  -4.014  -2.695  0.00  0.00    -0.252 N 
ATOM      2  C   UNL     1       0.362  -4.557  -3.482  0.00  0.00    +0.168 A 
ATOM      3  N   UNL     1      -0.548  -3.939  -4.198  0.00  0.00    -0.224 NA
ATOM      4  C   UNL     1      -1.474  -4.602  -4.925  0.00  0.00    +0.080 A 
ATOM      5  C   UNL     1      -2.502  -4.062  -5.731  0.00  0.00    +0.031 A 
ATOM      6  C   UNL     1      -3.365  -4.883  -6.409  0.00  0.00    +0.029 A 
ATOM      7  C   UNL     1      -3.264  -6.265  -6.330  0.00  0.00    +0.089 A 
ATOM      8  C   UNL     1      -2.270  -6.827  -5.550  0.00  0.00    +0.044 A 
ATOM      9  C   UNL     1      -1.401  -6.013  -4.868  0.00  0.00    +0.043 A 
ATOM     10  S   UNL     1      -0.014  -6.277  -3.789  0.00  0.00    -0.052 S 
ATOM     11  C   UNL     1       2.216  -4.823  -2.035  0.00  0.00    +0.223 C 
ATOM     12  O   UNL     1       2.105  -6.027  -2.130  0.00  0.00    -0.275 OA
ENDROOT
BRANCH   7  13
ATOM     13  S   UNL     1      -4.390  -7.292  -7.213  0.00  0.00    -0.006 S 
ATOM     14  O   UNL     1      -4.428  -8.506  -6.477  0.00  0.00    -0.170 OA
ATOM     15  O   UNL     1      -5.560  -6.500  -7.365  0.00  0.00    -0.170 OA
ATOM     16  C   UNL     1      -3.606  -7.563  -8.827  0.00  0.00    +0.200 C 
ENDBRANCH   7  13
BRANCH   1  17
ATOM     17  C   UNL     1       1.499  -2.559  -2.580  0.00  0.00    +0.097 C 
BRANCH  17  18
ATOM     18  C   UNL     1       0.657  -2.061  -1.404  0.00  0.00    -0.059 C 
BRANCH  18  19
ATOM     19  N   UNL     1       0.887  -0.623  -1.212  0.00  0.00    +0.380 N 
ATOM     20  H   UNL     1       1.876  -0.452  -1.102  0.00  0.00    -0.082 HD
BRANCH  19  22
ATOM     21  C   UNL     1       0.742   1.596  -2.238  0.00  0.00    -0.017 C 
ATOM     22  C   UNL     1       0.391   0.114  -2.382  0.00  0.00    -0.082 C 
ENDBRANCH  19  22
BRANCH  19  23
ATOM     23  C   UNL     1       0.175  -0.169  -0.009  0.00  0.00    -0.082 C 
ATOM     24  C   UNL     1       0.799  -0.819   1.228  0.00  0.00    -0.017 C 
ENDBRANCH  19  23
ENDBRANCH  18  19
ENDBRANCH  17  18
ENDBRANCH   1  17
BRANCH  11  25
ATOM     25  C   UNL     1       3.307  -4.232  -1.179  0.00  0.00    +0.119 C 
BRANCH  25  26
ATOM     26  C   UNL     1       4.126  -5.359  -0.546  0.00  0.00    +0.181 C 
BRANCH  26  27
ATOM     27  S   UNL     1       5.438  -4.648   0.485  0.00  0.00    -0.003 S 
ATOM     28  O   UNL     1       6.395  -3.985  -0.330  0.00  0.00    -0.169 OA
ATOM     29  O   UNL     1       4.874  -3.998   1.615  0.00  0.00    -0.169 OA
BRANCH  27  30
ATOM     30  C   UNL     1       6.297  -6.037   1.146  0.00  0.00    +0.088 A 
ATOM     31  C   UNL     1       5.893  -6.592   2.346  0.00  0.00    +0.027 A 
ATOM     32  C   UNL     1       6.566  -7.681   2.865  0.00  0.00    +0.002 A 
ATOM     33  C   UNL     1       7.644  -8.217   2.185  0.00  0.00    +0.000 A 
ATOM     34  C   UNL     1       8.047  -7.662   0.984  0.00  0.00    +0.002 A 
ATOM     35  C   UNL     1       7.371  -6.575   0.463  0.00  0.00    +0.027 A 
ENDBRANCH  27  30
ENDBRANCH  26  27
ENDBRANCH  25  26
ENDBRANCH  11  25
TORSDOF 10
