REMARK  Name = ZINC06300717
REMARK  15 active torsions:
REMARK  status: ('A' for Active; 'I' for Inactive)
REMARK    1  A    between atoms: C_1  and  C_2
REMARK    2  A    between atoms: C_4  and  C_40
REMARK    3  A    between atoms: C_9  and  C_14
REMARK    4  A    between atoms: C_14  and  C_16
REMARK    5  A    between atoms: C_14  and  N_71
REMARK    6  A    between atoms: N_20  and  C_21
REMARK    7  A    between atoms: C_21  and  C_22
REMARK    8  A    between atoms: C_22  and  O_23
REMARK    9  A    between atoms: O_23  and  C_24
REMARK   10  A    between atoms: C_25  and  C_26
REMARK   11  A    between atoms: C_25  and  N_71
REMARK   12  A    between atoms: C_29  and  O_32
REMARK   13  A    between atoms: O_32  and  C_33
REMARK   14  A    between atoms: C_34  and  C_35
REMARK   15  A    between atoms: C_34  and  N_71
REMARK                            x       y       z     vdW  Elec       q    Type
REMARK                         _______ _______ _______ _____ _____    ______ ____
ROOT
ATOM      1  C   UNL     1       0.197   0.887   0.099  0.00  0.00    +0.040 C 
ENDROOT
BRANCH   1  10
ATOM      2  C   UNL     1      -2.104  -1.678   6.713  0.00  0.00    +0.044 C 
ATOM      3  C   UNL     1      -1.861  -0.538   5.757  0.00  0.00    -0.050 A 
ATOM      4  C   UNL     1      -2.163   0.761   6.144  0.00  0.00    +0.008 A 
ATOM      5  C   UNL     1      -1.949   1.819   5.287  0.00  0.00    -0.026 A 
ATOM      6  C   UNL     1      -1.425   1.585   4.020  0.00  0.00    +0.052 A 
ATOM      7  C   UNL     1      -1.119   0.267   3.631  0.00  0.00    -0.001 A 
ATOM      8  C   UNL     1      -1.345  -0.791   4.518  0.00  0.00    +0.013 A 
ATOM      9  C   UNL     1      -0.567   0.031   2.296  0.00  0.00    +0.017 A 
ATOM     10  C   UNL     1      -0.370   1.095   1.479  0.00  0.00    +0.011 A 
ATOM     11  C   UNL     1      -0.687   2.398   1.920  0.00  0.00    +0.251 A 
ATOM     12  O   UNL     1      -0.497   3.341   1.172  0.00  0.00    -0.268 OA
ATOM     13  N   UNL     1      -1.200   2.624   3.143  0.00  0.00    -0.322 N 
ATOM     14  H   UNL     1      -1.411   3.531   3.412  0.00  0.00    +0.169 HD
ATOM     15  C   UNL     1      -2.282   3.223   5.721  0.00  0.00    +0.046 C 
ENDBRANCH   1  10
BRANCH   1  16
ATOM     16  C   UNL     1      -0.852   1.222  -0.930  0.00  0.00    +0.143 A 
ATOM     17  N   UNL     1      -1.254   2.421  -1.275  0.00  0.00    -0.115 NA
ATOM     18  N   UNL     1      -2.158   2.291  -2.185  0.00  0.00    -0.023 NA
ATOM     19  N   UNL     1      -2.347   1.040  -2.423  0.00  0.00    -0.044 NA
ATOM     20  N   UNL     1      -1.560   0.349  -1.670  0.00  0.00    -0.228 N 
BRANCH  20  21
ATOM     21  C   UNL     1      -1.457  -1.112  -1.627  0.00  0.00    +0.175 C 
BRANCH  21  22
ATOM     22  C   UNL     1      -2.437  -1.662  -0.589  0.00  0.00    +0.183 C 
BRANCH  22  23
ATOM     23  O   UNL     1      -2.337  -3.087  -0.547  0.00  0.00    -0.381 OA
ATOM     24  C   UNL     1      -3.215  -3.704   0.396  0.00  0.00    +0.194 C 
ENDBRANCH  22  23
ENDBRANCH  21  22
ENDBRANCH  20  21
ENDBRANCH   1  16
BRANCH   1  25
ATOM     25  N   UNL     1       1.355   1.788  -0.086  0.00  0.00    +0.397 N 
ATOM     26  H   UNL     1       1.040   2.760   0.015  0.00  0.00    -0.079 HD
BRANCH  25  27
ATOM     27  C   UNL     1       1.927   1.605  -1.437  0.00  0.00    -0.041 C 
BRANCH  27  28
ATOM     28  C   UNL     1       2.840   2.765  -1.736  0.00  0.00    -0.064 A 
ATOM     29  C   UNL     1       2.317   3.944  -2.236  0.00  0.00    +0.005 A 
ATOM     30  C   UNL     1       3.152   5.011  -2.506  0.00  0.00    +0.046 A 
ATOM     31  C   UNL     1       4.517   4.896  -2.287  0.00  0.00    +0.120 A 
ATOM     32  C   UNL     1       5.040   3.710  -1.790  0.00  0.00    +0.046 A 
ATOM     33  C   UNL     1       4.200   2.648  -1.516  0.00  0.00    +0.005 A 
BRANCH  31  34
ATOM     34  O   UNL     1       5.340   5.942  -2.557  0.00  0.00    -0.495 OA
ATOM     35  C   UNL     1       4.733   7.131  -3.065  0.00  0.00    +0.277 C 
ENDBRANCH  31  34
ENDBRANCH  27  28
ENDBRANCH  25  27
BRANCH  25  36
ATOM     36  C   UNL     1       2.381   1.506   0.940  0.00  0.00    -0.001 C 
BRANCH  36  37
ATOM     37  C   UNL     1       2.800   0.060   0.886  0.00  0.00    +0.089 A 
ATOM     38  C   UNL     1       3.855  -0.429   0.210  0.00  0.00    +0.042 A 
ATOM     39  C   UNL     1       3.874  -1.825   0.435  0.00  0.00    +0.041 A 
ATOM     40  C   UNL     1       2.830  -2.105   1.235  0.00  0.00    +0.195 A 
ATOM     41  O   UNL     1       2.186  -0.959   1.509  0.00  0.00    -0.470 OA
ENDBRANCH  36  37
ENDBRANCH  25  36
ENDBRANCH   1  25
TORSDOF 11
