REMARK  Name = ZINC06077665
REMARK  14 active torsions:
REMARK  status: ('A' for Active; 'I' for Inactive)
REMARK    1  A    between atoms: C_1  and  C_2
REMARK    2  A    between atoms: C_2  and  C_3
REMARK    3  A    between atoms: C_3  and  C_4
REMARK    4  A    between atoms: C_3  and  C_5
REMARK    5  A    between atoms: C_3  and  N_6
REMARK    6  A    between atoms: C_7  and  C_11
REMARK    7  A    between atoms: C_11  and  C_13
REMARK    8  A    between atoms: C_11  and  N_71
REMARK    9  A    between atoms: C_17  and  C_26
REMARK   10  A    between atoms: C_18  and  C_25
REMARK   11  A    between atoms: C_27  and  C_28
REMARK   12  A    between atoms: C_27  and  N_71
REMARK   13  A    between atoms: C_34  and  C_35
REMARK   14  A    between atoms: C_34  and  N_71
REMARK                            x       y       z     vdW  Elec       q    Type
REMARK                         _______ _______ _______ _____ _____    ______ ____
ROOT
ATOM      1  C   UNL     1      -2.502   0.581  -0.138  0.00  0.00    +0.040 C 
ENDROOT
BRANCH   1   2
ATOM      2  C   UNL     1      -1.126   1.108   0.178  0.00  0.00    +0.011 A 
ATOM      3  C   UNL     1      -0.868   1.630   1.403  0.00  0.00    +0.017 A 
ATOM      4  C   UNL     1       0.481   2.128   1.680  0.00  0.00    -0.001 A 
ATOM      5  C   UNL     1       0.809   2.673   2.926  0.00  0.00    +0.013 A 
ATOM      6  C   UNL     1       2.076   3.128   3.154  0.00  0.00    -0.047 A 
ATOM      7  C   UNL     1       3.042   3.055   2.159  0.00  0.00    -0.046 A 
ATOM      8  C   UNL     1       2.741   2.523   0.924  0.00  0.00    +0.030 A 
ATOM      9  C   UNL     1       1.457   2.053   0.669  0.00  0.00    +0.049 A 
ATOM     10  N   UNL     1       1.129   1.516  -0.557  0.00  0.00    -0.322 N 
ATOM     11  H   UNL     1       1.823   1.464  -1.275  0.00  0.00    +0.169 HD
ATOM     12  C   UNL     1      -0.113   1.062  -0.803  0.00  0.00    +0.251 A 
ATOM     13  O   UNL     1      -0.368   0.594  -1.899  0.00  0.00    -0.268 OA
ATOM     14  C   UNL     1       4.434   3.565   2.432  0.00  0.00    +0.044 C 
ATOM     15  C   UNL     1       2.430   3.714   4.496  0.00  0.00    +0.044 C 
ENDBRANCH   1   2
BRANCH   1  17
ATOM     16  N   UNL     1      -3.727  -0.369   1.887  0.00  0.00    -0.225 N 
ATOM     17  C   UNL     1      -3.365   0.657   1.095  0.00  0.00    +0.143 A 
ATOM     18  N   UNL     1      -3.904   1.736   1.608  0.00  0.00    -0.115 NA
ATOM     19  N   UNL     1      -4.569   1.390   2.655  0.00  0.00    -0.023 NA
ATOM     20  N   UNL     1      -4.462   0.119   2.829  0.00  0.00    -0.043 NA
BRANCH  16  21
ATOM     21  C   UNL     1      -3.355  -1.776   1.713  0.00  0.00    +0.061 C 
ATOM     22  C   UNL     1      -3.973  -2.309   0.419  0.00  0.00    +0.036 C 
ATOM     23  C   UNL     1      -1.832  -1.895   1.639  0.00  0.00    +0.036 C 
BRANCH  21  25
ATOM     24  C   UNL     1      -3.486  -4.059   2.718  0.00  0.00    +0.006 C 
ATOM     25  C   UNL     1      -3.874  -2.591   2.900  0.00  0.00    +0.026 C 
ENDBRANCH  21  25
ENDBRANCH  16  21
ENDBRANCH   1  17
BRANCH   1  26
ATOM     26  N   UNL     1      -3.087   1.388  -1.230  0.00  0.00    +0.397 N 
ATOM     27  H   UNL     1      -2.503   1.287  -2.069  0.00  0.00    -0.079 HD
BRANCH  26  28
ATOM     28  C   UNL     1      -4.452   0.912  -1.535  0.00  0.00    -0.039 C 
BRANCH  28  29
ATOM     29  C   UNL     1      -4.885   1.496  -2.855  0.00  0.00    -0.046 A 
ATOM     30  C   UNL     1      -5.591   2.689  -2.898  0.00  0.00    +0.005 A 
ATOM     31  C   UNL     1      -5.965   3.190  -4.135  0.00  0.00    +0.020 A 
ATOM     32  C   UNL     1      -5.632   2.485  -5.276  0.00  0.00    +0.111 A 
ATOM     33  N   UNL     1      -4.964   1.351  -5.197  0.00  0.00    -0.263 NA
ATOM     34  C   UNL     1      -4.588   0.846  -4.038  0.00  0.00    +0.112 A 
ENDBRANCH  28  29
ENDBRANCH  26  28
BRANCH  26  35
ATOM     35  C   UNL     1      -3.124   2.814  -0.840  0.00  0.00    -0.001 C 
BRANCH  35  36
ATOM     36  C   UNL     1      -1.819   3.454  -1.237  0.00  0.00    +0.089 A 
ATOM     37  C   UNL     1      -1.511   3.920  -2.461  0.00  0.00    +0.042 A 
ATOM     38  C   UNL     1      -0.196   4.433  -2.385  0.00  0.00    +0.041 A 
ATOM     39  C   UNL     1       0.222   4.249  -1.119  0.00  0.00    +0.195 A 
ATOM     40  O   UNL     1      -0.767   3.661  -0.427  0.00  0.00    -0.470 OA
ENDBRANCH  35  36
ENDBRANCH  26  35
ENDBRANCH   1  26
TORSDOF 9
