REMARK  Name = ZINC59310116
REMARK  7 active torsions:
REMARK  status: ('A' for Active; 'I' for Inactive)
REMARK    1  A    between atoms: C_1  and  C_2
REMARK    2  A    between atoms: C_7  and  N_8
REMARK    3  A    between atoms: C_9  and  C_11
REMARK    4  A    between atoms: C_11  and  S_12
REMARK    5  A    between atoms: S_12  and  C_13
REMARK    6  A    between atoms: N_18  and  N_19
REMARK    7  A    between atoms: C_20  and  C_21
REMARK                            x       y       z     vdW  Elec       q    Type
REMARK                         _______ _______ _______ _____ _____    ______ ____
ROOT
ATOM      1  C   UNL     1      -0.445  -0.117   7.683  0.00  0.00    +0.211 A 
ATOM      2  N   UNL     1      -0.519  -0.558   8.943  0.00  0.00    -0.186 NA
ATOM      3  C   UNL     1      -0.583   0.466   9.768  0.00  0.00    +0.232 A 
ATOM      4  N   UNL     1      -0.550   1.597   9.031  0.00  0.00    -0.245 N 
ATOM      5  N   UNL     1      -0.455   1.195   7.689  0.00  0.00    -0.144 NA
ATOM      6  N   UNL     1      -0.670   0.396  11.146  0.00  0.00    -0.205 N 
ATOM      7  H   UNL     1      -0.713   1.210  11.671  0.00  0.00    +0.177 HD
ATOM      8  H   UNL     1      -0.581   2.508   9.364  0.00  0.00    +0.192 HD
ENDROOT
BRANCH   6   9
ATOM      9  N   UNL     1      -0.695  -0.852  11.783  0.00  0.00    -0.188 NA
ATOM     10  C   UNL     1      -0.777  -0.918  13.081  0.00  0.00    +0.139 C 
BRANCH  10  11
ATOM     11  C   UNL     1      -0.803  -2.222  13.748  0.00  0.00    +0.010 A 
ATOM     12  C   UNL     1      -1.019  -2.308  15.139  0.00  0.00    -0.009 A 
ATOM     13  C   UNL     1      -1.212  -1.153  15.916  0.00  0.00    +0.009 A 
ATOM     14  C   UNL     1      -1.418  -1.271  17.256  0.00  0.00    +0.001 A 
ATOM     15  C   UNL     1      -1.442  -2.514  17.885  0.00  0.00    +0.001 A 
ATOM     16  C   UNL     1      -1.262  -3.668  17.192  0.00  0.00    +0.008 A 
ATOM     17  C   UNL     1      -1.045  -3.616  15.798  0.00  0.00    -0.017 A 
ATOM     18  C   UNL     1      -0.857  -4.783  15.056  0.00  0.00    +0.017 A 
ATOM     19  C   UNL     1      -0.643  -4.707  13.679  0.00  0.00    -0.017 A 
ATOM     20  C   UNL     1      -0.620  -3.407  13.005  0.00  0.00    -0.009 A 
ATOM     21  C   UNL     1      -0.408  -3.367  11.616  0.00  0.00    +0.009 A 
ATOM     22  C   UNL     1      -0.234  -4.528  10.929  0.00  0.00    +0.001 A 
ATOM     23  C   UNL     1      -0.261  -5.767  11.568  0.00  0.00    +0.001 A 
ATOM     24  C   UNL     1      -0.450  -5.873  12.909  0.00  0.00    +0.008 A 
ENDBRANCH  10  11
ENDBRANCH   6   9
BRANCH   1  25
ATOM     25  S   UNL     1      -0.343  -1.133   6.247  0.00  0.00    -0.075 S 
BRANCH  25  26
ATOM     26  C   UNL     1      -0.261   0.053   4.876  0.00  0.00    +0.173 C 
BRANCH  26  28
ATOM     27  N   UNL     1      -0.097  -0.016   2.409  0.00  0.00    -0.285 N 
ATOM     28  C   UNL     1      -0.169  -0.695   3.571  0.00  0.00    +0.227 C 
ATOM     29  O   UNL     1      -0.160  -1.908   3.566  0.00  0.00    -0.275 OA
ATOM     30  H   UNL     1      -0.038   0.952   2.416  0.00  0.00    +0.155 HD
BRANCH  27  37
ATOM     31  C   UNL     1      -1.408   1.190   0.190  0.00  0.00    +0.046 C 
ATOM     32  C   UNL     1      -0.737  -0.155   0.084  0.00  0.00    -0.028 A 
ATOM     33  C   UNL     1      -0.742  -0.838  -1.117  0.00  0.00    +0.025 A 
ATOM     34  C   UNL     1      -0.126  -2.073  -1.215  0.00  0.00    +0.041 A 
ATOM     35  C   UNL     1       0.497  -2.628  -0.111  0.00  0.00    +0.022 A 
ATOM     36  C   UNL     1       0.505  -1.950   1.092  0.00  0.00    +0.025 A 
ATOM     37  C   UNL     1      -0.108  -0.707   1.192  0.00  0.00    +0.036 A 
ATOM     38 CL   UNL     1      -0.135  -2.928  -2.726  0.00  0.00    -0.084 Cl
ENDBRANCH  27  37
ENDBRANCH  26  28
ENDBRANCH  25  26
ENDBRANCH   1  25
TORSDOF 6
