REMARK  Name = ZINC15276099
REMARK  12 active torsions:
REMARK  status: ('A' for Active; 'I' for Inactive)
REMARK    1  A    between atoms: C_1  and  C_2
REMARK    2  A    between atoms: C_2  and  C_3
REMARK    3  A    between atoms: C_2  and  C_4
REMARK    4  A    between atoms: C_4  and  C_5
REMARK    5  A    between atoms: C_5  and  C_35
REMARK    6  A    between atoms: C_10  and  C_13
REMARK    7  A    between atoms: C_17  and  O_20
REMARK    8  A    between atoms: C_18  and  O_19
REMARK    9  A    between atoms: O_20  and  C_21
REMARK   10  A    between atoms: N_24  and  C_27
REMARK   11  A    between atoms: C_32  and  O_33
REMARK   12  A    between atoms: O_33  and  C_34
REMARK                            x       y       z     vdW  Elec       q    Type
REMARK                         _______ _______ _______ _____ _____    ______ ____
ROOT
ATOM      1  C   UNL     1      -1.664  -2.088  -0.016  0.00  0.00    +0.048 C 
ATOM      2  C   UNL     1      -3.067  -2.705   0.168  0.00  0.00    +0.086 C 
ATOM      3  C   UNL     1      -2.815  -4.061   0.880  0.00  0.00    +0.077 C 
ATOM      4  C   UNL     1      -1.283  -4.143   1.045  0.00  0.00    -0.023 C 
ATOM      5  N   UNL     1      -0.833  -2.721   1.039  0.00  0.00    +0.396 N 
ATOM      6  C   UNL     1      -3.466  -3.872   2.231  0.00  0.00    +0.229 C 
ATOM      7  O   UNL     1      -3.501  -4.702   3.114  0.00  0.00    -0.275 OA
ATOM      8  N   UNL     1      -3.996  -2.646   2.301  0.00  0.00    -0.206 N 
ATOM      9  C   UNL     1      -3.837  -1.896   1.186  0.00  0.00    +0.229 C 
ATOM     10  O   UNL     1      -4.238  -0.763   1.023  0.00  0.00    -0.275 OA
ATOM     11  H   UNL     1       0.145  -2.666   0.798  0.00  0.00    -0.083 HD
ATOM     12  H   UNL     1      -1.003  -2.284   1.932  0.00  0.00    -0.083 HD
ENDROOT
BRANCH   4  13
ATOM     13  C   UNL     1      -0.930  -4.787   2.361  0.00  0.00    -0.015 A 
ATOM     14  C   UNL     1      -0.681  -4.000   3.470  0.00  0.00    +0.006 A 
ATOM     15  C   UNL     1      -0.358  -4.588   4.679  0.00  0.00    +0.004 A 
ATOM     16  C   UNL     1      -0.281  -5.964   4.784  0.00  0.00    +0.049 A 
ATOM     17  C   UNL     1      -0.529  -6.758   3.676  0.00  0.00    +0.161 A 
ATOM     18  C   UNL     1      -0.861  -6.167   2.461  0.00  0.00    +0.160 A 
BRANCH  18  19
ATOM     19  O   UNL     1      -1.111  -6.942   1.371  0.00  0.00    -0.503 OA
ATOM     20  H   UNL     1      -0.328  -7.139   0.841  0.00  0.00    +0.292 HD
ENDBRANCH  18  19
BRANCH  17  21
ATOM     21  O   UNL     1      -0.454  -8.112   3.778  0.00  0.00    -0.491 OA
ATOM     22  C   UNL     1      -0.114  -8.649   5.058  0.00  0.00    +0.277 C 
ENDBRANCH  17  21
ENDBRANCH   4  13
BRANCH   8  23
ATOM     23  C   UNL     1      -4.672  -2.175   3.438  0.00  0.00    +0.085 A 
ATOM     24  C   UNL     1      -3.973  -1.514   4.437  0.00  0.00    +0.027 A 
ATOM     25  C   UNL     1      -4.641  -1.050   5.555  0.00  0.00    +0.002 A 
ATOM     26  C   UNL     1      -6.004  -1.244   5.681  0.00  0.00    +0.004 A 
ATOM     27  C   UNL     1      -6.707  -1.901   4.689  0.00  0.00    +0.047 A 
ATOM     28  C   UNL     1      -6.046  -2.364   3.562  0.00  0.00    +0.142 A 
BRANCH  28  29
ATOM     29  O   UNL     1      -6.736  -3.007   2.583  0.00  0.00    -0.493 OA
ATOM     30  C   UNL     1      -8.143  -3.165   2.778  0.00  0.00    +0.277 C 
ENDBRANCH  28  29
ENDBRANCH   8  23
BRANCH   1  31
ATOM     31  C   UNL     1      -1.119  -2.416  -1.382  0.00  0.00    +0.346 C 
ATOM     32  O   UNL     1      -0.164  -3.167  -1.493  0.00  0.00    -0.248 OA
ATOM     33  O   UNL     1      -1.632  -1.932  -2.376  0.00  0.00    -0.248 OA
ENDBRANCH   1  31
BRANCH   1  34
ATOM     34  C   UNL     1      -1.718  -0.573   0.185  0.00  0.00    +0.002 C 
BRANCH  34  36
ATOM     35  C   UNL     1       0.383  -0.162  -1.103  0.00  0.00    +0.007 C 
ATOM     36  C   UNL     1      -0.295  -0.017   0.261  0.00  0.00    -0.018 C 
ATOM     37  C   UNL     1      -0.344   1.461   0.651  0.00  0.00    +0.007 C 
ENDBRANCH  34  36
ENDBRANCH   1  34
TORSDOF 8
