REMARK  Name = ZINC12888546
REMARK  15 active torsions:
REMARK  status: ('A' for Active; 'I' for Inactive)
REMARK    1  A    between atoms: C_1  and  C_2
REMARK    2  A    between atoms: C_2  and  C_3
REMARK    3  A    between atoms: C_3  and  C_5
REMARK    4  A    between atoms: C_3  and  N_6
REMARK    5  A    between atoms: C_7  and  C_9
REMARK    6  A    between atoms: C_9  and  C_10
REMARK    7  A    between atoms: C_10  and  C_11
REMARK    8  A    between atoms: C_11  and  O_13
REMARK    9  A    between atoms: O_13  and  C_14
REMARK   10  A    between atoms: C_14  and  C_15
REMARK   11  A    between atoms: C_15  and  C_17
REMARK   12  A    between atoms: C_17  and  O_42
REMARK   13  A    between atoms: C_22  and  C_41
REMARK   14  A    between atoms: C_24  and  O_40
REMARK   15  A    between atoms: C_38  and  C_39
REMARK                            x       y       z     vdW  Elec       q    Type
REMARK                         _______ _______ _______ _____ _____    ______ ____
ROOT
ATOM      1  C   UNL     1       2.337  -3.047  -0.028  0.00  0.00    +0.133 C 
ATOM      2  C   UNL     1       2.838  -3.315   1.414  0.00  0.00    +0.043 C 
ATOM      3  C   UNL     1       2.910  -4.858   1.572  0.00  0.00    +0.008 C 
ATOM      4  C   UNL     1       3.003  -5.336   0.110  0.00  0.00    +0.002 C 
ATOM      5  C   UNL     1       1.952  -4.432  -0.568  0.00  0.00    +0.009 C 
ATOM      6  C   UNL     1       2.020  -4.596  -2.066  0.00  0.00    +0.041 C 
ATOM      7  C   UNL     1       2.752  -5.914  -2.412  0.00  0.00    +0.119 C 
ATOM      8  C   UNL     1       2.231  -7.028  -1.525  0.00  0.00    +0.031 C 
ATOM      9  C   UNL     1       2.659  -6.806  -0.082  0.00  0.00    -0.001 C 
ATOM     10  C   UNL     1       3.899  -7.610   0.297  0.00  0.00    +0.008 C 
ATOM     11  C   UNL     1       3.669  -9.098   0.082  0.00  0.00    +0.032 C 
ATOM     12  C   UNL     1       3.312  -9.316  -1.374  0.00  0.00    -0.060 C 
ATOM     13  C   UNL     1       3.922 -10.324  -2.002  0.00  0.00    +0.046 C 
ATOM     14  C   UNL     1       3.591 -10.663  -3.387  0.00  0.00    +0.156 C 
ATOM     15  O   UNL     1       4.282 -11.431  -4.031  0.00  0.00    -0.293 OA
ATOM     16  C   UNL     1       2.357 -10.027  -3.991  0.00  0.00    +0.080 C 
ATOM     17  C   UNL     1       2.321  -8.564  -3.541  0.00  0.00    +0.019 C 
ATOM     18  C   UNL     1       2.294  -8.439  -2.028  0.00  0.00    -0.005 C 
ATOM     19  C   UNL     1       0.937  -9.046  -1.607  0.00  0.00    +0.016 C 
ATOM     20  C   UNL     1       0.537  -4.753  -0.070  0.00  0.00    +0.015 C 
ENDROOT
BRANCH   1  21
ATOM     21  C   UNL     1       1.133  -2.144  -0.004  0.00  0.00    +0.202 C 
ATOM     22  O   UNL     1       0.438  -2.090   0.982  0.00  0.00    -0.291 OA
BRANCH  21  23
ATOM     23  C   UNL     1       0.796  -1.306  -1.211  0.00  0.00    +0.309 C 
BRANCH  23  24
ATOM     24  O   UNL     1      -0.400  -0.528  -0.940  0.00  0.00    -0.457 OA
BRANCH  24  25
ATOM     25  C   UNL     1      -0.838   0.277  -1.921  0.00  0.00    +0.308 C 
ATOM     26  O   UNL     1      -0.242   0.329  -2.971  0.00  0.00    -0.251 OA
BRANCH  25  27
ATOM     27  C   UNL     1      -2.076   1.110  -1.715  0.00  0.00    +0.130 C 
BRANCH  27  28
ATOM     28  C   UNL     1      -2.355   1.931  -2.977  0.00  0.00    +0.107 C 
BRANCH  28  30
ATOM     29  N   UNL     1      -4.033   3.572  -3.756  0.00  0.00    -0.313 N 
ATOM     30  C   UNL     1      -3.593   2.764  -2.771  0.00  0.00    +0.214 C 
ATOM     31  O   UNL     1      -4.194   2.708  -1.719  0.00  0.00    -0.276 OA
ATOM     32  H   UNL     1      -3.552   3.617  -4.597  0.00  0.00    +0.149 HD
BRANCH  29  33
ATOM     33  C   UNL     1      -5.237   4.383  -3.555  0.00  0.00    +0.070 C 
ATOM     34  C   UNL     1      -4.862   5.688  -2.851  0.00  0.00    +0.028 C 
BRANCH  33  36
ATOM     35  C   UNL     1      -6.359   3.401  -5.561  0.00  0.00    +0.005 C 
ATOM     36  C   UNL     1      -5.870   4.698  -4.912  0.00  0.00    +0.018 C 
ENDBRANCH  33  36
ENDBRANCH  29  33
ENDBRANCH  28  30
ENDBRANCH  27  28
ENDBRANCH  25  27
ENDBRANCH  24  25
ENDBRANCH  23  24
ENDBRANCH  21  23
ENDBRANCH   1  21
BRANCH   7  37
ATOM     37  O   UNL     1       2.525  -6.151  -3.802  0.00  0.00    -0.391 OA
ATOM     38  H   UNL     1       2.855  -5.449  -4.380  0.00  0.00    +0.210 HD
ENDBRANCH   7  37
BRANCH   1  39
ATOM     39  O   UNL     1       3.382  -2.476  -0.811  0.00  0.00    -0.380 OA
ATOM     40  H   UNL     1       3.683  -1.613  -0.496  0.00  0.00    +0.211 HD
ENDBRANCH   1  39
TORSDOF 11
