REMARK  Name = ZINC14472706
REMARK  6 active torsions:
REMARK  status: ('A' for Active; 'I' for Inactive)
REMARK    1  A    between atoms: C_1  and  C_2
REMARK    2  A    between atoms: C_2  and  O_3
REMARK    3  A    between atoms: O_3  and  C_4
REMARK    4  A    between atoms: C_4  and  C_6
REMARK    5  A    between atoms: C_19  and  C_22
REMARK    6  A    between atoms: C_24  and  N_29
REMARK                            x       y       z     vdW  Elec       q    Type
REMARK                         _______ _______ _______ _____ _____    ______ ____
ROOT
ATOM      1  C   UNL     1       1.157   3.166   0.005  0.00  0.00    +0.059 A 
ATOM      2  C   UNL     1       1.164   1.767   0.000  0.00  0.00    +0.017 A 
ATOM      3  C   UNL     1      -0.013   1.076   0.008  0.00  0.00    +0.024 A 
ATOM      4  C   UNL     1      -1.233   1.749   0.017  0.00  0.00    +0.031 A 
ATOM      5  C   UNL     1      -1.245   3.152   0.016  0.00  0.00    -0.019 A 
ATOM      6  C   UNL     1      -0.063   3.851   0.011  0.00  0.00    +0.021 A 
ATOM      7  C   UNL     1      -2.563   3.823   0.004  0.00  0.00    +0.049 C 
ATOM      8  C   UNL     1      -2.752   5.192   0.549  0.00  0.00    -0.023 C 
ATOM      9  C   UNL     1      -3.984   5.288   1.034  0.00  0.00    -0.030 C 
ATOM     10  C   UNL     1      -4.714   3.953   0.876  0.00  0.00    +0.033 C 
ATOM     11  C   UNL     1      -3.543   2.962   0.855  0.00  0.00    +0.029 C 
ATOM     12  C   UNL     1      -3.735   1.675   0.073  0.00  0.00    +0.106 C 
ATOM     13  N   UNL     1      -2.414   1.011   0.067  0.00  0.00    -0.336 N 
ATOM     14  H   UNL     1      -2.369   0.042   0.093  0.00  0.00    +0.147 HD
ENDROOT
BRANCH  12  15
ATOM     15  C   UNL     1      -4.758   0.801   0.752  0.00  0.00    -0.007 A 
ATOM     16  C   UNL     1      -4.349  -0.193   1.622  0.00  0.00    +0.039 A 
ATOM     17  C   UNL     1      -5.287  -0.991   2.249  0.00  0.00    +0.127 A 
ATOM     18  C   UNL     1      -6.634  -0.804   1.999  0.00  0.00    +0.034 A 
ATOM     19  C   UNL     1      -7.043   0.185   1.125  0.00  0.00    +0.022 A 
ATOM     20  C   UNL     1      -6.105   0.989   0.501  0.00  0.00    +0.046 A 
ATOM     21 CL   UNL     1      -6.619   2.232  -0.597  0.00  0.00    -0.083 Cl
BRANCH  17  22
ATOM     22  N   UNL     1      -4.849  -2.051   3.184  0.00  0.00    +0.056 N 
ATOM     23  O   UNL     1      -5.675  -2.758   3.733  0.00  0.00    -0.126 OA
ATOM     24  O   UNL     1      -3.663  -2.216   3.405  0.00  0.00    -0.126 OA
ENDBRANCH  17  22
ENDBRANCH  12  15
BRANCH   1  25
ATOM     25  C   UNL     1       2.427   3.913   0.004  0.00  0.00    +0.339 C 
ATOM     26  O   UNL     1       2.416   5.128   0.008  0.00  0.00    -0.245 OA
BRANCH  25  27
ATOM     27  O   UNL     1       3.599   3.249  -0.003  0.00  0.00    -0.461 OA
BRANCH  27  29
ATOM     28  C   UNL     1       6.032   3.128  -0.011  0.00  0.00    +0.048 C 
ATOM     29  C   UNL     1       4.810   4.050  -0.004  0.00  0.00    +0.229 C 
ENDBRANCH  27  29
ENDBRANCH  25  27
ENDBRANCH   1  25
TORSDOF 5
