REMARK  Name = ZINC39486619
REMARK  8 active torsions:
REMARK  status: ('A' for Active; 'I' for Inactive)
REMARK    1  A    between atoms: C_1  and  C_2
REMARK    2  A    between atoms: C_2  and  C_29
REMARK    3  A    between atoms: N_7  and  C_8
REMARK    4  A    between atoms: C_8  and  C_9
REMARK    5  A    between atoms: C_9  and  C_22
REMARK    6  A    between atoms: N_12  and  C_15
REMARK    7  A    between atoms: C_15  and  C_16
REMARK    8  A    between atoms: C_29  and  C_30
REMARK                            x       y       z     vdW  Elec       q    Type
REMARK                         _______ _______ _______ _____ _____    ______ ____
ROOT
ATOM      1  C   UNL     1       2.235   0.573   2.506  0.00  0.00    -0.014 C 
ATOM      2  C   UNL     1       1.600   0.300   3.873  0.00  0.00    -0.010 C 
ATOM      3  C   UNL     1       0.157  -0.170   3.675  0.00  0.00    -0.078 C 
ATOM      4  N   UNL     1      -0.608   0.871   2.977  0.00  0.00    +0.382 N 
ATOM      5  C   UNL     1      -0.049   1.087   1.638  0.00  0.00    -0.078 C 
ATOM      6  C   UNL     1       1.386   1.605   1.758  0.00  0.00    -0.010 C 
ATOM      7  H   UNL     1      -0.562   1.731   3.503  0.00  0.00    -0.081 HD
ENDROOT
BRANCH   1   8
ATOM      8  C   UNL     1       3.651   1.117   2.698  0.00  0.00    -0.003 C 
ATOM      9  C   UNL     1       4.431   0.192   3.634  0.00  0.00    +0.004 C 
ATOM     10  C   UNL     1       5.848   0.736   3.826  0.00  0.00    +0.000 C 
ATOM     11  C   UNL     1       5.778   2.137   4.437  0.00  0.00    +0.000 C 
ATOM     12  C   UNL     1       4.998   3.063   3.501  0.00  0.00    +0.000 C 
ATOM     13  C   UNL     1       3.581   2.518   3.309  0.00  0.00    +0.004 C 
ENDBRANCH   1   8
BRANCH   1  14
ATOM     14  C   UNL     1       2.291  -0.726   1.700  0.00  0.00    +0.117 C 
BRANCH  14  21
ATOM     15  C   UNL     1       5.190  -0.066   0.624  0.00  0.00    +0.034 C 
ATOM     16  C   UNL     1       4.099  -0.778  -0.179  0.00  0.00    +0.057 C 
ATOM     17  C   UNL     1       4.069  -0.258  -1.630  0.00  0.00    +0.148 C 
ATOM     18  N   UNL     1       2.723   0.319  -1.769  0.00  0.00    -0.220 N 
ATOM     19  C   UNL     1       2.061   0.174  -0.614  0.00  0.00    +0.315 C 
ATOM     20  O   UNL     1       0.921   0.565  -0.450  0.00  0.00    -0.252 OA
ATOM     21  N   UNL     1       2.768  -0.439   0.345  0.00  0.00    -0.277 N 
ATOM     22 BR   UNL     1       2.052   1.118  -3.297  0.00  0.00    +0.040 Br
BRANCH  16  23
ATOM     23  C   UNL     1       4.317  -2.292  -0.153  0.00  0.00    +0.062 C 
BRANCH  23  24
ATOM     24  C   UNL     1       5.667  -2.616  -0.740  0.00  0.00    -0.045 A 
ATOM     25  C   UNL     1       5.793  -2.849  -2.096  0.00  0.00    +0.004 A 
ATOM     26  C   UNL     1       7.031  -3.146  -2.635  0.00  0.00    +0.000 A 
ATOM     27  C   UNL     1       8.143  -3.210  -1.816  0.00  0.00    +0.000 A 
ATOM     28  C   UNL     1       8.017  -2.976  -0.459  0.00  0.00    +0.000 A 
ATOM     29  C   UNL     1       6.780  -2.675   0.078  0.00  0.00    +0.004 A 
ENDBRANCH  23  24
ENDBRANCH  16  23
ENDBRANCH  14  21
ENDBRANCH   1  14
BRANCH   4  30
ATOM     30  C   UNL     1      -2.010   0.449   2.858  0.00  0.00    -0.043 C 
BRANCH  30  31
ATOM     31  C   UNL     1      -2.827   1.576   2.281  0.00  0.00    -0.064 A 
ATOM     32  C   UNL     1      -3.414   2.504   3.120  0.00  0.00    +0.002 A 
ATOM     33  C   UNL     1      -4.163   3.538   2.591  0.00  0.00    +0.000 A 
ATOM     34  C   UNL     1      -4.325   3.644   1.222  0.00  0.00    +0.000 A 
ATOM     35  C   UNL     1      -3.738   2.716   0.383  0.00  0.00    +0.000 A 
ATOM     36  C   UNL     1      -2.985   1.684   0.912  0.00  0.00    +0.002 A 
ENDBRANCH  30  31
ENDBRANCH   4  30
TORSDOF 7
