REMARK  Name = ZINC12077963
REMARK  7 active torsions:
REMARK  status: ('A' for Active; 'I' for Inactive)
REMARK    1  A    between atoms: C_1  and  O_2
REMARK    2  A    between atoms: O_2  and  C_3
REMARK    3  A    between atoms: C_6  and  C_9
REMARK    4  A    between atoms: C_16  and  C_19
REMARK    5  A    between atoms: C_19  and  N_20
REMARK    6  A    between atoms: C_21  and  C_23
REMARK    7  A    between atoms: C_23  and  C_24
REMARK                            x       y       z     vdW  Elec       q    Type
REMARK                         _______ _______ _______ _____ _____    ______ ____
ROOT
ATOM      1  C   UNL     1      -5.112  -6.586  -2.744  0.00  0.00    +0.044 A 
ATOM      2  C   UNL     1      -5.881  -7.397  -3.573  0.00  0.00    +0.014 A 
ATOM      3  C   UNL     1      -6.367  -6.907  -4.768  0.00  0.00    +0.001 A 
ATOM      4  C   UNL     1      -6.091  -5.603  -5.143  0.00  0.00    +0.007 A 
ATOM      5  C   UNL     1      -5.333  -4.792  -4.326  0.00  0.00    -0.002 A 
ATOM      6  C   UNL     1      -4.827  -5.265  -3.124  0.00  0.00    +0.133 A 
ATOM      7  O   UNL     1      -4.099  -4.311  -2.484  0.00  0.00    -0.486 OA
ATOM      8  C   UNL     1      -4.445  -3.018  -3.011  0.00  0.00    +0.195 C 
ATOM      9  C   UNL     1      -4.891  -3.347  -4.456  0.00  0.00    +0.085 C 
ENDROOT
BRANCH   1  13
ATOM     10  C   UNL     1      -3.605  -7.996   0.886  0.00  0.00    +0.234 A 
ATOM     11  C   UNL     1      -4.366  -8.883   0.125  0.00  0.00    +0.071 A 
ATOM     12  C   UNL     1      -4.874  -8.434  -1.081  0.00  0.00    +0.035 A 
ATOM     13  C   UNL     1      -4.592  -7.117  -1.462  0.00  0.00    +0.097 A 
ATOM     14  N   UNL     1      -3.853  -6.348  -0.673  0.00  0.00    -0.146 NA
ATOM     15  N   UNL     1      -3.388  -6.767   0.447  0.00  0.00    -0.111 NA
BRANCH  10  17
ATOM     16  C   UNL     1      -2.318  -7.434   2.802  0.00  0.00    +0.279 C 
ATOM     17  O   UNL     1      -3.087  -8.394   2.075  0.00  0.00    -0.479 OA
ENDBRANCH  10  17
ENDBRANCH   1  13
BRANCH   8  18
ATOM     18  C   UNL     1      -3.228  -2.092  -3.017  0.00  0.00    +0.149 C 
BRANCH  18  19
ATOM     19  N   UNL     1      -2.754  -1.899  -1.645  0.00  0.00    -0.312 N 
ATOM     20  C   UNL     1      -1.684  -1.115  -1.404  0.00  0.00    +0.218 C 
ATOM     21  O   UNL     1      -1.114  -0.569  -2.325  0.00  0.00    -0.275 OA
ATOM     22  H   UNL     1      -3.210  -2.336  -0.908  0.00  0.00    +0.149 HD
BRANCH  20  23
ATOM     23  C   UNL     1      -1.197  -0.917   0.008  0.00  0.00    +0.133 C 
BRANCH  23  24
ATOM     24  C   UNL     1       0.002  -0.004   0.002  0.00  0.00    -0.014 A 
ATOM     25  C   UNL     1       1.291  -0.379  -0.012  0.00  0.00    +0.087 A 
ATOM     26  N   UNL     1       2.098   0.726  -0.014  0.00  0.00    -0.360 N 
ATOM     27  H   UNL     1       3.068   0.707  -0.024  0.00  0.00    +0.165 HD
ATOM     28  C   UNL     1       1.329   1.868  -0.001  0.00  0.00    +0.047 A 
ATOM     29  C   UNL     1      -0.018   1.461   0.010  0.00  0.00    +0.003 A 
ATOM     30  C   UNL     1      -1.034   2.417   0.030  0.00  0.00    +0.010 A 
ATOM     31  C   UNL     1      -0.716   3.746   0.028  0.00  0.00    +0.001 A 
ATOM     32  C   UNL     1       0.611   4.153   0.018  0.00  0.00    +0.002 A 
ATOM     33  C   UNL     1       1.631   3.225   0.003  0.00  0.00    +0.026 A 
ENDBRANCH  23  24
ENDBRANCH  20  23
ENDBRANCH  18  19
ENDBRANCH   8  18
TORSDOF 6
