REMARK  Name = ZINC21077751
REMARK  7 active torsions:
REMARK  status: ('A' for Active; 'I' for Inactive)
REMARK    1  A    between atoms: C_10  and  N_11
REMARK    2  A    between atoms: C_12  and  C_14
REMARK    3  A    between atoms: C_14  and  C_15
REMARK    4  A    between atoms: C_15  and  S_16
REMARK    5  A    between atoms: S_16  and  C_17
REMARK    6  A    between atoms: N_22  and  N_23
REMARK    7  A    between atoms: C_24  and  C_25
REMARK                            x       y       z     vdW  Elec       q    Type
REMARK                         _______ _______ _______ _____ _____    ______ ____
ROOT
ATOM      1  S   UNL     1       1.875  -2.076   0.004  0.00  0.00    -0.084 S 
ENDROOT
BRANCH   1   2
ATOM      2  C   UNL     1       1.308  -0.407   0.022  0.00  0.00    +0.210 A 
ATOM      3  N   UNL     1       0.004  -0.002   0.046  0.00  0.00    -0.186 NA
ATOM      4  C   UNL     1      -0.014   1.365   0.052  0.00  0.00    +0.232 A 
ATOM      5  N   UNL     1       1.227   1.786   0.034  0.00  0.00    -0.245 N 
ATOM      6  N   UNL     1       2.065   0.664   0.014  0.00  0.00    -0.144 NA
ATOM      7  N   UNL     1      -1.147   2.165   0.070  0.00  0.00    -0.205 N 
ATOM      8  H   UNL     1      -2.146   1.704   0.080  0.00  0.00    +0.177 HD
ATOM      9  H   UNL     1       1.441   2.865   0.035  0.00  0.00    +0.192 HD
BRANCH   7  10
ATOM     10  N   UNL     1      -1.020   3.560   0.075  0.00  0.00    -0.188 NA
ATOM     11  C   UNL     1      -2.080   4.309   0.091  0.00  0.00    +0.139 C 
BRANCH  11  12
ATOM     12  C   UNL     1      -1.946   5.777   0.096  0.00  0.00    +0.013 A 
ATOM     13  C   UNL     1      -3.084   6.587   0.108  0.00  0.00    +0.011 A 
ATOM     14  C   UNL     1      -2.951   7.960   0.118  0.00  0.00    +0.001 A 
ATOM     15  C   UNL     1      -1.693   8.537   0.106  0.00  0.00    +0.001 A 
ATOM     16  C   UNL     1      -0.560   7.742   0.089  0.00  0.00    +0.020 A 
ATOM     17  C   UNL     1      -0.678   6.367   0.084  0.00  0.00    +0.050 A 
ATOM     18 CL   UNL     1       0.745   5.372   0.061  0.00  0.00    -0.083 Cl
ENDBRANCH  11  12
ENDBRANCH   7  10
ENDBRANCH   1   2
BRANCH   1  19
ATOM     19  C   UNL     1       3.682  -1.925  -0.025  0.00  0.00    +0.086 C 
BRANCH  19  20
ATOM     20  C   UNL     1       4.310  -3.320  -0.042  0.00  0.00    +0.107 C 
BRANCH  20  22
ATOM     21  N   UNL     1       6.580  -4.303  -0.085  0.00  0.00    -0.285 N 
ATOM     22  C   UNL     1       5.811  -3.195  -0.066  0.00  0.00    +0.218 C 
ATOM     23  O   UNL     1       6.329  -2.098  -0.070  0.00  0.00    -0.275 OA
ATOM     24  H   UNL     1       6.114  -5.296  -0.007  0.00  0.00    +0.155 HD
BRANCH  21  34
ATOM     25  C   UNL     1      10.191  -7.029  -2.322  0.00  0.00    +0.001 A 
ATOM     26  C   UNL     1       8.807  -7.162  -2.216  0.00  0.00    +0.001 A 
ATOM     27  C   UNL     1       8.066  -6.248  -1.531  0.00  0.00    +0.010 A 
ATOM     28  C   UNL     1       8.702  -5.158  -0.916  0.00  0.00    +0.003 A 
ATOM     29  C   UNL     1      10.108  -5.019  -1.027  0.00  0.00    -0.016 A 
ATOM     30  C   UNL     1      10.840  -5.982  -1.743  0.00  0.00    +0.008 A 
ATOM     31  C   UNL     1      10.745  -3.926  -0.416  0.00  0.00    +0.008 A 
ATOM     32  C   UNL     1      10.011  -3.008   0.271  0.00  0.00    +0.002 A 
ATOM     33  C   UNL     1       8.629  -3.131   0.382  0.00  0.00    +0.024 A 
ATOM     34  C   UNL     1       7.966  -4.189  -0.203  0.00  0.00    +0.041 A 
ENDBRANCH  21  34
ENDBRANCH  20  22
ENDBRANCH  19  20
ENDBRANCH   1  19
TORSDOF 7
