REMARK  Name = ZINC36159975
REMARK  14 active torsions:
REMARK  status: ('A' for Active; 'I' for Inactive)
REMARK    1  A    between atoms: C_1  and  C_2
REMARK    2  A    between atoms: C_7  and  O_8
REMARK    3  A    between atoms: O_8  and  C_9
REMARK    4  A    between atoms: C_9  and  C_10
REMARK    5  A    between atoms: C_10  and  C_12
REMARK    6  A    between atoms: C_10  and  O_34
REMARK    7  A    between atoms: C_12  and  N_13
REMARK    8  A    between atoms: N_13  and  C_14
REMARK    9  A    between atoms: N_13  and  C_19
REMARK   10  A    between atoms: C_14  and  C_15
REMARK   11  A    between atoms: C_15  and  C_16
REMARK   12  A    between atoms: C_16  and  C_17
REMARK   13  A    between atoms: C_16  and  C_18
REMARK   14  A    between atoms: C_19  and  C_20
REMARK                            x       y       z     vdW  Elec       q    Type
REMARK                         _______ _______ _______ _____ _____    ______ ____
ROOT
ATOM      1  N   UNL     1       0.144   0.238   7.402  0.00  0.00    +0.386 N 
ATOM      2  H   UNL     1       0.789   0.786   6.852  0.00  0.00    -0.081 HD
ENDROOT
BRANCH   1   3
ATOM      3  C   UNL     1      -0.431  -0.825   6.567  0.00  0.00    -0.043 C 
BRANCH   3   4
ATOM      4  C   UNL     1      -1.053  -0.207   5.313  0.00  0.00    +0.135 C 
BRANCH   4   5
ATOM      5  O   UNL     1      -2.194   0.570   5.680  0.00  0.00    -0.390 OA
ATOM      6  H   UNL     1      -2.889   0.064   6.123  0.00  0.00    +0.210 HD
ENDBRANCH   4   5
BRANCH   4   7
ATOM      7  C   UNL     1      -1.481  -1.321   4.355  0.00  0.00    +0.258 C 
BRANCH   7   8
ATOM      8  O   UNL     1      -1.954  -0.745   3.135  0.00  0.00    -0.489 OA
BRANCH   8  15
ATOM      9  C   UNL     1      -2.893   0.374   0.718  0.00  0.00    +0.047 C 
ATOM     10  C   UNL     1      -2.847  -1.112   0.962  0.00  0.00    -0.009 A 
ATOM     11  C   UNL     1      -3.269  -1.988  -0.021  0.00  0.00    +0.007 A 
ATOM     12  C   UNL     1      -3.228  -3.351   0.203  0.00  0.00    +0.000 A 
ATOM     13  C   UNL     1      -2.764  -3.843   1.409  0.00  0.00    +0.004 A 
ATOM     14  C   UNL     1      -2.340  -2.972   2.394  0.00  0.00    +0.046 A 
ATOM     15  C   UNL     1      -2.375  -1.603   2.170  0.00  0.00    +0.124 A 
ENDBRANCH   8  15
ENDBRANCH   7   8
ENDBRANCH   4   7
ENDBRANCH   3   4
ENDBRANCH   1   3
BRANCH   1  16
ATOM     16  C   UNL     1      -0.931   1.105   7.902  0.00  0.00    -0.078 C 
BRANCH  16  17
ATOM     17  C   UNL     1      -1.990   0.251   8.603  0.00  0.00    -0.016 C 
BRANCH  17  18
ATOM     18  C   UNL     1      -3.163   1.138   9.024  0.00  0.00    -0.019 C 
ATOM     19  C   UNL     1      -4.275   0.267   9.612  0.00  0.00    +0.007 C 
ATOM     20  C   UNL     1      -2.691   2.142  10.077  0.00  0.00    +0.007 C 
ENDBRANCH  17  18
ENDBRANCH  16  17
ENDBRANCH   1  16
BRANCH   1  21
ATOM     21  C   UNL     1       0.857  -0.363   8.537  0.00  0.00    -0.003 C 
BRANCH  21  22
ATOM     22  C   UNL     1       1.584   0.714   9.301  0.00  0.00    +0.094 A 
ATOM     23  N   UNL     1       2.267   0.386  10.428  0.00  0.00    -0.312 N 
ATOM     24  H   UNL     1       2.279  -0.538  10.725  0.00  0.00    +0.170 HD
ATOM     25  C   UNL     1       2.930   1.316  11.141  0.00  0.00    +0.260 A 
ATOM     26  O   UNL     1       3.540   1.007  12.150  0.00  0.00    -0.267 OA
ATOM     27  C   UNL     1       2.906   2.676  10.690  0.00  0.00    +0.075 A 
ATOM     28  C   UNL     1       3.551   3.846  11.304  0.00  0.00    -0.023 A 
ATOM     29  C   UNL     1       3.379   5.028  10.688  0.00  0.00    -0.004 A 
ATOM     30  S   UNL     1       2.365   4.664   9.272  0.00  0.00    -0.073 S 
ATOM     31  C   UNL     1       2.176   2.919   9.520  0.00  0.00    +0.116 A 
ATOM     32  N   UNL     1       1.549   1.944   8.864  0.00  0.00    -0.229 NA
ATOM     33  C   UNL     1       4.078   6.151  11.406  0.00  0.00    +0.043 C 
ATOM     34  C   UNL     1       4.369   5.588  12.814  0.00  0.00    +0.010 C 
ATOM     35  C   UNL     1       4.426   4.072  12.541  0.00  0.00    +0.037 C 
ENDBRANCH  21  22
ENDBRANCH   1  21
TORSDOF 11
