REMARK  Name = ZINC01108837
REMARK  7 active torsions:
REMARK  status: ('A' for Active; 'I' for Inactive)
REMARK    1  A    between atoms: C_1  and  C_2
REMARK    2  A    between atoms: C_5  and  S_8
REMARK    3  A    between atoms: S_8  and  C_11
REMARK    4  A    between atoms: C_11  and  C_33
REMARK    5  A    between atoms: C_12  and  C_13
REMARK    6  A    between atoms: C_14  and  O_24
REMARK    7  A    between atoms: O_24  and  C_25
REMARK                            x       y       z     vdW  Elec       q    Type
REMARK                         _______ _______ _______ _____ _____    ______ ____
ROOT
ATOM      1  C   UNL     1      -1.159   3.301  -3.413  0.00  0.00    +0.104 A 
ATOM      2  C   UNL     1      -0.583   4.272  -4.261  0.00  0.00    +0.235 A 
ATOM      3  N   UNL     1      -1.223   4.643  -5.358  0.00  0.00    -0.194 NA
ATOM      4  C   UNL     1      -2.410   4.129  -5.684  0.00  0.00    +0.144 A 
ATOM      5  C   UNL     1      -3.045   4.565  -6.861  0.00  0.00    +0.047 A 
ATOM      6  C   UNL     1      -4.259   4.046  -7.201  0.00  0.00    +0.005 A 
ATOM      7  C   UNL     1      -4.856   3.085  -6.374  0.00  0.00    +0.018 A 
ATOM      8  C   UNL     1      -4.231   2.678  -5.247  0.00  0.00    +0.096 A 
ATOM      9  N   UNL     1      -3.017   3.190  -4.898  0.00  0.00    -0.268 N 
ATOM     10  C   UNL     1      -2.418   2.762  -3.766  0.00  0.00    +0.269 A 
ATOM     11  O   UNL     1      -2.954   1.925  -3.060  0.00  0.00    -0.266 OA
ENDROOT
BRANCH   1  13
ATOM     12  C   UNL     1       0.763   2.375  -2.307  0.00  0.00    +0.171 C 
ATOM     13  C   UNL     1      -0.493   2.881  -2.233  0.00  0.00    +0.057 C 
BRANCH  12  14
ATOM     14  S   UNL     1       1.650   2.000  -0.831  0.00  0.00    +0.035 S 
ATOM     15  O   UNL     1       2.935   2.589  -0.969  0.00  0.00    -0.164 OA
ATOM     16  O   UNL     1       0.783   2.307   0.252  0.00  0.00    -0.164 OA
BRANCH  14  21
ATOM     17  C   UNL     1       2.492  -3.974  -0.725  0.00  0.00    +0.044 C 
ATOM     18  C   UNL     1       2.282  -2.482  -0.751  0.00  0.00    -0.050 A 
ATOM     19  C   UNL     1       3.219  -1.662  -1.351  0.00  0.00    +0.005 A 
ATOM     20  C   UNL     1       3.026  -0.294  -1.375  0.00  0.00    +0.027 A 
ATOM     21  C   UNL     1       1.895   0.255  -0.800  0.00  0.00    +0.094 A 
ATOM     22  C   UNL     1       0.960  -0.564  -0.196  0.00  0.00    +0.027 A 
ATOM     23  C   UNL     1       1.151  -1.933  -0.176  0.00  0.00    +0.005 A 
ENDBRANCH  14  21
ENDBRANCH  12  14
BRANCH  12  24
ATOM     24  C   UNL     1       1.369   2.146  -3.584  0.00  0.00    +0.119 C 
ATOM     25  N   UNL     1       1.850   1.964  -4.597  0.00  0.00    -0.189 NA
ENDBRANCH  12  24
ENDBRANCH   1  13
BRANCH   2  26
ATOM     26  O   UNL     1       0.617   4.816  -3.956  0.00  0.00    -0.436 OA
BRANCH  26  27
ATOM     27  C   UNL     1       1.074   5.830  -4.736  0.00  0.00    +0.149 A 
ATOM     28  C   UNL     1       1.934   5.562  -5.791  0.00  0.00    +0.049 A 
ATOM     29  C   UNL     1       2.398   6.594  -6.584  0.00  0.00    +0.023 A 
ATOM     30  C   UNL     1       2.005   7.896  -6.326  0.00  0.00    +0.043 A 
ATOM     31  C   UNL     1       1.148   8.167  -5.275  0.00  0.00    +0.043 A 
ATOM     32  C   UNL     1       0.677   7.136  -4.482  0.00  0.00    +0.085 A 
ATOM     33 CL   UNL     1      -0.404   7.475  -3.167  0.00  0.00    -0.080 Cl
ATOM     34 CL   UNL     1       2.590   9.191  -7.323  0.00  0.00    -0.083 Cl
ENDBRANCH  26  27
ENDBRANCH   2  26
TORSDOF 6
