REMARK  Name = ZINC34699222
REMARK  14 active torsions:
REMARK  status: ('A' for Active; 'I' for Inactive)
REMARK    1  A    between atoms: C_1  and  C_2
REMARK    2  A    between atoms: C_2  and  C_3
REMARK    3  A    between atoms: C_2  and  C_4
REMARK    4  A    between atoms: N_6  and  C_7
REMARK    5  A    between atoms: N_6  and  C_14
REMARK    6  A    between atoms: C_7  and  C_8
REMARK    7  A    between atoms: C_14  and  C_15
REMARK    8  A    between atoms: N_18  and  C_30
REMARK    9  A    between atoms: C_20  and  C_22
REMARK   10  A    between atoms: C_27  and  O_28
REMARK   11  A    between atoms: O_28  and  C_29
REMARK   12  A    between atoms: C_30  and  C_31
REMARK   13  A    between atoms: C_36  and  O_37
REMARK   14  A    between atoms: O_37  and  C_38
REMARK                            x       y       z     vdW  Elec       q    Type
REMARK                         _______ _______ _______ _____ _____    ______ ____
ROOT
ATOM      1  C   UNL     1      -1.198  -0.698  -2.975  0.00  0.00    -0.004 C 
ATOM      2  C   UNL     1      -0.003  -1.419  -2.315  0.00  0.00    -0.073 C 
ATOM      3  N   UNL     1       0.955  -1.650  -3.427  0.00  0.00    +0.383 N 
ATOM      4  C   UNL     1       0.882  -0.406  -4.236  0.00  0.00    -0.070 C 
ATOM      5  C   UNL     1      -0.618  -0.032  -4.240  0.00  0.00    +0.009 C 
ATOM      6  H   UNL     1       0.672  -2.446  -3.977  0.00  0.00    -0.081 HD
ENDROOT
BRANCH   5   7
ATOM      7  C   UNL     1      -0.785   1.464  -4.168  0.00  0.00    -0.004 A 
ATOM      8  C   UNL     1      -0.127   2.187  -3.191  0.00  0.00    +0.007 A 
ATOM      9  C   UNL     1      -0.280   3.559  -3.124  0.00  0.00    +0.001 A 
ATOM     10  C   UNL     1      -1.091   4.212  -4.034  0.00  0.00    +0.004 A 
ATOM     11  C   UNL     1      -1.751   3.494  -5.012  0.00  0.00    +0.046 A 
ATOM     12  C   UNL     1      -1.595   2.118  -5.085  0.00  0.00    +0.123 A 
BRANCH  12  13
ATOM     13  O   UNL     1      -2.239   1.410  -6.050  0.00  0.00    -0.495 OA
ATOM     14  C   UNL     1      -3.056   2.148  -6.960  0.00  0.00    +0.277 C 
ENDBRANCH  12  13
ENDBRANCH   5   7
BRANCH   1  15
ATOM     15  C   UNL     1      -1.767   0.363  -2.030  0.00  0.00    +0.110 C 
BRANCH  15  18
ATOM     16  C   UNL     1      -1.873  -0.474   0.256  0.00  0.00    +0.218 C 
ATOM     17  O   UNL     1      -2.428  -1.101   1.133  0.00  0.00    -0.275 OA
ATOM     18  N   UNL     1      -2.481  -0.294  -0.933  0.00  0.00    -0.297 N 
BRANCH  16  20
ATOM     19  C   UNL     1      -0.630   1.425   1.257  0.00  0.00    +0.017 C 
ATOM     20  C   UNL     1      -0.501   0.104   0.495  0.00  0.00    +0.069 C 
ATOM     21  C   UNL     1       0.331  -0.881   1.319  0.00  0.00    +0.017 C 
ENDBRANCH  16  20
BRANCH  18  22
ATOM     22  C   UNL     1      -3.858  -0.756  -1.128  0.00  0.00    +0.142 C 
BRANCH  22  23
ATOM     23  C   UNL     1      -4.815   0.346  -0.756  0.00  0.00    -0.030 A 
ATOM     24  C   UNL     1      -5.275   0.454   0.543  0.00  0.00    +0.005 A 
ATOM     25  C   UNL     1      -6.153   1.465   0.885  0.00  0.00    +0.000 A 
ATOM     26  C   UNL     1      -6.571   2.370  -0.073  0.00  0.00    +0.000 A 
ATOM     27  C   UNL     1      -6.111   2.263  -1.372  0.00  0.00    +0.000 A 
ATOM     28  C   UNL     1      -5.229   1.254  -1.713  0.00  0.00    +0.005 A 
ENDBRANCH  22  23
ENDBRANCH  18  22
ENDBRANCH  15  18
ENDBRANCH   1  15
BRANCH   3  29
ATOM     29  C   UNL     1       2.314  -1.842  -2.902  0.00  0.00    -0.039 C 
BRANCH  29  30
ATOM     30  C   UNL     1       3.244  -2.196  -4.034  0.00  0.00    -0.022 A 
ATOM     31  C   UNL     1       3.597  -3.513  -4.253  0.00  0.00    +0.005 A 
ATOM     32  C   UNL     1       4.451  -3.838  -5.290  0.00  0.00    +0.000 A 
ATOM     33  C   UNL     1       4.953  -2.846  -6.112  0.00  0.00    +0.004 A 
ATOM     34  C   UNL     1       4.603  -1.527  -5.898  0.00  0.00    +0.046 A 
ATOM     35  C   UNL     1       3.742  -1.199  -4.860  0.00  0.00    +0.121 A 
BRANCH  35  36
ATOM     36  O   UNL     1       3.391   0.097  -4.651  0.00  0.00    -0.495 OA
ATOM     37  C   UNL     1       3.942   1.070  -5.541  0.00  0.00    +0.277 C 
ENDBRANCH  35  36
ENDBRANCH  29  30
ENDBRANCH   3  29
TORSDOF 10
