REMARK  Name = ZINC10459663
REMARK  12 active torsions:
REMARK  status: ('A' for Active; 'I' for Inactive)
REMARK    1  A    between atoms: C_4  and  O_7
REMARK    2  A    between atoms: O_7  and  C_8
REMARK    3  A    between atoms: C_8  and  C_9
REMARK    4  A    between atoms: C_9  and  O_10
REMARK    5  A    between atoms: O_10  and  C_11
REMARK    6  A    between atoms: C_11  and  C_13
REMARK    7  A    between atoms: C_13  and  C_14
REMARK    8  A    between atoms: N_21  and  C_22
REMARK    9  A    between atoms: C_22  and  N_24
REMARK   10  A    between atoms: C_25  and  C_27
REMARK   11  A    between atoms: C_27  and  C_28
REMARK   12  A    between atoms: C_28  and  C_29
REMARK                            x       y       z     vdW  Elec       q    Type
REMARK                         _______ _______ _______ _____ _____    ______ ____
ROOT
ATOM      1  C   UNL     1      -1.905   7.597   3.437  0.00  0.00    +0.171 C 
ATOM      2  C   UNL     1      -1.410   8.177   4.734  0.00  0.00    +0.234 C 
ATOM      3  O   UNL     1      -1.088   9.346   4.759  0.00  0.00    -0.274 OA
ATOM      4  N   UNL     1      -1.310   7.465   5.857  0.00  0.00    -0.312 N 
ATOM      5  C   UNL     1      -1.573   6.037   5.957  0.00  0.00    +0.123 C 
ATOM      6  C   UNL     1      -2.475   5.568   4.807  0.00  0.00    +0.126 C 
ATOM      7  N   UNL     1      -1.942   6.132   3.555  0.00  0.00    -0.299 N 
ATOM      8  H   UNL     1      -1.043   7.932   6.665  0.00  0.00    +0.149 HD
ENDROOT
BRANCH   7   9
ATOM      9  C   UNL     1      -1.512   5.337   2.555  0.00  0.00    +0.140 C 
ATOM     10  S   UNL     1      -1.698   3.639   2.672  0.00  0.00    -0.018 S 
BRANCH   9  11
ATOM     11  N   UNL     1      -0.935   5.878   1.464  0.00  0.00    -0.268 N 
ATOM     12  C   UNL     1      -0.411   5.080   0.513  0.00  0.00    +0.219 C 
ATOM     13  O   UNL     1      -0.459   3.875   0.639  0.00  0.00    -0.275 OA
ATOM     14  H   UNL     1      -0.897   6.842   1.364  0.00  0.00    +0.156 HD
BRANCH  12  15
ATOM     15  C   UNL     1       0.234   5.685  -0.707  0.00  0.00    +0.101 C 
BRANCH  15  16
ATOM     16  C   UNL     1       0.743   4.569  -1.621  0.00  0.00    +0.046 C 
BRANCH  16  17
ATOM     17  C   UNL     1       1.388   5.175  -2.841  0.00  0.00    -0.029 A 
ATOM     18  C   UNL     1       2.764   5.279  -2.916  0.00  0.00    +0.005 A 
ATOM     19  C   UNL     1       3.356   5.834  -4.035  0.00  0.00    +0.000 A 
ATOM     20  C   UNL     1       2.572   6.285  -5.081  0.00  0.00    +0.001 A 
ATOM     21  C   UNL     1       1.196   6.181  -5.007  0.00  0.00    +0.020 A 
ATOM     22  C   UNL     1       0.603   5.621  -3.890  0.00  0.00    +0.044 A 
ATOM     23 CL   UNL     1      -1.125   5.483  -3.800  0.00  0.00    -0.083 Cl
ENDBRANCH  16  17
ENDBRANCH  15  16
ENDBRANCH  12  15
ENDBRANCH   9  11
ENDBRANCH   7   9
BRANCH   1  24
ATOM     24  C   UNL     1      -3.311   8.124   3.143  0.00  0.00    +0.152 C 
BRANCH  24  25
ATOM     25  C   UNL     1      -3.749   7.652   1.780  0.00  0.00    +0.309 C 
ATOM     26  O   UNL     1      -2.969   7.073   1.062  0.00  0.00    -0.251 OA
BRANCH  25  27
ATOM     27  O   UNL     1      -5.006   7.875   1.365  0.00  0.00    -0.461 OA
BRANCH  27  28
ATOM     28  C   UNL     1      -5.358   7.393   0.042  0.00  0.00    +0.273 C 
BRANCH  28  29
ATOM     29  C   UNL     1      -6.819   7.737  -0.254  0.00  0.00    +0.270 C 
BRANCH  29  30
ATOM     30  O   UNL     1      -6.971   9.156  -0.316  0.00  0.00    -0.489 OA
BRANCH  30  34
ATOM     31  C   UNL     1     -10.756  10.602  -1.095  0.00  0.00    +0.000 A 
ATOM     32  C   UNL     1      -9.706  11.482  -0.907  0.00  0.00    +0.004 A 
ATOM     33  C   UNL     1      -8.438  11.000  -0.646  0.00  0.00    +0.045 A 
ATOM     34  C   UNL     1      -8.218   9.633  -0.573  0.00  0.00    +0.121 A 
ATOM     35  C   UNL     1      -9.272   8.751  -0.767  0.00  0.00    +0.045 A 
ATOM     36  C   UNL     1     -10.540   9.238  -1.021  0.00  0.00    +0.004 A 
ENDBRANCH  30  34
ENDBRANCH  29  30
ENDBRANCH  28  29
ENDBRANCH  27  28
ENDBRANCH  25  27
ENDBRANCH  24  25
ENDBRANCH   1  24
TORSDOF 12
