REMARK  Name = ZINC59006498
REMARK  6 active torsions:
REMARK  status: ('A' for Active; 'I' for Inactive)
REMARK    1  A    between atoms: C_7  and  C_11
REMARK    2  A    between atoms: N_12  and  N_13
REMARK    3  A    between atoms: C_16  and  S_19
REMARK    4  A    between atoms: S_19  and  C_20
REMARK    5  A    between atoms: C_20  and  C_21
REMARK    6  A    between atoms: N_23  and  C_24
REMARK                            x       y       z     vdW  Elec       q    Type
REMARK                         _______ _______ _______ _____ _____    ______ ____
ROOT
ATOM      1  N   UNL     1      -1.469  -4.168  -0.029  0.00  0.00    -0.205 N 
ATOM      2  C   UNL     1      -2.836  -3.967  -0.011  0.00  0.00    +0.232 A 
ATOM      3  N   UNL     1      -3.447  -2.801   0.005  0.00  0.00    -0.186 NA
ATOM      4  C   UNL     1      -4.771  -2.987   0.020  0.00  0.00    +0.211 A 
ATOM      5  N   UNL     1      -5.021  -4.274   0.013  0.00  0.00    -0.144 NA
ATOM      6  N   UNL     1      -3.780  -4.932  -0.013  0.00  0.00    -0.245 N 
ATOM      7  H   UNL     1      -1.111  -5.070  -0.045  0.00  0.00    +0.177 HD
ATOM      8  H   UNL     1      -3.632  -5.891  -0.026  0.00  0.00    +0.192 HD
ENDROOT
BRANCH   1  10
ATOM      9  C   UNL     1       0.686  -3.259  -0.042  0.00  0.00    +0.140 C 
ATOM     10  N   UNL     1      -0.599  -3.070  -0.025  0.00  0.00    -0.187 NA
BRANCH   9  17
ATOM     11  C   UNL     1      -0.016   1.362   0.023  0.00  0.00    +0.001 A 
ATOM     12  C   UNL     1       1.171   2.081   0.020  0.00  0.00    +0.002 A 
ATOM     13  C   UNL     1       2.385   1.432  -0.002  0.00  0.00    +0.026 A 
ATOM     14  C   UNL     1       2.426   0.041  -0.020  0.00  0.00    +0.047 A 
ATOM     15  C   UNL     1       1.221  -0.681  -0.016  0.00  0.00    +0.008 A 
ATOM     16  C   UNL     1       0.002  -0.005   0.006  0.00  0.00    +0.010 A 
ATOM     17  C   UNL     1       1.600  -2.105  -0.038  0.00  0.00    +0.020 A 
ATOM     18  C   UNL     1       2.959  -2.145  -0.054  0.00  0.00    +0.093 A 
ATOM     19  N   UNL     1       3.456  -0.874  -0.043  0.00  0.00    -0.360 N 
ATOM     20  H   UNL     1       4.399  -0.647  -0.051  0.00  0.00    +0.165 HD
ENDBRANCH   9  17
ENDBRANCH   1  10
BRANCH   4  21
ATOM     21  S   UNL     1      -5.984  -1.709   0.045  0.00  0.00    -0.075 S 
BRANCH  21  22
ATOM     22  C   UNL     1      -7.562  -2.602   0.057  0.00  0.00    +0.173 C 
BRANCH  22  23
ATOM     23  C   UNL     1      -8.699  -1.613   0.079  0.00  0.00    +0.227 C 
ATOM     24  O   UNL     1      -8.467  -0.423   0.086  0.00  0.00    -0.275 OA
ATOM     25  N   UNL     1      -9.974  -2.052   0.091  0.00  0.00    -0.285 N 
ATOM     26  H   UNL     1     -10.161  -3.001   0.018  0.00  0.00    +0.155 HD
BRANCH  25  27
ATOM     27  C   UNL     1     -11.027  -1.137   0.209  0.00  0.00    +0.036 A 
ATOM     28  C   UNL     1     -12.168  -1.480   0.923  0.00  0.00    +0.026 A 
ATOM     29  C   UNL     1     -13.207  -0.577   1.039  0.00  0.00    +0.043 A 
ATOM     30  C   UNL     1     -13.113   0.669   0.444  0.00  0.00    +0.159 A 
ATOM     31  C   UNL     1     -11.975   1.014  -0.270  0.00  0.00    +0.160 A 
ATOM     32  C   UNL     1     -10.931   0.115  -0.383  0.00  0.00    +0.064 A 
ATOM     33  F   UNL     1     -11.885   2.231  -0.850  0.00  0.00    -0.202 F 
ATOM     34  F   UNL     1     -14.131   1.550   0.558  0.00  0.00    -0.202 F 
ENDBRANCH  25  27
ENDBRANCH  22  23
ENDBRANCH  21  22
ENDBRANCH   4  21
TORSDOF 6
