REMARK  Name = ZINC39935058
REMARK  5 active torsions:
REMARK  status: ('A' for Active; 'I' for Inactive)
REMARK    1  A    between atoms: C_4  and  N_7
REMARK    2  A    between atoms: C_8  and  C_28
REMARK    3  A    between atoms: C_12  and  S_14
REMARK    4  A    between atoms: S_14  and  C_15
REMARK    5  A    between atoms: C_15  and  C_16
REMARK                            x       y       z     vdW  Elec       q    Type
REMARK                         _______ _______ _______ _____ _____    ______ ____
ROOT
ATOM      1  N   UNL     1       3.648  -0.739   0.014  0.00  0.00    -0.281 N 
ATOM      2  C   UNL     1       3.959  -2.183  -0.026  0.00  0.00    +0.225 C 
ATOM      3  N   UNL     1       5.300  -2.251  -0.664  0.00  0.00    -0.228 NA
ATOM      4  N   UNL     1       5.989  -1.074  -0.111  0.00  0.00    -0.225 NA
ATOM      5  C   UNL     1       4.939  -0.032  -0.047  0.00  0.00    +0.218 C 
ATOM      6  H   UNL     1       5.226  -2.188  -1.668  0.00  0.00    +0.143 HD
ATOM      7  H   UNL     1       6.364  -1.272   0.805  0.00  0.00    +0.143 HD
ENDROOT
BRANCH   2   8
ATOM      8  C   UNL     1       4.007  -2.750   1.370  0.00  0.00    +0.142 A 
ATOM      9  C   UNL     1       4.690  -3.845   1.730  0.00  0.00    +0.056 A 
ATOM     10  C   UNL     1       4.452  -4.021   3.167  0.00  0.00    +0.021 A 
ATOM     11  C   UNL     1       4.869  -4.952   4.118  0.00  0.00    +0.011 A 
ATOM     12  C   UNL     1       4.454  -4.829   5.415  0.00  0.00    +0.001 A 
ATOM     13  C   UNL     1       3.621  -3.785   5.790  0.00  0.00    +0.004 A 
ATOM     14  C   UNL     1       3.197  -2.856   4.864  0.00  0.00    +0.047 A 
ATOM     15  C   UNL     1       3.608  -2.962   3.541  0.00  0.00    +0.135 A 
ATOM     16  O   UNL     1       3.374  -2.227   2.435  0.00  0.00    -0.456 OA
ENDBRANCH   2   8
BRANCH   1  20
ATOM     17  C   UNL     1      -0.133   0.991   0.234  0.00  0.00    +0.000 A 
ATOM     18  C   UNL     1       0.991   1.794   0.184  0.00  0.00    +0.002 A 
ATOM     19  C   UNL     1       2.247   1.224   0.111  0.00  0.00    +0.023 A 
ATOM     20  C   UNL     1       2.380  -0.159   0.088  0.00  0.00    +0.033 A 
ATOM     21  C   UNL     1       1.248  -0.963   0.138  0.00  0.00    +0.023 A 
ATOM     22  C   UNL     1      -0.004  -0.386   0.211  0.00  0.00    +0.002 A 
ENDBRANCH   1  20
BRANCH   5  23
ATOM     23  S   UNL     1       5.164   0.981   1.440  0.00  0.00    -0.114 S 
BRANCH  23  24
ATOM     24  C   UNL     1       6.520   2.104   1.006  0.00  0.00    +0.146 C 
BRANCH  24  25
ATOM     25  C   UNL     1       6.894   2.930   2.210  0.00  0.00    +0.120 A 
ATOM     26  N   UNL     1       7.894   3.841   2.081  0.00  0.00    -0.310 N 
ATOM     27  H   UNL     1       8.345   3.943   1.228  0.00  0.00    +0.170 HD
ATOM     28  C   UNL     1       8.267   4.607   3.132  0.00  0.00    +0.259 A 
ATOM     29  O   UNL     1       9.161   5.428   3.031  0.00  0.00    -0.267 OA
ATOM     30  C   UNL     1       7.551   4.411   4.402  0.00  0.00    +0.065 A 
ATOM     31  C   UNL     1       7.858   5.148   5.543  0.00  0.00    +0.015 A 
ATOM     32  C   UNL     1       7.154   4.923   6.706  0.00  0.00    +0.001 A 
ATOM     33  C   UNL     1       6.146   3.970   6.748  0.00  0.00    +0.002 A 
ATOM     34  C   UNL     1       5.827   3.230   5.631  0.00  0.00    +0.028 A 
ATOM     35  C   UNL     1       6.525   3.440   4.441  0.00  0.00    +0.078 A 
ATOM     36  N   UNL     1       6.241   2.738   3.315  0.00  0.00    -0.233 NA
ENDBRANCH  24  25
ENDBRANCH  23  24
ENDBRANCH   5  23
TORSDOF 5
