REMARK  Name = ZINC59378859
REMARK  6 active torsions:
REMARK  status: ('A' for Active; 'I' for Inactive)
REMARK    1  A    between atoms: C_1  and  C_2
REMARK    2  A    between atoms: C_3  and  N_9
REMARK    3  A    between atoms: N_9  and  C_10
REMARK    4  A    between atoms: C_10  and  N_11
REMARK    5  A    between atoms: C_15  and  C_16
REMARK    6  A    between atoms: C_21  and  O_22
REMARK                            x       y       z     vdW  Elec       q    Type
REMARK                         _______ _______ _______ _____ _____    ______ ____
ROOT
ATOM      1  N   UNL     1      -1.378  -1.421  -4.854  0.00  0.00    -0.212 N 
ATOM      2  C   UNL     1      -2.207  -2.154  -4.131  0.00  0.00    +0.262 C 
ATOM      3  O   UNL     1      -1.802  -2.955  -3.309  0.00  0.00    -0.269 OA
ATOM      4  C   UNL     1      -3.650  -1.952  -4.371  0.00  0.00    +0.080 C 
ATOM      5  C   UNL     1      -4.717  -2.554  -3.786  0.00  0.00    +0.032 C 
ATOM      6  S   UNL     1      -3.605  -0.696  -5.642  0.00  0.00    -0.026 S 
ATOM      7  C   UNL     1      -1.831  -0.530  -5.759  0.00  0.00    +0.287 C 
ATOM      8  O   UNL     1      -1.187   0.206  -6.482  0.00  0.00    -0.262 OA
ENDROOT
BRANCH   5   9
ATOM      9  C   UNL     1      -6.073  -2.287  -4.282  0.00  0.00    +0.018 A 
ATOM     10  C   UNL     1      -6.261  -1.711  -5.544  0.00  0.00    +0.011 A 
ATOM     11  C   UNL     1      -7.536  -1.464  -6.002  0.00  0.00    +0.001 A 
ATOM     12  C   UNL     1      -8.634  -1.782  -5.220  0.00  0.00    +0.004 A 
ATOM     13  C   UNL     1      -8.464  -2.350  -3.972  0.00  0.00    +0.046 A 
ATOM     14  C   UNL     1      -7.190  -2.613  -3.495  0.00  0.00    +0.124 A 
BRANCH  14  15
ATOM     15  O   UNL     1      -7.022  -3.177  -2.273  0.00  0.00    -0.506 OA
ATOM     16  H   UNL     1      -6.949  -2.538  -1.551  0.00  0.00    +0.292 HD
ENDBRANCH  14  15
ENDBRANCH   5   9
BRANCH   1  17
ATOM     17  C   UNL     1       0.067  -1.575  -4.662  0.00  0.00    +0.222 C 
BRANCH  17  18
ATOM     18  N   UNL     1       0.475  -0.875  -3.442  0.00  0.00    -0.328 N 
ATOM     19  H   UNL     1       0.407  -1.319  -2.582  0.00  0.00    +0.148 HD
BRANCH  18  22
ATOM     20  C   UNL     1       1.015   0.496  -1.008  0.00  0.00    +0.047 C 
ATOM     21  C   UNL     1       1.240   1.138  -2.353  0.00  0.00    -0.011 A 
ATOM     22  C   UNL     1       0.962   0.431  -3.516  0.00  0.00    +0.033 A 
ATOM     23  C   UNL     1       1.171   1.027  -4.753  0.00  0.00    +0.023 A 
ATOM     24  C   UNL     1       1.654   2.320  -4.824  0.00  0.00    +0.003 A 
ATOM     25  C   UNL     1       1.930   3.021  -3.665  0.00  0.00    +0.020 A 
ATOM     26  C   UNL     1       1.717   2.433  -2.430  0.00  0.00    +0.046 A 
ATOM     27 CL   UNL     1       2.057   3.320  -0.977  0.00  0.00    -0.083 Cl
ENDBRANCH  18  22
ENDBRANCH  17  18
ENDBRANCH   1  17
TORSDOF 5
