REMARK  Name = ZINC38639688
REMARK  7 active torsions:
REMARK  status: ('A' for Active; 'I' for Inactive)
REMARK    1  A    between atoms: C_1  and  C_2
REMARK    2  A    between atoms: C_6  and  N_12
REMARK    3  A    between atoms: C_9  and  C_11
REMARK    4  A    between atoms: C_13  and  C_15
REMARK    5  A    between atoms: C_15  and  S_16
REMARK    6  A    between atoms: S_16  and  C_17
REMARK    7  A    between atoms: C_21  and  C_23
REMARK                            x       y       z     vdW  Elec       q    Type
REMARK                         _______ _______ _______ _____ _____    ______ ____
ROOT
ATOM      1  N   UNL     1      -3.401  -2.952  -0.543  0.00  0.00    -0.285 N 
ATOM      2  C   UNL     1      -4.418  -3.827  -0.415  0.00  0.00    +0.225 C 
ATOM      3  O   UNL     1      -5.151  -3.768   0.550  0.00  0.00    -0.275 OA
ATOM      4  H   UNL     1      -2.815  -2.999  -1.315  0.00  0.00    +0.151 HD
ENDROOT
BRANCH   1   9
ATOM      5  C   UNL     1      -0.019   1.526   0.010  0.00  0.00    +0.030 C 
ATOM      6  C   UNL     1       0.002  -0.004   0.002  0.00  0.00    +0.099 C 
ATOM      7  C   UNL     1      -1.409  -0.528   0.019  0.00  0.00    -0.011 C 
ATOM      8  C   UNL     1      -1.717  -1.674   0.651  0.00  0.00    +0.065 C 
ATOM      9  C   UNL     1      -3.181  -1.929   0.482  0.00  0.00    +0.243 C 
ATOM     10  O   UNL     1      -3.752  -0.670   0.063  0.00  0.00    -0.347 OA
ATOM     11  C   UNL     1      -2.663   0.023  -0.586  0.00  0.00    +0.146 C 
ATOM     12  C   UNL     1      -2.687  -0.251  -2.091  0.00  0.00    +0.043 C 
ATOM     13  C   UNL     1      -0.670  -2.429   1.357  0.00  0.00    +0.258 C 
ATOM     14  O   UNL     1      -0.872  -3.538   1.815  0.00  0.00    -0.269 OA
ATOM     15  N   UNL     1       0.533  -1.813   1.465  0.00  0.00    -0.247 N 
ATOM     16  N   UNL     1       0.706  -0.493   1.194  0.00  0.00    -0.233 NA
ATOM     17  H   UNL     1       1.300  -2.335   1.746  0.00  0.00    +0.169 HD
ATOM     18  H   UNL     1       1.686  -0.255   1.159  0.00  0.00    +0.145 HD
ENDBRANCH   1   9
BRANCH   2  19
ATOM     19  C   UNL     1      -4.645  -4.879  -1.470  0.00  0.00    +0.170 C 
BRANCH  19  20
ATOM     20  S   UNL     1      -6.077  -5.894  -1.013  0.00  0.00    -0.087 S 
BRANCH  20  21
ATOM     21  C   UNL     1      -6.213  -7.095  -2.366  0.00  0.00    +0.339 C 
ATOM     22  N   UNL     1      -4.967  -7.871  -2.493  0.00  0.00    -0.219 N 
ATOM     23  N   UNL     1      -4.483  -7.592  -3.780  0.00  0.00    -0.144 NA
ATOM     24  C   UNL     1      -5.277  -6.773  -4.390  0.00  0.00    +0.248 C 
ATOM     25  O   UNL     1      -6.342  -6.420  -3.625  0.00  0.00    -0.442 OA
ATOM     26  H   UNL     1      -4.566  -8.452  -1.827  0.00  0.00    +0.173 HD
BRANCH  24  27
ATOM     27  C   UNL     1      -5.053  -6.281  -5.758  0.00  0.00    +0.094 A 
ATOM     28  C   UNL     1      -4.031  -6.578  -6.603  0.00  0.00    +0.068 A 
ATOM     29  C   UNL     1      -4.011  -5.972  -7.922  0.00  0.00    +0.008 A 
ATOM     30  C   UNL     1      -3.054  -6.135  -8.955  0.00  0.00    +0.010 A 
ATOM     31  C   UNL     1      -3.193  -5.482 -10.139  0.00  0.00    +0.001 A 
ATOM     32  C   UNL     1      -4.269  -4.638 -10.381  0.00  0.00    +0.001 A 
ATOM     33  C   UNL     1      -5.223  -4.452  -9.400  0.00  0.00    +0.016 A 
ATOM     34  C   UNL     1      -5.095  -5.107  -8.194  0.00  0.00    +0.021 A 
ATOM     35  S   UNL     1      -6.062  -5.159  -6.707  0.00  0.00    -0.082 S 
ATOM     36 CL   UNL     1      -2.769  -7.665  -6.112  0.00  0.00    -0.082 Cl
ENDBRANCH  24  27
ENDBRANCH  20  21
ENDBRANCH  19  20
ENDBRANCH   2  19
TORSDOF 5
