REMARK  Name = ZINC39666644
REMARK  9 active torsions:
REMARK  status: ('A' for Active; 'I' for Inactive)
REMARK    1  A    between atoms: C_1  and  C_2
REMARK    2  A    between atoms: C_5  and  C_8
REMARK    3  A    between atoms: C_8  and  C_9
REMARK    4  A    between atoms: C_13  and  C_22
REMARK    5  A    between atoms: N_24  and  C_25
REMARK    6  A    between atoms: C_25  and  C_26
REMARK    7  A    between atoms: C_26  and  C_28
REMARK    8  A    between atoms: C_26  and  O_29
REMARK    9  A    between atoms: O_29  and  C_30
REMARK                            x       y       z     vdW  Elec       q    Type
REMARK                         _______ _______ _______ _____ _____    ______ ____
ROOT
ATOM      1  C   UNL     1      -0.578  -4.504  -0.032  0.00  0.00    +0.220 C 
ATOM      2  O   UNL     1       0.180  -3.583   0.188  0.00  0.00    -0.275 OA
ATOM      3  N   UNL     1      -0.150  -5.775   0.103  0.00  0.00    -0.300 N 
ATOM      4  C   UNL     1      -0.919  -7.021  -0.126  0.00  0.00    +0.121 C 
ATOM      5  C   UNL     1       0.083  -7.979  -0.809  0.00  0.00    +0.100 C 
ATOM      6  C   UNL     1       1.468  -7.464  -0.385  0.00  0.00    -0.004 C 
ATOM      7  C   UNL     1       1.198  -6.243   0.506  0.00  0.00    +0.115 C 
ATOM      8  C   UNL     1       2.214  -8.538   0.401  0.00  0.00    -0.010 C 
ATOM      9  C   UNL     1       3.611  -8.024   0.761  0.00  0.00    -0.082 C 
ATOM     10  N   UNL     1       4.343  -7.692  -0.467  0.00  0.00    +0.379 N 
ATOM     11  C   UNL     1       3.669  -6.594  -1.170  0.00  0.00    -0.082 C 
ATOM     12  C   UNL     1       2.275  -7.047  -1.612  0.00  0.00    -0.010 C 
ATOM     13  H   UNL     1       5.283  -7.412  -0.231  0.00  0.00    -0.086 HD
ATOM     14  H   UNL     1       4.377  -8.503  -1.067  0.00  0.00    -0.086 HD
ENDROOT
BRANCH   5  15
ATOM     15  C   UNL     1      -0.068  -7.915  -2.307  0.00  0.00    +0.218 C 
ATOM     16  O   UNL     1      -0.448  -6.891  -2.835  0.00  0.00    -0.275 OA
ATOM     17  N   UNL     1       0.219  -8.995  -3.060  0.00  0.00    -0.312 N 
ATOM     18  H   UNL     1       0.523  -9.813  -2.638  0.00  0.00    +0.149 HD
BRANCH  17  19
ATOM     19  C   UNL     1       0.072  -8.932  -4.516  0.00  0.00    +0.148 C 
BRANCH  19  20
ATOM     20  C   UNL     1       0.460 -10.281  -5.126  0.00  0.00    +0.187 C 
ATOM     21  C   UNL     1       0.427 -10.179  -6.652  0.00  0.00    +0.053 C 
BRANCH  20  22
ATOM     22  O   UNL     1      -0.465 -11.282  -4.695  0.00  0.00    -0.486 OA
BRANCH  22  23
ATOM     23  C   UNL     1      -0.022 -12.567  -4.682  0.00  0.00    +0.139 A 
ATOM     24  C   UNL     1       1.237 -12.873  -5.178  0.00  0.00    +0.047 A 
ATOM     25  C   UNL     1       1.685 -14.180  -5.163  0.00  0.00    +0.004 A 
ATOM     26  C   UNL     1       0.880 -15.183  -4.655  0.00  0.00    +0.002 A 
ATOM     27  C   UNL     1      -0.375 -14.881  -4.161  0.00  0.00    +0.023 A 
ATOM     28  C   UNL     1      -0.826 -13.574  -4.168  0.00  0.00    +0.083 A 
ATOM     29 CL   UNL     1      -2.400 -13.195  -3.540  0.00  0.00    -0.080 Cl
ENDBRANCH  22  23
ENDBRANCH  20  22
ENDBRANCH  19  20
ENDBRANCH  17  19
ENDBRANCH   5  15
BRANCH   1  30
ATOM     30  C   UNL     1      -1.997  -4.227  -0.455  0.00  0.00    +0.131 C 
BRANCH  30  35
ATOM     31  C   UNL     1      -2.848   1.481  -0.739  0.00  0.00    +0.044 C 
ATOM     32  C   UNL     1      -2.626  -0.007  -0.665  0.00  0.00    -0.050 A 
ATOM     33  C   UNL     1      -2.183  -0.697  -1.778  0.00  0.00    +0.003 A 
ATOM     34  C   UNL     1      -1.979  -2.062  -1.710  0.00  0.00    +0.004 A 
ATOM     35  C   UNL     1      -2.218  -2.738  -0.528  0.00  0.00    -0.039 A 
ATOM     36  C   UNL     1      -2.661  -2.049   0.585  0.00  0.00    +0.004 A 
ATOM     37  C   UNL     1      -2.860  -0.683   0.518  0.00  0.00    +0.003 A 
ENDBRANCH  30  35
ENDBRANCH   1  30
TORSDOF 7
