REMARK  Name = ZINC39834924
REMARK  8 active torsions:
REMARK  status: ('A' for Active; 'I' for Inactive)
REMARK    1  A    between atoms: C_1  and  C_2
REMARK    2  A    between atoms: C_2  and  O_3
REMARK    3  A    between atoms: O_3  and  C_4
REMARK    4  A    between atoms: C_7  and  N_10
REMARK    5  A    between atoms: N_12  and  C_30
REMARK    6  A    between atoms: C_13  and  C_16
REMARK    7  A    between atoms: C_19  and  S_22
REMARK    8  A    between atoms: S_22  and  N_25
REMARK                            x       y       z     vdW  Elec       q    Type
REMARK                         _______ _______ _______ _____ _____    ______ ____
ROOT
ATOM      1  N   UNL     1      -2.042  -5.986  -0.360  0.00  0.00    -0.295 N 
ATOM      2  C   UNL     1      -3.285  -6.536  -0.094  0.00  0.00    +0.144 A 
ATOM      3  N   UNL     1      -3.651  -7.804  -0.076  0.00  0.00    -0.319 N 
ATOM      4  C   UNL     1      -4.904  -8.155   0.203  0.00  0.00    +0.058 A 
ATOM      5  C   UNL     1      -5.825  -7.184   0.477  0.00  0.00    +0.074 A 
ATOM      6  S   UNL     1      -4.817  -5.716   0.326  0.00  0.00    -0.062 S 
ATOM      7  H   UNL     1      -1.312  -6.555  -0.650  0.00  0.00    +0.154 HD
ENDROOT
BRANCH   1  11
ATOM      8  C   UNL     1      -1.436  -1.885   0.084  0.00  0.00    +0.121 A 
ATOM      9  C   UNL     1      -2.325  -2.549   0.917  0.00  0.00    +0.047 A 
ATOM     10  C   UNL     1      -2.526  -3.907   0.770  0.00  0.00    +0.027 A 
ATOM     11  C   UNL     1      -1.838  -4.609  -0.211  0.00  0.00    +0.033 A 
ATOM     12  C   UNL     1      -0.948  -3.943  -1.044  0.00  0.00    +0.027 A 
ATOM     13  C   UNL     1      -0.752  -2.584  -0.900  0.00  0.00    +0.047 A 
BRANCH   8  14
ATOM     14  O   UNL     1      -1.238  -0.548   0.230  0.00  0.00    -0.492 OA
BRANCH  14  16
ATOM     15  C   UNL     1      -1.623   1.598   1.273  0.00  0.00    +0.048 C 
ATOM     16  C   UNL     1      -1.975   0.109   1.263  0.00  0.00    +0.225 C 
ENDBRANCH  14  16
ENDBRANCH   8  14
ENDBRANCH   1  11
BRANCH   4  17
ATOM     17  C   UNL     1      -5.296  -9.586   0.217  0.00  0.00    -0.001 A 
ATOM     18  C   UNL     1      -6.522  -9.980  -0.317  0.00  0.00    +0.012 A 
ATOM     19  C   UNL     1      -6.882 -11.312  -0.301  0.00  0.00    +0.029 A 
ATOM     20  C   UNL     1      -6.028 -12.255   0.243  0.00  0.00    +0.106 A 
ATOM     21  C   UNL     1      -4.811 -11.870   0.775  0.00  0.00    +0.029 A 
ATOM     22  C   UNL     1      -4.438 -10.541   0.759  0.00  0.00    +0.012 A 
BRANCH  20  23
ATOM     23  S   UNL     1      -6.494 -13.955   0.259  0.00  0.00    +0.061 S 
ATOM     24  O   UNL     1      -5.764 -14.566   1.314  0.00  0.00    -0.153 OA
ATOM     25  O   UNL     1      -7.914 -13.987   0.197  0.00  0.00    -0.153 OA
BRANCH  23  26
ATOM     26  N   UNL     1      -5.943 -14.627  -1.150  0.00  0.00    -0.177 NA
ATOM     27  C   UNL     1      -6.687 -14.692  -2.417  0.00  0.00    +0.109 C 
ATOM     28  C   UNL     1      -5.791 -15.425  -3.437  0.00  0.00    +0.018 C 
ATOM     29  C   UNL     1      -4.822 -16.232  -2.533  0.00  0.00    +0.018 C 
ATOM     30  C   UNL     1      -4.623 -15.254  -1.344  0.00  0.00    +0.109 C 
ENDBRANCH  23  26
ENDBRANCH  20  23
ENDBRANCH   4  17
BRANCH   3  31
ATOM     31  C   UNL     1      -2.661  -8.843  -0.370  0.00  0.00    +0.090 C 
ATOM     32  C   UNL     1      -1.522  -8.765   0.649  0.00  0.00    +0.025 C 
ATOM     33  C   UNL     1      -0.488  -9.850   0.342  0.00  0.00    +0.002 C 
ATOM     34  C   UNL     1       0.072  -9.637  -1.066  0.00  0.00    +0.000 C 
ATOM     35  C   UNL     1      -1.067  -9.716  -2.085  0.00  0.00    +0.002 C 
ATOM     36  C   UNL     1      -2.101  -8.630  -1.778  0.00  0.00    +0.025 C 
ENDBRANCH   3  31
TORSDOF 7
