REMARK  Name = ZINC20917225
REMARK  9 active torsions:
REMARK  status: ('A' for Active; 'I' for Inactive)
REMARK    1  A    between atoms: C_1  and  C_2
REMARK    2  A    between atoms: C_5  and  C_8
REMARK    3  A    between atoms: N_9  and  N_10
REMARK    4  A    between atoms: C_14  and  S_17
REMARK    5  A    between atoms: N_15  and  N_16
REMARK    6  A    between atoms: S_17  and  C_18
REMARK    7  A    between atoms: C_18  and  C_19
REMARK    8  A    between atoms: N_21  and  C_22
REMARK    9  A    between atoms: C_27  and  C_28
REMARK                            x       y       z     vdW  Elec       q    Type
REMARK                         _______ _______ _______ _____ _____    ______ ____
ROOT
ATOM      1  N   UNL     1      -9.995   2.567  -0.700  0.00  0.00    -0.204 N 
ATOM      2  C   UNL     1      -8.613   2.592  -0.586  0.00  0.00    +0.254 A 
ATOM      3  N   UNL     1      -7.865   3.667  -0.517  0.00  0.00    -0.109 NA
ATOM      4  N   UNL     1      -6.529   3.258  -0.405  0.00  0.00    -0.119 NA
ATOM      5  C   UNL     1      -6.505   1.946  -0.417  0.00  0.00    +0.210 A 
ATOM      6  N   UNL     1      -7.791   1.501  -0.526  0.00  0.00    -0.211 N 
ATOM      7  H   UNL     1     -10.525   1.605  -0.750  0.00  0.00    +0.177 HD
ENDROOT
BRANCH   6   8
ATOM      8  N   UNL     1      -8.188   0.195  -0.568  0.00  0.00    -0.294 N 
ATOM      9  H   UNL     1      -7.439  -0.610  -0.512  0.00  0.00    +0.163 HD
ATOM     10  H   UNL     1      -9.256  -0.054  -0.658  0.00  0.00    +0.163 HD
ENDBRANCH   6   8
BRANCH   1  12
ATOM     11  C   UNL     1     -12.010   3.744  -0.857  0.00  0.00    +0.138 C 
ATOM     12  N   UNL     1     -10.716   3.768  -0.751  0.00  0.00    -0.188 NA
BRANCH  11  17
ATOM     13  C   UNL     1     -14.968   8.672  -1.066  0.00  0.00    +0.044 C 
ATOM     14  C   UNL     1     -14.193   7.380  -1.012  0.00  0.00    -0.050 A 
ATOM     15  C   UNL     1     -14.863   6.172  -1.075  0.00  0.00    +0.004 A 
ATOM     16  C   UNL     1     -14.161   4.986  -1.026  0.00  0.00    +0.010 A 
ATOM     17  C   UNL     1     -12.768   5.007  -0.911  0.00  0.00    -0.005 A 
ATOM     18  C   UNL     1     -12.098   6.232  -0.842  0.00  0.00    +0.010 A 
ATOM     19  C   UNL     1     -12.814   7.409  -0.898  0.00  0.00    +0.004 A 
ENDBRANCH  11  17
ENDBRANCH   1  12
BRANCH   5  20
ATOM     20  S   UNL     1      -5.065   0.936  -0.304  0.00  0.00    -0.075 S 
BRANCH  20  21
ATOM     21  C   UNL     1      -3.702   2.127  -0.184  0.00  0.00    +0.173 C 
BRANCH  21  22
ATOM     22  C   UNL     1      -2.394   1.385  -0.081  0.00  0.00    +0.227 C 
ATOM     23  O   UNL     1      -2.383   0.172  -0.088  0.00  0.00    -0.275 OA
ATOM     24  N   UNL     1      -1.238   2.069   0.019  0.00  0.00    -0.285 N 
ATOM     25  H   UNL     1      -1.252   3.166   0.100  0.00  0.00    +0.155 HD
BRANCH  24  26
ATOM     26  C   UNL     1      -0.017   1.384   0.021  0.00  0.00    +0.036 A 
ATOM     27  C   UNL     1       0.078   0.134   0.619  0.00  0.00    +0.024 A 
ATOM     28  C   UNL     1       1.282  -0.542   0.614  0.00  0.00    +0.017 A 
ATOM     29  C   UNL     1       2.393   0.024   0.013  0.00  0.00    +0.018 A 
ATOM     30  C   UNL     1       2.301   1.268  -0.583  0.00  0.00    +0.020 A 
ATOM     31  C   UNL     1       1.099   1.950  -0.581  0.00  0.00    -0.028 A 
ATOM     32  C   UNL     1       0.999   3.305  -1.231  0.00  0.00    +0.046 C 
ATOM     33 BR   UNL     1       4.040  -0.905   0.009  0.00  0.00    -0.050 Br
ENDBRANCH  24  26
ENDBRANCH  21  22
ENDBRANCH  20  21
ENDBRANCH   5  20
TORSDOF 7
