REMARK  Name = ZINC23359899
REMARK  6 active torsions:
REMARK  status: ('A' for Active; 'I' for Inactive)
REMARK    1  A    between atoms: C_4  and  C_7
REMARK    2  A    between atoms: C_7  and  C_9
REMARK    3  A    between atoms: C_7  and  N_23
REMARK    4  A    between atoms: C_17  and  C_19
REMARK    5  A    between atoms: C_24  and  C_26
REMARK    6  A    between atoms: C_26  and  N_27
REMARK                            x       y       z     vdW  Elec       q    Type
REMARK                         _______ _______ _______ _____ _____    ______ ____
ROOT
ATOM      1  C   UNL     1      -1.296  -0.770   0.010  0.00  0.00    +0.134 C 
ENDROOT
BRANCH   1   2
ATOM      2  C   UNL     1       0.002  -0.004   0.002  0.00  0.00    -0.021 A 
ATOM      3  C   UNL     1      -0.017   1.383   0.010  0.00  0.00    +0.008 A 
ATOM      4  C   UNL     1       1.149   2.096   0.002  0.00  0.00    +0.030 A 
ATOM      5  C   UNL     1       2.375   1.426  -0.013  0.00  0.00    +0.089 A 
ATOM      6  C   UNL     1       2.394   0.021  -0.021  0.00  0.00    +0.067 A 
ATOM      7  C   UNL     1       1.200  -0.686  -0.013  0.00  0.00    +0.033 A 
ATOM      8  N   UNL     1       3.726  -0.341  -0.036  0.00  0.00    -0.335 N 
ATOM      9  H   UNL     1       4.007  -1.405  -0.044  0.00  0.00    +0.167 HD
ATOM     10  C   UNL     1       4.458   0.806  -0.037  0.00  0.00    +0.213 A 
ATOM     11  N   UNL     1       3.668   1.840  -0.023  0.00  0.00    -0.224 NA
BRANCH  10  12
ATOM     12  C   UNL     1       5.963   0.870  -0.052  0.00  0.00    +0.450 C 
ATOM     13  F   UNL     1       6.379   2.160   0.292  0.00  0.00    -0.163 F 
ATOM     14  F   UNL     1       6.478  -0.048   0.870  0.00  0.00    -0.163 F 
ATOM     15  F   UNL     1       6.430   0.555  -1.333  0.00  0.00    -0.163 F 
ENDBRANCH  10  12
ENDBRANCH   1   2
BRANCH   1  19
ATOM     16  C   UNL     1      -2.840  -0.913   3.990  0.00  0.00    +0.000 A 
ATOM     17  C   UNL     1      -2.162  -2.001   3.472  0.00  0.00    +0.000 A 
ATOM     18  C   UNL     1      -1.662  -1.954   2.184  0.00  0.00    +0.006 A 
ATOM     19  C   UNL     1      -1.841  -0.821   1.414  0.00  0.00    -0.023 A 
ATOM     20  C   UNL     1      -2.515   0.269   1.933  0.00  0.00    +0.006 A 
ATOM     21  C   UNL     1      -3.019   0.221   3.220  0.00  0.00    +0.000 A 
ENDBRANCH   1  19
BRANCH   1  22
ATOM     22  N   UNL     1      -2.262  -0.102  -0.866  0.00  0.00    -0.303 N 
ATOM     23  C   UNL     1      -3.268  -0.807  -1.420  0.00  0.00    +0.232 C 
ATOM     24  O   UNL     1      -3.374  -1.994  -1.194  0.00  0.00    -0.274 OA
ATOM     25  H   UNL     1      -2.166   0.974  -1.071  0.00  0.00    +0.150 HD
BRANCH  23  26
ATOM     26  C   UNL     1      -4.263  -0.120  -2.321  0.00  0.00    +0.209 C 
BRANCH  26  27
ATOM     27  N   UNL     1      -5.250  -1.095  -2.792  0.00  0.00    -0.257 N 
ATOM     28  C   UNL     1      -5.034  -1.809  -3.979  0.00  0.00    +0.079 A 
ATOM     29  C   UNL     1      -3.778  -1.855  -4.560  0.00  0.00    +0.027 A 
ATOM     30  C   UNL     1      -3.587  -2.563  -5.732  0.00  0.00    +0.002 A 
ATOM     31  C   UNL     1      -4.647  -3.224  -6.325  0.00  0.00    +0.004 A 
ATOM     32  C   UNL     1      -5.899  -3.191  -5.746  0.00  0.00    +0.047 A 
ATOM     33  C   UNL     1      -6.099  -2.480  -4.575  0.00  0.00    +0.143 A 
ATOM     34  O   UNL     1      -7.330  -2.425  -4.000  0.00  0.00    -0.481 OA
ATOM     35  C   UNL     1      -7.369  -2.350  -2.572  0.00  0.00    +0.325 C 
ATOM     36  C   UNL     1      -6.383  -1.317  -2.091  0.00  0.00    +0.258 C 
ATOM     37  O   UNL     1      -6.607  -0.686  -1.079  0.00  0.00    -0.271 OA
ENDBRANCH  26  27
ENDBRANCH  23  26
ENDBRANCH   1  22
TORSDOF 6
