REMARK  Name = ZINC43251593
REMARK  8 active torsions:
REMARK  status: ('A' for Active; 'I' for Inactive)
REMARK    1  A    between atoms: C_1  and  C_2
REMARK    2  A    between atoms: C_6  and  C_7
REMARK    3  A    between atoms: C_7  and  C_9
REMARK    4  A    between atoms: C_7  and  S_13
REMARK    5  A    between atoms: C_9  and  C_11
REMARK    6  A    between atoms: C_9  and  N_12
REMARK    7  A    between atoms: S_13  and  C_14
REMARK    8  A    between atoms: C_18  and  N_20
REMARK                            x       y       z     vdW  Elec       q    Type
REMARK                         _______ _______ _______ _____ _____    ______ ____
ROOT
ATOM      1  C   UNL     1       0.021  -0.182   2.584  0.00  0.00    +0.076 C 
ENDROOT
BRANCH   1   7
ATOM      2  C   UNL     1       0.052   1.547   0.045  0.00  0.00    +0.044 C 
ATOM      3  C   UNL     1       0.079   0.040   0.009  0.00  0.00    -0.039 A 
ATOM      4  C   UNL     1       0.126  -0.632  -1.198  0.00  0.00    +0.011 A 
ATOM      5  C   UNL     1       0.149  -1.988  -1.194  0.00  0.00    +0.046 A 
ATOM      6  S   UNL     1       0.104  -2.353   0.553  0.00  0.00    -0.100 S 
ATOM      7  C   UNL     1       0.064  -0.675   1.160  0.00  0.00    +0.004 A 
ENDBRANCH   1   7
BRANCH   1   8
ATOM      8  C   UNL     1      -1.383  -0.391   3.155  0.00  0.00    -0.060 C 
ATOM      9  C   UNL     1      -2.379   0.482   2.389  0.00  0.00    -0.013 C 
BRANCH   8  10
ATOM     10  N   UNL     1      -1.394  -0.018   4.575  0.00  0.00    +0.381 N 
ATOM     11  H   UNL     1      -1.134   0.953   4.670  0.00  0.00    -0.090 HD
ATOM     12  H   UNL     1      -2.320  -0.155   4.952  0.00  0.00    -0.090 HD
ATOM     13  H   UNL     1      -0.737  -0.593   5.080  0.00  0.00    -0.090 HD
ENDBRANCH   8  10
ENDBRANCH   1   8
BRANCH   1  14
ATOM     14  S   UNL     1       1.223  -1.107   3.580  0.00  0.00    -0.079 S 
BRANCH  14  15
ATOM     15  C   UNL     1       2.786  -0.577   2.962  0.00  0.00    +0.192 A 
ATOM     16  N   UNL     1       2.825   0.241   1.920  0.00  0.00    -0.207 NA
ATOM     17  C   UNL     1       3.987   0.662   1.427  0.00  0.00    +0.122 A 
ATOM     18  C   UNL     1       5.170   0.231   2.020  0.00  0.00    +0.086 A 
ATOM     19  C   UNL     1       5.090  -0.628   3.112  0.00  0.00    +0.122 A 
ATOM     20  N   UNL     1       3.892  -1.003   3.554  0.00  0.00    -0.207 NA
ATOM     21  N   UNL     1       4.019   1.517   0.337  0.00  0.00    -0.343 N 
ATOM     22  H   UNL     1       3.190   1.813  -0.072  0.00  0.00    +0.144 HD
ATOM     23  H   UNL     1       4.869   1.820  -0.018  0.00  0.00    +0.144 HD
BRANCH  19  24
ATOM     24  N   UNL     1       6.242  -1.083   3.734  0.00  0.00    -0.343 N 
ATOM     25  H   UNL     1       7.112  -0.802   3.409  0.00  0.00    +0.144 HD
ATOM     26  H   UNL     1       6.179  -1.681   4.495  0.00  0.00    +0.144 HD
ENDBRANCH  19  24
ENDBRANCH  14  15
ENDBRANCH   1  14
TORSDOF 6
