REMARK  Name = ZINC36639582
REMARK  6 active torsions:
REMARK  status: ('A' for Active; 'I' for Inactive)
REMARK    1  A    between atoms: C_1  and  C_2
REMARK    2  A    between atoms: C_3  and  C_22
REMARK    3  A    between atoms: C_8  and  C_10
REMARK    4  A    between atoms: C_22  and  C_23
REMARK    5  A    between atoms: C_26  and  S_29
REMARK    6  A    between atoms: S_29  and  N_32
REMARK                            x       y       z     vdW  Elec       q    Type
REMARK                         _______ _______ _______ _____ _____    ______ ____
ROOT
ATOM      1  C   UNL     1      -0.018   1.503   0.010  0.00  0.00    +0.066 C 
ATOM      2  C   UNL     1       0.002  -0.004   0.002  0.00  0.00    +0.051 A 
ATOM      3  C   UNL     1       0.006  -0.706  -1.158  0.00  0.00    +0.018 A 
ATOM      4  S   UNL     1       0.032  -2.379  -0.535  0.00  0.00    -0.056 S 
ATOM      5  C   UNL     1       0.036  -2.015   1.108  0.00  0.00    +0.165 A 
ATOM      6  N   UNL     1       0.023  -0.700   1.124  0.00  0.00    -0.230 NA
ATOM      7  N   UNL     1       0.053  -2.891   2.187  0.00  0.00    -0.262 N 
ATOM      8  C   UNL     1       0.053  -2.410   3.446  0.00  0.00    +0.260 C 
ATOM      9  O   UNL     1       0.038  -1.213   3.638  0.00  0.00    -0.271 OA
ATOM     10  H   UNL     1       0.065  -3.849   2.034  0.00  0.00    +0.157 HD
ENDROOT
BRANCH   8  11
ATOM     11  C   UNL     1       0.072  -3.361   4.616  0.00  0.00    +0.266 C 
ATOM     12  C   UNL     1      -1.224  -4.172   4.634  0.00  0.00    +0.090 C 
ATOM     13  C   UNL     1      -1.333  -4.950   5.919  0.00  0.00    -0.029 A 
ATOM     14  C   UNL     1      -2.156  -6.056   5.991  0.00  0.00    +0.004 A 
ATOM     15  C   UNL     1      -2.258  -6.769   7.173  0.00  0.00    +0.000 A 
ATOM     16  C   UNL     1      -1.540  -6.382   8.290  0.00  0.00    +0.001 A 
ATOM     17  C   UNL     1      -0.712  -5.278   8.233  0.00  0.00    +0.015 A 
ATOM     18  C   UNL     1      -0.605  -4.559   7.044  0.00  0.00    +0.062 A 
ATOM     19  C   UNL     1       0.282  -3.377   6.955  0.00  0.00    +0.340 C 
ATOM     20  O   UNL     1       1.062  -3.101   7.845  0.00  0.00    -0.245 OA
ATOM     21  O   UNL     1       0.185  -2.615   5.835  0.00  0.00    -0.448 OA
ENDBRANCH   8  11
BRANCH   3  22
ATOM     22  C   UNL     1      -0.009  -0.210  -2.581  0.00  0.00    +0.079 C 
BRANCH  22  23
ATOM     23  C   UNL     1       1.407  -0.025  -3.063  0.00  0.00    -0.042 A 
ATOM     24  C   UNL     1       2.044   1.189  -2.885  0.00  0.00    +0.006 A 
ATOM     25  C   UNL     1       3.343   1.359  -3.327  0.00  0.00    +0.029 A 
ATOM     26  C   UNL     1       4.005   0.315  -3.947  0.00  0.00    +0.105 A 
ATOM     27  C   UNL     1       3.368  -0.899  -4.124  0.00  0.00    +0.029 A 
ATOM     28  C   UNL     1       2.070  -1.070  -3.678  0.00  0.00    +0.006 A 
BRANCH  26  29
ATOM     29  S   UNL     1       5.659   0.532  -4.511  0.00  0.00    +0.056 S 
ATOM     30  O   UNL     1       5.865  -0.422  -5.544  0.00  0.00    -0.153 OA
ATOM     31  O   UNL     1       5.839   1.927  -4.716  0.00  0.00    -0.153 OA
BRANCH  29  32
ATOM     32  N   UNL     1       6.662   0.104  -3.265  0.00  0.00    -0.204 NA
ATOM     33  H   UNL     1       7.539  -0.266  -3.453  0.00  0.00    +0.144 HD
ATOM     34  H   UNL     1       6.372   0.222  -2.347  0.00  0.00    +0.144 HD
ENDBRANCH  29  32
ENDBRANCH  26  29
ENDBRANCH  22  23
ENDBRANCH   3  22
TORSDOF 5
