REMARK  Name = ZINC00888561
REMARK  10 active torsions:
REMARK  status: ('A' for Active; 'I' for Inactive)
REMARK    1  A    between atoms: C_1  and  C_2
REMARK    2  A    between atoms: C_5  and  C_7
REMARK    3  A    between atoms: N_10  and  C_12
REMARK    4  A    between atoms: C_12  and  C_13
REMARK    5  A    between atoms: N_15  and  C_16
REMARK    6  A    between atoms: N_15  and  C_22
REMARK    7  A    between atoms: C_16  and  C_17
REMARK    8  A    between atoms: C_22  and  C_24
REMARK    9  A    between atoms: C_22  and  C_29
REMARK   10  A    between atoms: N_31  and  C_32
REMARK                            x       y       z     vdW  Elec       q    Type
REMARK                         _______ _______ _______ _____ _____    ______ ____
ROOT
ATOM      1  C   UNL     1      -1.521  -2.276  -1.669  0.00  0.00    +0.240 C 
ATOM      2  O   UNL     1      -1.994  -2.622  -2.731  0.00  0.00    -0.273 OA
ATOM      3  N   UNL     1      -1.759  -1.036  -1.197  0.00  0.00    -0.277 N 
ENDROOT
BRANCH   1   4
ATOM      4  C   UNL     1      -0.666  -3.232  -0.878  0.00  0.00    +0.264 C 
BRANCH   4   8
ATOM      5  C   UNL     1      -0.945  -6.462  -2.276  0.00  0.00    +0.239 A 
ATOM      6  N   UNL     1       0.146  -5.991  -2.900  0.00  0.00    -0.105 NA
ATOM      7  N   UNL     1       0.351  -4.795  -2.462  0.00  0.00    -0.045 NA
ATOM      8  N   UNL     1      -0.559  -4.503  -1.600  0.00  0.00    -0.154 N 
ATOM      9  N   UNL     1      -1.358  -5.505  -1.466  0.00  0.00    -0.127 NA
BRANCH   5  14
ATOM     10  C   UNL     1      -4.074 -10.354  -1.767  0.00  0.00    +0.086 C 
ATOM     11  C   UNL     1      -2.927  -9.498  -2.239  0.00  0.00    +0.103 A 
ATOM     12  C   UNL     1      -2.001  -9.859  -3.149  0.00  0.00    +0.045 A 
ATOM     13  C   UNL     1      -1.123  -8.767  -3.299  0.00  0.00    +0.053 A 
ATOM     14  C   UNL     1      -1.562  -7.793  -2.459  0.00  0.00    +0.175 A 
ATOM     15  O   UNL     1      -2.659  -8.250  -1.825  0.00  0.00    -0.457 OA
ENDBRANCH   5  14
ENDBRANCH   4   8
ENDBRANCH   1   4
BRANCH   3  16
ATOM     16  C   UNL     1      -1.187  -0.619   0.086  0.00  0.00    +0.183 C 
BRANCH  16  17
ATOM     17  C   UNL     1       0.124   0.085  -0.154  0.00  0.00    +0.122 A 
ATOM     18  C   UNL     1       0.275   1.391  -0.438  0.00  0.00    +0.046 A 
ATOM     19  C   UNL     1       1.663   1.620  -0.585  0.00  0.00    +0.041 A 
ATOM     20  C   UNL     1       2.276   0.440  -0.382  0.00  0.00    +0.195 A 
ATOM     21  O   UNL     1       1.339  -0.486  -0.122  0.00  0.00    -0.466 OA
ENDBRANCH  16  17
ENDBRANCH   3  16
BRANCH   3  22
ATOM     22  C   UNL     1      -2.590  -0.107  -1.966  0.00  0.00    +0.199 C 
BRANCH  22  23
ATOM     23  C   UNL     1      -1.897   0.234  -3.260  0.00  0.00    +0.019 A 
ATOM     24  C   UNL     1      -1.897   1.403  -3.946  0.00  0.00    +0.013 A 
ATOM     25  C   UNL     1      -1.181   1.487  -5.126  0.00  0.00    +0.008 A 
ATOM     26  C   UNL     1      -0.500   0.399  -5.561  0.00  0.00    +0.045 A 
ATOM     27  S   UNL     1      -0.858  -0.796  -4.284  0.00  0.00    -0.099 S 
ENDBRANCH  22  23
BRANCH  22  28
ATOM     28  C   UNL     1      -3.921  -0.749  -2.262  0.00  0.00    +0.239 C 
ATOM     29  O   UNL     1      -4.133  -1.892  -1.914  0.00  0.00    -0.273 OA
ATOM     30  N   UNL     1      -4.874  -0.055  -2.914  0.00  0.00    -0.311 N 
ATOM     31  H   UNL     1      -4.704   0.859  -3.192  0.00  0.00    +0.149 HD
BRANCH  30  32
ATOM     32  C   UNL     1      -6.168  -0.680  -3.202  0.00  0.00    +0.073 C 
ATOM     33  C   UNL     1      -6.069  -1.480  -4.502  0.00  0.00    +0.022 C 
ATOM     34  C   UNL     1      -7.420  -2.133  -4.803  0.00  0.00    +0.002 C 
ATOM     35  C   UNL     1      -8.488  -1.048  -4.952  0.00  0.00    +0.000 C 
ATOM     36  C   UNL     1      -8.587  -0.247  -3.652  0.00  0.00    +0.002 C 
ATOM     37  C   UNL     1      -7.236   0.405  -3.351  0.00  0.00    +0.022 C 
ENDBRANCH  30  32
ENDBRANCH  22  28
ENDBRANCH   3  22
TORSDOF 9
