REMARK  Name = ZINC37295370
REMARK  7 active torsions:
REMARK  status: ('A' for Active; 'I' for Inactive)
REMARK    1  A    between atoms: C_1  and  C_2
REMARK    2  A    between atoms: C_2  and  C_4
REMARK    3  A    between atoms: C_2  and  N_13
REMARK    4  A    between atoms: C_7  and  C_10
REMARK    5  A    between atoms: C_10  and  C_11
REMARK    6  A    between atoms: C_10  and  C_12
REMARK    7  A    between atoms: N_13  and  C_14
REMARK                            x       y       z     vdW  Elec       q    Type
REMARK                         _______ _______ _______ _____ _____    ______ ____
ROOT
ATOM      1  N   UNL     1       0.682  -0.481  -1.202  0.00  0.00    +0.385 N 
ATOM      2  H   UNL     1       1.602  -0.070  -1.249  0.00  0.00    -0.085 HD
ATOM      3  H   UNL     1       0.765  -1.486  -1.166  0.00  0.00    -0.085 HD
ENDROOT
BRANCH   1   4
ATOM      4  C   UNL     1      -0.089  -0.095  -2.391  0.00  0.00    -0.068 C 
ATOM      5  C   UNL     1      -1.438  -0.818  -2.380  0.00  0.00    +0.003 C 
ATOM      6  C   UNL     1      -2.253  -0.387  -3.603  0.00  0.00    +0.108 C 
ATOM      7  N   UNL     1      -1.453  -0.622  -4.812  0.00  0.00    -0.286 N 
ATOM      8  C   UNL     1      -0.102  -0.048  -4.888  0.00  0.00    +0.108 C 
ATOM      9  C   UNL     1       0.689  -0.483  -3.651  0.00  0.00    +0.003 C 
ATOM     10  C   UNL     1      -1.947  -1.351  -5.832  0.00  0.00    +0.300 C 
ATOM     11  O   UNL     1      -3.026  -1.901  -5.720  0.00  0.00    -0.253 OA
ATOM     12  N   UNL     1      -1.246  -1.472  -6.977  0.00  0.00    -0.313 N 
ATOM     13  H   UNL     1      -0.354  -1.094  -7.041  0.00  0.00    +0.146 HD
ATOM     14  H   UNL     1      -1.632  -1.935  -7.736  0.00  0.00    +0.146 HD
ENDBRANCH   1   4
BRANCH   1  16
ATOM     15  C   UNL     1      -0.022   1.526   0.011  0.00  0.00    -0.009 C 
ATOM     16  C   UNL     1      -0.006  -0.004   0.005  0.00  0.00    -0.044 C 
BRANCH  16  17
ATOM     17  C   UNL     1       0.718  -0.504   1.228  0.00  0.00    -0.062 A 
ATOM     18  C   UNL     1       2.100  -0.519   1.255  0.00  0.00    +0.002 A 
ATOM     19  C   UNL     1       2.765  -0.978   2.377  0.00  0.00    +0.004 A 
ATOM     20  C   UNL     1       2.047  -1.421   3.472  0.00  0.00    -0.045 A 
ATOM     21  C   UNL     1       0.665  -1.405   3.445  0.00  0.00    +0.004 A 
ATOM     22  C   UNL     1       0.001  -0.942   2.325  0.00  0.00    +0.002 A 
BRANCH  20  23
ATOM     23  C   UNL     1       2.772  -1.923   4.695  0.00  0.00    +0.013 C 
ATOM     24  C   UNL     1       2.389  -1.064   5.902  0.00  0.00    +0.012 C 
ATOM     25  C   UNL     1       2.380  -3.378   4.959  0.00  0.00    +0.012 C 
ENDBRANCH  20  23
ENDBRANCH  16  17
ENDBRANCH   1  16
TORSDOF 4
