REMARK  Name = ZINC39691145
REMARK  8 active torsions:
REMARK  status: ('A' for Active; 'I' for Inactive)
REMARK    1  A    between atoms: C_1  and  C_2
REMARK    2  A    between atoms: C_7  and  C_8
REMARK    3  A    between atoms: C_8  and  C_9
REMARK    4  A    between atoms: C_9  and  N_10
REMARK    5  A    between atoms: C_11  and  C_13
REMARK    6  A    between atoms: C_24  and  C_26
REMARK    7  A    between atoms: C_27  and  C_38
REMARK    8  A    between atoms: C_30  and  C_31
REMARK                            x       y       z     vdW  Elec       q    Type
REMARK                         _______ _______ _______ _____ _____    ______ ____
ROOT
ATOM      1  C   UNL     1      -2.571   2.266   6.027  0.00  0.00    +0.100 C 
ATOM      2  C   UNL     1      -1.717   3.548   5.913  0.00  0.00    +0.121 C 
ATOM      3  N   UNL     1      -2.690   4.619   5.590  0.00  0.00    -0.296 N 
ATOM      4  C   UNL     1      -3.878   4.299   6.419  0.00  0.00    +0.115 C 
ATOM      5  C   UNL     1      -3.988   2.763   6.362  0.00  0.00    -0.004 C 
ATOM      6  C   UNL     1      -4.433   2.215   7.715  0.00  0.00    -0.010 C 
ATOM      7  C   UNL     1      -5.866   2.675   8.000  0.00  0.00    -0.082 C 
ATOM      8  N   UNL     1      -6.757   2.194   6.937  0.00  0.00    +0.379 N 
ATOM      9  C   UNL     1      -6.378   2.799   5.654  0.00  0.00    -0.082 C 
ATOM     10  C   UNL     1      -4.967   2.344   5.270  0.00  0.00    -0.010 C 
ATOM     11  C   UNL     1      -2.531   5.650   4.737  0.00  0.00    +0.252 C 
ATOM     12  O   UNL     1      -3.431   6.453   4.580  0.00  0.00    -0.270 OA
ATOM     13  H   UNL     1      -6.685   1.190   6.868  0.00  0.00    -0.086 HD
ATOM     14  H   UNL     1      -7.708   2.446   7.158  0.00  0.00    -0.086 HD
ENDROOT
BRANCH  11  15
ATOM     15  C   UNL     1      -1.268   5.804   3.996  0.00  0.00    +0.106 A 
ATOM     16  C   UNL     1      -0.976   5.282   2.770  0.00  0.00    +0.147 A 
ATOM     17  O   UNL     1       0.267   5.648   2.445  0.00  0.00    -0.359 OA
ATOM     18  N   UNL     1       0.814   6.434   3.484  0.00  0.00    -0.077 NA
ATOM     19  C   UNL     1      -0.081   6.554   4.431  0.00  0.00    +0.127 A 
ATOM     20  C   UNL     1      -1.897   4.438   1.927  0.00  0.00    +0.090 C 
BRANCH  19  21
ATOM     21  C   UNL     1       0.074   7.302   5.703  0.00  0.00    +0.023 A 
ATOM     22  C   UNL     1      -0.969   7.334   6.627  0.00  0.00    +0.011 A 
ATOM     23  C   UNL     1      -0.820   8.031   7.809  0.00  0.00    +0.001 A 
ATOM     24  C   UNL     1       0.363   8.698   8.077  0.00  0.00    +0.001 A 
ATOM     25  C   UNL     1       1.401   8.671   7.165  0.00  0.00    +0.020 A 
ATOM     26  C   UNL     1       1.266   7.971   5.981  0.00  0.00    +0.050 A 
ATOM     27 CL   UNL     1       2.573   7.930   4.840  0.00  0.00    -0.083 Cl
ENDBRANCH  19  21
ENDBRANCH  11  15
BRANCH   1  29
ATOM     28  N   UNL     1      -2.827   0.196   4.697  0.00  0.00    -0.315 N 
ATOM     29  C   UNL     1      -2.574   1.519   4.718  0.00  0.00    +0.218 C 
ATOM     30  O   UNL     1      -2.348   2.110   3.683  0.00  0.00    -0.275 OA
ATOM     31  H   UNL     1      -3.007  -0.277   5.525  0.00  0.00    +0.149 HD
BRANCH  28  32
ATOM     32  C   UNL     1      -2.829  -0.530   3.424  0.00  0.00    +0.109 C 
BRANCH  32  33
ATOM     33  C   UNL     1      -3.141  -2.006   3.679  0.00  0.00    +0.054 C 
BRANCH  33  40
ATOM     34  C   UNL     1      -0.663  -3.006   2.582  0.00  0.00    +0.044 C 
ATOM     35  C   UNL     1      -1.958  -3.231   1.845  0.00  0.00    -0.047 A 
ATOM     36  C   UNL     1      -1.961  -3.921   0.647  0.00  0.00    +0.003 A 
ATOM     37  C   UNL     1      -3.149  -4.127  -0.029  0.00  0.00    +0.000 A 
ATOM     38  C   UNL     1      -4.334  -3.644   0.494  0.00  0.00    +0.000 A 
ATOM     39  C   UNL     1      -4.331  -2.955   1.692  0.00  0.00    +0.004 A 
ATOM     40  C   UNL     1      -3.144  -2.752   2.370  0.00  0.00    -0.043 A 
ENDBRANCH  33  40
ENDBRANCH  32  33
ENDBRANCH  28  32
ENDBRANCH   1  29
TORSDOF 6
