REMARK  Name = ZINC43757348
REMARK  7 active torsions:
REMARK  status: ('A' for Active; 'I' for Inactive)
REMARK    1  A    between atoms: C_1  and  C_2
REMARK    2  A    between atoms: C_17  and  C_29
REMARK    3  A    between atoms: C_22  and  C_23
REMARK    4  A    between atoms: C_22  and  O_28
REMARK    5  A    between atoms: C_23  and  C_25
REMARK    6  A    between atoms: C_23  and  O_27
REMARK    7  A    between atoms: C_25  and  O_26
REMARK                            x       y       z     vdW  Elec       q    Type
REMARK                         _______ _______ _______ _____ _____    ______ ____
ROOT
ATOM      1  C   UNL     1       0.183   2.060  -0.383  0.00  0.00    +0.012 C 
ATOM      2  C   UNL     1       0.091   0.533  -0.320  0.00  0.00    -0.026 C 
ATOM      3  C   UNL     1      -1.392   0.152  -0.351  0.00  0.00    +0.007 C 
ATOM      4  C   UNL     1      -1.559  -1.361  -0.226  0.00  0.00    +0.001 C 
ATOM      5  C   UNL     1      -0.960  -1.821   1.106  0.00  0.00    +0.000 C 
ATOM      6  C   UNL     1       0.529  -1.476   1.129  0.00  0.00    +0.004 C 
ATOM      7  C   UNL     1       0.729   0.032   0.978  0.00  0.00    -0.005 C 
ATOM      8  C   UNL     1       2.228   0.333   1.005  0.00  0.00    +0.004 C 
ATOM      9  C   UNL     1       2.928  -0.290  -0.208  0.00  0.00    +0.004 C 
ATOM     10  C   UNL     1       2.293   0.285  -1.474  0.00  0.00    -0.004 C 
ATOM     11  C   UNL     1       0.818  -0.104  -1.505  0.00  0.00    -0.001 C 
ATOM     12  C   UNL     1       0.168   0.219  -2.836  0.00  0.00    +0.005 C 
ATOM     13  C   UNL     1       0.879  -0.440  -4.026  0.00  0.00    +0.010 C 
ATOM     14  C   UNL     1       2.188  -1.063  -3.621  0.00  0.00    +0.002 C 
ATOM     15  C   UNL     1       2.998  -0.095  -2.737  0.00  0.00    +0.001 C 
ATOM     16  C   UNL     1       4.345  -0.819  -2.622  0.00  0.00    +0.007 C 
ATOM     17  C   UNL     1       4.560  -1.378  -4.057  0.00  0.00    +0.038 C 
ATOM     18  C   UNL     1       3.192  -1.276  -4.777  0.00  0.00    +0.100 C 
ATOM     19  C   UNL     1       1.985  -2.435  -2.977  0.00  0.00    +0.014 C 
ENDROOT
BRANCH  18  20
ATOM     20  O   UNL     1       3.168  -0.166  -5.665  0.00  0.00    -0.385 OA
ATOM     21  H   UNL     1       3.779  -0.245  -6.410  0.00  0.00    +0.210 HD
ENDBRANCH  18  20
BRANCH  18  22
ATOM     22  C   UNL     1       2.870  -2.576  -5.508  0.00  0.00    +0.172 C 
BRANCH  22  23
ATOM     23  O   UNL     1       3.888  -2.844  -6.474  0.00  0.00    -0.387 OA
ATOM     24  H   UNL     1       3.984  -2.155  -7.146  0.00  0.00    +0.210 HD
ENDBRANCH  22  23
BRANCH  22  25
ATOM     25  C   UNL     1       1.519  -2.443  -6.215  0.00  0.00    +0.190 C 
BRANCH  25  26
ATOM     26  O   UNL     1       1.184  -3.684  -6.840  0.00  0.00    -0.392 OA
ATOM     27  H   UNL     1       0.338  -3.673  -7.308  0.00  0.00    +0.210 HD
ENDBRANCH  25  26
ENDBRANCH  22  25
ENDBRANCH  18  22
TORSDOF 5
