REMARK  Name = ZINC62823082
REMARK  3 active torsions:
REMARK  status: ('A' for Active; 'I' for Inactive)
REMARK    1  A    between atoms: C_3  and  C_9
REMARK    2  A    between atoms: C_4  and  N_8
REMARK    3  A    between atoms: N_11  and  C_12
REMARK                            x       y       z     vdW  Elec       q    Type
REMARK                         _______ _______ _______ _____ _____    ______ ____
ROOT
ATOM      1  C   UNL     1       2.594   3.461  -1.679  0.00  0.00    +0.246 C 
ATOM      2  O   UNL     1       3.208   3.477  -2.728  0.00  0.00    -0.270 OA
ATOM      3  N   UNL     1       2.838   4.397  -0.741  0.00  0.00    -0.308 N 
ATOM      4  H   UNL     1       2.348   4.384   0.097  0.00  0.00    +0.149 HD
ENDROOT
BRANCH   3   5
ATOM      5  C   UNL     1       3.843   5.435  -0.985  0.00  0.00    +0.077 C 
ATOM      6  C   UNL     1       4.301   6.059   0.360  0.00  0.00    +0.026 C 
ATOM      7  C   UNL     1       3.620   7.489   0.315  0.00  0.00    -0.006 C 
ATOM      8  C   UNL     1       4.004   7.812  -1.192  0.00  0.00    +0.009 C 
ATOM      9  C   UNL     1       3.229   6.578  -1.818  0.00  0.00    +0.013 C 
ATOM     10  C   UNL     1       1.844   6.967  -1.320  0.00  0.00    -0.003 C 
ATOM     11  C   UNL     1       2.183   7.074   0.239  0.00  0.00    -0.004 C 
ATOM     12  C   UNL     1       0.914   7.359   0.918  0.00  0.00    +0.004 C 
ATOM     13  C   UNL     1      -0.122   6.539   0.076  0.00  0.00    +0.001 C 
ATOM     14  C   UNL     1       0.698   5.968  -1.223  0.00  0.00    +0.004 C 
ENDBRANCH   3   5
BRANCH   1  17
ATOM     15  C   UNL     1       0.009   1.353   0.036  0.00  0.00    +0.039 A 
ATOM     16  C   UNL     1       0.952   2.330  -0.189  0.00  0.00    +0.018 A 
ATOM     17  C   UNL     1       1.583   2.417  -1.433  0.00  0.00    +0.057 A 
ATOM     18  C   UNL     1       1.249   1.505  -2.447  0.00  0.00    +0.040 A 
ATOM     19  C   UNL     1       0.295   0.527  -2.204  0.00  0.00    +0.061 A 
ATOM     20  C   UNL     1      -0.321   0.452  -0.968  0.00  0.00    +0.125 A 
ATOM     21  F   UNL     1      -1.249  -0.502  -0.736  0.00  0.00    -0.205 F 
BRANCH  18  22
ATOM     22  N   UNL     1       1.869   1.582  -3.687  0.00  0.00    -0.357 N 
ATOM     23  H   UNL     1       2.743   1.994  -3.767  0.00  0.00    +0.142 HD
ATOM     24  H   UNL     1       1.427   1.224  -4.473  0.00  0.00    +0.142 HD
ENDBRANCH  18  22
ENDBRANCH   1  17
TORSDOF 3
