REMARK  Name = ZINC36213576
REMARK  9 active torsions:
REMARK  status: ('A' for Active; 'I' for Inactive)
REMARK    1  A    between atoms: C_1  and  C_2
REMARK    2  A    between atoms: C_9  and  C_11
REMARK    3  A    between atoms: C_11  and  C_13
REMARK    4  A    between atoms: C_11  and  N_26
REMARK    5  A    between atoms: N_21  and  C_22
REMARK    6  A    between atoms: C_22  and  C_23
REMARK    7  A    between atoms: C_22  and  C_24
REMARK    8  A    between atoms: C_22  and  C_25
REMARK    9  A    between atoms: C_27  and  C_29
REMARK                            x       y       z     vdW  Elec       q    Type
REMARK                         _______ _______ _______ _____ _____    ______ ____
ROOT
ATOM      1  C   UNL     1       2.224  -0.125   3.121  0.00  0.00    +0.162 C 
ENDROOT
BRANCH   1   2
ATOM      2  C   UNL     1       1.565  -1.284   3.871  0.00  0.00    +0.021 C 
ATOM      3  C   UNL     1       0.323  -0.776   4.606  0.00  0.00    +0.025 C 
ATOM      4  C   UNL     1      -0.353  -1.946   5.328  0.00  0.00    +0.109 C 
ATOM      5  N   UNL     1       0.635  -2.602   6.195  0.00  0.00    -0.286 N 
ATOM      6  C   UNL     1       1.905  -3.049   5.606  0.00  0.00    +0.109 C 
ATOM      7  C   UNL     1       2.556  -1.867   4.882  0.00  0.00    +0.025 C 
ATOM      8  C   UNL     1       0.381  -2.789   7.505  0.00  0.00    +0.303 C 
ATOM      9  O   UNL     1      -0.706  -2.494   7.963  0.00  0.00    -0.253 OA
ATOM     10  N   UNL     1       1.333  -3.304   8.309  0.00  0.00    -0.294 N 
ATOM     11  H   UNL     1       2.222  -3.473   7.960  0.00  0.00    +0.151 HD
BRANCH  10  12
ATOM     12  C   UNL     1       1.024  -3.610   9.708  0.00  0.00    +0.028 C 
ATOM     13  C   UNL     1      -0.107  -4.638   9.768  0.00  0.00    +0.031 C 
ATOM     14  C   UNL     1       2.268  -4.179  10.392  0.00  0.00    +0.031 C 
ATOM     15  C   UNL     1       0.588  -2.330  10.424  0.00  0.00    +0.031 C 
ENDBRANCH  10  12
ENDBRANCH   1   2
BRANCH   1  23
ATOM     16  C   UNL     1      -0.054   1.625   0.086  0.00  0.00    +0.028 C 
ATOM     17  C   UNL     1       0.190   0.129  -0.120  0.00  0.00    +0.073 C 
ATOM     18  C   UNL     1       0.952  -0.091  -1.430  0.00  0.00    +0.022 C 
ATOM     19  C   UNL     1       1.315  -1.572  -1.562  0.00  0.00    +0.003 C 
ATOM     20  C   UNL     1       2.223  -1.982  -0.400  0.00  0.00    +0.019 C 
ATOM     21  C   UNL     1       1.476  -1.783   0.922  0.00  0.00    +0.108 C 
ATOM     22  N   UNL     1       0.994  -0.396   0.992  0.00  0.00    -0.297 N 
ATOM     23  C   UNL     1       1.288   0.380   2.054  0.00  0.00    +0.236 C 
ATOM     24  O   UNL     1       0.798   1.485   2.151  0.00  0.00    -0.274 OA
ENDBRANCH   1  23
BRANCH   1  25
ATOM     25  N   UNL     1       2.523   0.958   4.061  0.00  0.00    -0.300 N 
ATOM     26  C   UNL     1       3.511   1.833   3.790  0.00  0.00    +0.245 C 
ATOM     27  O   UNL     1       4.155   1.723   2.765  0.00  0.00    -0.270 OA
ATOM     28  H   UNL     1       2.009   1.045   4.880  0.00  0.00    +0.150 HD
BRANCH  26  29
ATOM     29  C   UNL     1       3.813   2.926   4.739  0.00  0.00    +0.037 A 
ATOM     30  C   UNL     1       3.079   3.051   5.920  0.00  0.00    +0.013 A 
ATOM     31  C   UNL     1       3.366   4.072   6.801  0.00  0.00    +0.001 A 
ATOM     32  C   UNL     1       4.378   4.972   6.517  0.00  0.00    +0.000 A 
ATOM     33  C   UNL     1       5.108   4.854   5.348  0.00  0.00    +0.001 A 
ATOM     34  C   UNL     1       4.836   3.833   4.461  0.00  0.00    +0.013 A 
ENDBRANCH  26  29
ENDBRANCH   1  25
TORSDOF 5
