REMARK  Name = ZINC01790981
REMARK  8 active torsions:
REMARK  status: ('A' for Active; 'I' for Inactive)
REMARK    1  A    between atoms: C_2  and  C_3
REMARK    2  A    between atoms: C_2  and  N_13
REMARK    3  A    between atoms: N_13  and  N_14
REMARK    4  A    between atoms: C_15  and  C_17
REMARK    5  A    between atoms: C_17  and  S_18
REMARK    6  A    between atoms: S_18  and  C_19
REMARK    7  A    between atoms: C_22  and  C_31
REMARK    8  A    between atoms: N_23  and  C_24
REMARK                            x       y       z     vdW  Elec       q    Type
REMARK                         _______ _______ _______ _____ _____    ______ ____
ROOT
ATOM      1  C   UNL     1       4.894   0.145  -0.044  0.00  0.00    +0.174 C 
ENDROOT
BRANCH   1   3
ATOM      2  N   UNL     1       2.424   0.032  -0.021  0.00  0.00    -0.236 N 
ATOM      3  C   UNL     1       3.600  -0.626  -0.036  0.00  0.00    +0.239 C 
ATOM      4  O   UNL     1       3.616  -1.839  -0.042  0.00  0.00    -0.273 OA
ATOM      5  H   UNL     1       2.410   1.002  -0.016  0.00  0.00    +0.173 HD
BRANCH   2   6
ATOM      6  N   UNL     1       1.220  -0.685  -0.013  0.00  0.00    -0.264 N 
ATOM      7  H   UNL     1       1.233  -1.655  -0.019  0.00  0.00    +0.170 HD
BRANCH   6   9
ATOM      8  C   UNL     1      -0.016   1.330   0.009  0.00  0.00    +0.035 C 
ATOM      9  C   UNL     1       0.002  -0.004   0.002  0.00  0.00    +0.044 C 
BRANCH   9  10
ATOM     10  C   UNL     1      -1.270  -0.762   0.010  0.00  0.00    -0.003 A 
ATOM     11  C   UNL     1      -1.244  -2.167   0.008  0.00  0.00    +0.010 A 
ATOM     12  C   UNL     1      -2.397  -2.885   0.015  0.00  0.00    +0.009 A 
ATOM     13  C   UNL     1      -3.638  -2.222   0.026  0.00  0.00    -0.018 A 
ATOM     14  C   UNL     1      -4.844  -2.942   0.034  0.00  0.00    +0.008 A 
ATOM     15  C   UNL     1      -6.029  -2.273   0.044  0.00  0.00    +0.001 A 
ATOM     16  C   UNL     1      -6.067  -0.880   0.046  0.00  0.00    +0.001 A 
ATOM     17  C   UNL     1      -4.920  -0.148   0.038  0.00  0.00    +0.008 A 
ATOM     18  C   UNL     1      -3.676  -0.805   0.028  0.00  0.00    -0.017 A 
ATOM     19  C   UNL     1      -2.474  -0.081   0.025  0.00  0.00    +0.018 A 
ENDBRANCH   9  10
ENDBRANCH   6   9
ENDBRANCH   2   6
ENDBRANCH   1   3
BRANCH   1  20
ATOM     20  S   UNL     1       6.289  -1.015  -0.063  0.00  0.00    -0.076 S 
BRANCH  20  21
ATOM     21  C   UNL     1       7.710   0.027  -0.071  0.00  0.00    +0.197 A 
ATOM     22  N   UNL     1       7.713   1.341  -0.059  0.00  0.00    -0.122 NA
ATOM     23  N   UNL     1       8.921   1.781  -0.070  0.00  0.00    -0.128 NA
ATOM     24  C   UNL     1       9.765   0.775  -0.090  0.00  0.00    +0.169 A 
ATOM     25  N   UNL     1       9.015  -0.381  -0.086  0.00  0.00    -0.270 N 
BRANCH  25  26
ATOM     26  C   UNL     1       9.492  -1.700  -0.097  0.00  0.00    +0.051 A 
ATOM     27  C   UNL     1      10.210  -2.189   0.985  0.00  0.00    +0.028 A 
ATOM     28  C   UNL     1      10.678  -3.488   0.972  0.00  0.00    +0.022 A 
ATOM     29  C   UNL     1      10.431  -4.303  -0.119  0.00  0.00    +0.041 A 
ATOM     30  C   UNL     1       9.714  -3.818  -1.200  0.00  0.00    +0.022 A 
ATOM     31  C   UNL     1       9.240  -2.521  -1.188  0.00  0.00    +0.028 A 
ATOM     32 CL   UNL     1      11.021  -5.935  -0.134  0.00  0.00    -0.084 Cl
ENDBRANCH  25  26
BRANCH  24  33
ATOM     33  C   UNL     1      11.240   0.866  -0.108  0.00  0.00    +0.020 A 
ATOM     34  C   UNL     1      12.007  -0.249  -0.448  0.00  0.00    +0.011 A 
ATOM     35  C   UNL     1      13.383  -0.158  -0.462  0.00  0.00    +0.001 A 
ATOM     36  C   UNL     1      14.004   1.037  -0.141  0.00  0.00    +0.000 A 
ATOM     37  C   UNL     1      13.249   2.147   0.196  0.00  0.00    +0.001 A 
ATOM     38  C   UNL     1      11.872   2.070   0.208  0.00  0.00    +0.011 A 
ENDBRANCH  24  33
ENDBRANCH  20  21
ENDBRANCH   1  20
TORSDOF 8
