REMARK  Name = ZINC35711877
REMARK  15 active torsions:
REMARK  status: ('A' for Active; 'I' for Inactive)
REMARK    1  A    between atoms: C_1  and  C_2
REMARK    2  A    between atoms: C_2  and  O_3
REMARK    3  A    between atoms: O_3  and  C_4
REMARK    4  A    between atoms: C_4  and  C_6
REMARK    5  A    between atoms: C_13  and  C_15
REMARK    6  A    between atoms: C_18  and  C_20
REMARK    7  A    between atoms: C_20  and  N_21
REMARK    8  A    between atoms: N_21  and  C_22
REMARK    9  A    between atoms: N_21  and  C_29
REMARK   10  A    between atoms: C_22  and  C_23
REMARK   11  A    between atoms: C_29  and  C_30
REMARK   12  A    between atoms: C_34  and  O_38
REMARK   13  A    between atoms: C_35  and  O_36
REMARK   14  A    between atoms: O_36  and  C_37
REMARK   15  A    between atoms: O_38  and  C_39
REMARK                            x       y       z     vdW  Elec       q    Type
REMARK                         _______ _______ _______ _____ _____    ______ ____
ROOT
ATOM      1  N   UNL     1      -9.447  -6.298   2.646  0.00  0.00    +0.391 N 
ATOM      2  H   UNL     1      -9.894  -5.835   3.423  0.00  0.00    -0.080 HD
ENDROOT
BRANCH   1   3
ATOM      3  C   UNL     1      -9.492  -5.427   1.464  0.00  0.00    +0.020 C 
BRANCH   3   7
ATOM      4  C   UNL     1     -12.749  -3.860   1.224  0.00  0.00    +0.164 A 
ATOM      5  C   UNL     1     -12.966  -4.988   0.494  0.00  0.00    +0.230 A 
ATOM      6  O   UNL     1     -11.817  -5.683   0.497  0.00  0.00    -0.449 OA
ATOM      7  C   UNL     1     -10.914  -4.997   1.212  0.00  0.00    +0.179 A 
ATOM      8  N   UNL     1     -11.457  -3.900   1.649  0.00  0.00    -0.210 NA
BRANCH   4  15
ATOM      9  C   UNL     1     -13.658   0.728   1.767  0.00  0.00    +0.115 C 
ATOM     10  C   UNL     1     -12.285   0.945   2.406  0.00  0.00    +0.018 C 
ATOM     11  C   UNL     1     -11.366  -0.228   2.059  0.00  0.00    +0.020 C 
ATOM     12  C   UNL     1     -11.962  -1.522   2.622  0.00  0.00    +0.108 C 
ATOM     13  N   UNL     1     -13.338  -1.665   2.125  0.00  0.00    -0.295 N 
ATOM     14  C   UNL     1     -14.280  -0.555   2.326  0.00  0.00    +0.122 C 
ATOM     15  C   UNL     1     -13.728  -2.791   1.496  0.00  0.00    +0.268 C 
ATOM     16  O   UNL     1     -14.887  -2.926   1.154  0.00  0.00    -0.268 OA
BRANCH   9  17
ATOM     17  C   UNL     1     -14.552   1.899   2.083  0.00  0.00    +0.312 C 
ATOM     18  O   UNL     1     -14.133   2.815   2.751  0.00  0.00    -0.250 OA
BRANCH  17  19
ATOM     19  O   UNL     1     -15.812   1.925   1.623  0.00  0.00    -0.465 OA
BRANCH  19  21
ATOM     20  C   UNL     1     -17.999   2.918   1.353  0.00  0.00    +0.048 C 
ATOM     21  C   UNL     1     -16.603   3.067   1.961  0.00  0.00    +0.229 C 
ENDBRANCH  19  21
ENDBRANCH  17  19
ENDBRANCH   9  17
ENDBRANCH   4  15
ENDBRANCH   3   7
ENDBRANCH   1   3
BRANCH   1  22
ATOM     22  C   UNL     1      -8.048  -6.587   2.988  0.00  0.00    -0.042 C 
BRANCH  22  23
ATOM     23  C   UNL     1      -7.365  -5.317   3.425  0.00  0.00    -0.064 A 
ATOM     24  C   UNL     1      -6.735  -4.515   2.492  0.00  0.00    +0.002 A 
ATOM     25  C   UNL     1      -6.109  -3.349   2.892  0.00  0.00    +0.000 A 
ATOM     26  C   UNL     1      -6.112  -2.986   4.226  0.00  0.00    +0.000 A 
ATOM     27  C   UNL     1      -6.742  -3.788   5.159  0.00  0.00    +0.000 A 
ATOM     28  C   UNL     1      -7.372  -4.951   4.758  0.00  0.00    +0.002 A 
ENDBRANCH  22  23
ENDBRANCH   1  22
BRANCH   1  29
ATOM     29  C   UNL     1     -10.149  -7.555   2.355  0.00  0.00    -0.038 C 
BRANCH  29  30
ATOM     30  C   UNL     1     -10.210  -8.397   3.604  0.00  0.00    -0.019 A 
ATOM     31  C   UNL     1      -9.312  -9.433   3.783  0.00  0.00    +0.005 A 
ATOM     32  C   UNL     1      -9.364 -10.208   4.926  0.00  0.00    +0.004 A 
ATOM     33  C   UNL     1     -10.316  -9.950   5.896  0.00  0.00    +0.049 A 
ATOM     34  C   UNL     1     -11.219  -8.914   5.723  0.00  0.00    +0.162 A 
ATOM     35  C   UNL     1     -11.162  -8.130   4.574  0.00  0.00    +0.163 A 
BRANCH  35  36
ATOM     36  O   UNL     1     -12.042  -7.108   4.402  0.00  0.00    -0.491 OA
ATOM     37  C   UNL     1     -13.273  -7.416   3.744  0.00  0.00    +0.277 C 
ENDBRANCH  35  36
BRANCH  34  38
ATOM     38  O   UNL     1     -12.155  -8.659   6.676  0.00  0.00    -0.491 OA
ATOM     39  C   UNL     1     -12.150  -9.501   7.831  0.00  0.00    +0.277 C 
ENDBRANCH  34  38
ENDBRANCH  29  30
ENDBRANCH   1  29
TORSDOF 12
