REMARK  Name = ZINC66851184
REMARK  7 active torsions:
REMARK  status: ('A' for Active; 'I' for Inactive)
REMARK    1  A    between atoms: C_1  and  C_2
REMARK    2  A    between atoms: C_2  and  C_4
REMARK    3  A    between atoms: C_2  and  N_13
REMARK    4  A    between atoms: N_9  and  C_10
REMARK    5  A    between atoms: C_10  and  C_11
REMARK    6  A    between atoms: C_10  and  C_12
REMARK    7  A    between atoms: C_17  and  C_20
REMARK                            x       y       z     vdW  Elec       q    Type
REMARK                         _______ _______ _______ _____ _____    ______ ____
ROOT
ATOM      1  N   UNL     1       0.713  -0.491   1.192  0.00  0.00    -0.287 NA
ATOM      2  C   UNL     1       0.070  -0.008   2.423  0.00  0.00    +0.113 C 
ATOM      3  C   UNL     1       0.805  -0.586   3.636  0.00  0.00    +0.176 C 
ATOM      4  O   UNL     1       2.186  -0.222   3.568  0.00  0.00    -0.369 OA
ATOM      5  C   UNL     1       2.843  -0.677   2.382  0.00  0.00    +0.162 C 
ATOM      6  C   UNL     1       2.129  -0.100   1.156  0.00  0.00    +0.121 C 
ENDROOT
BRANCH   5   7
ATOM      7  C   UNL     1       4.278  -0.215   2.393  0.00  0.00    -0.016 A 
ATOM      8  C   UNL     1       4.606   1.009   2.946  0.00  0.00    +0.008 A 
ATOM      9  C   UNL     1       5.921   1.434   2.957  0.00  0.00    +0.022 A 
ATOM     10  C   UNL     1       6.910   0.633   2.414  0.00  0.00    +0.059 A 
ATOM     11  C   UNL     1       6.582  -0.593   1.861  0.00  0.00    +0.060 A 
ATOM     12  C   UNL     1       5.266  -1.018   1.856  0.00  0.00    +0.027 A 
ATOM     13 CL   UNL     1       7.823  -1.597   1.179  0.00  0.00    -0.082 Cl
ATOM     14 CL   UNL     1       8.562   1.167   2.426  0.00  0.00    -0.082 Cl
ENDBRANCH   5   7
BRANCH   1  16
ATOM     15  C   UNL     1      -0.019   1.526   0.010  0.00  0.00    +0.034 C 
ATOM     16  C   UNL     1       0.002  -0.004   0.002  0.00  0.00    +0.141 C 
BRANCH  16  17
ATOM     17  C   UNL     1      -1.412  -0.526   0.013  0.00  0.00    +0.237 C 
ATOM     18  O   UNL     1      -1.790  -1.233   0.922  0.00  0.00    -0.274 OA
ATOM     19  N   UNL     1      -2.256  -0.206  -0.988  0.00  0.00    -0.239 N 
ATOM     20  C   UNL     1      -3.520  -0.672  -0.979  0.00  0.00    +0.306 C 
ATOM     21  O   UNL     1      -3.899  -1.381  -0.067  0.00  0.00    -0.252 OA
ATOM     22  N   UNL     1      -4.364  -0.353  -1.980  0.00  0.00    -0.297 N 
ATOM     23  H   UNL     1      -1.953   0.360  -1.716  0.00  0.00    +0.159 HD
ATOM     24  H   UNL     1      -4.061   0.213  -2.707  0.00  0.00    +0.151 HD
BRANCH  22  25
ATOM     25  C   UNL     1      -5.738  -0.860  -1.970  0.00  0.00    +0.068 C 
ATOM     26  C   UNL     1      -6.618   0.068  -1.129  0.00  0.00    +0.027 C 
ATOM     27  C   UNL     1      -6.274  -0.911  -3.402  0.00  0.00    +0.027 C 
ENDBRANCH  22  25
ENDBRANCH  16  17
ENDBRANCH   1  16
TORSDOF 4
