REMARK  Name = ZINC14532626
REMARK  12 active torsions:
REMARK  status: ('A' for Active; 'I' for Inactive)
REMARK    1  A    between atoms: C_1  and  O_2
REMARK    2  A    between atoms: O_2  and  C_3
REMARK    3  A    between atoms: C_7  and  C_10
REMARK    4  A    between atoms: C_8  and  O_9
REMARK    5  A    between atoms: C_10  and  N_66
REMARK    6  A    between atoms: N_18  and  C_30
REMARK    7  A    between atoms: N_21  and  C_22
REMARK    8  A    between atoms: C_22  and  C_23
REMARK    9  A    between atoms: C_23  and  C_24
REMARK   10  A    between atoms: C_30  and  C_31
REMARK   11  A    between atoms: C_31  and  O_33
REMARK   12  A    between atoms: O_33  and  C_34
REMARK                            x       y       z     vdW  Elec       q    Type
REMARK                         _______ _______ _______ _____ _____    ______ ____
ROOT
ATOM      1  C   UNL     1       1.096  -6.217  -0.644  0.00  0.00    -0.076 C 
ATOM      2  C   UNL     1       0.831  -4.784  -1.115  0.00  0.00    +0.017 C 
ATOM      3  C   UNL     1      -0.553  -4.347  -0.646  0.00  0.00    +0.112 C 
ATOM      4  C   UNL     1      -1.617  -5.319  -1.145  0.00  0.00    +0.017 C 
ATOM      5  C   UNL     1      -1.272  -6.735  -0.674  0.00  0.00    -0.076 C 
ATOM      6  C   UNL     1      -0.859  -2.946  -1.120  0.00  0.00    +0.247 C 
ATOM      7  O   UNL     1      -0.934  -2.558  -2.266  0.00  0.00    -0.273 OA
ATOM      8  N   UNL     1      -1.027  -2.215   0.002  0.00  0.00    -0.213 N 
ATOM      9  C   UNL     1      -0.877  -2.961   1.103  0.00  0.00    +0.312 C 
ATOM     10  O   UNL     1      -0.987  -2.528   2.233  0.00  0.00    -0.252 OA
ATOM     11  N   UNL     1      -0.593  -4.247   0.818  0.00  0.00    -0.271 N 
ATOM     12  N   UNL     1       0.056  -7.106  -1.206  0.00  0.00    +0.383 N 
ATOM     13  H   UNL     1       0.046  -7.001  -2.228  0.00  0.00    -0.081 HD
ENDROOT
BRANCH  12  14
ATOM     14  C   UNL     1       0.359  -8.512  -0.871  0.00  0.00    -0.039 C 
BRANCH  14  19
ATOM     15  C   UNL     1      -1.224 -10.508  -3.671  0.00  0.00    +0.161 A 
ATOM     16  C   UNL     1      -2.324 -11.052  -3.028  0.00  0.00    +0.049 A 
ATOM     17  C   UNL     1      -2.553 -10.772  -1.693  0.00  0.00    +0.004 A 
ATOM     18  C   UNL     1      -1.685  -9.952  -0.997  0.00  0.00    +0.005 A 
ATOM     19  C   UNL     1      -0.585  -9.406  -1.633  0.00  0.00    -0.019 A 
ATOM     20  C   UNL     1      -0.353  -9.678  -2.972  0.00  0.00    +0.160 A 
BRANCH  15  22
ATOM     21  C   UNL     1      -1.936 -11.638  -5.639  0.00  0.00    +0.277 C 
ATOM     22  O   UNL     1      -0.998 -10.782  -4.984  0.00  0.00    -0.491 OA
ENDBRANCH  15  22
BRANCH  20  23
ATOM     23  O   UNL     1       0.726  -9.138  -3.600  0.00  0.00    -0.503 OA
ATOM     24  H   UNL     1       1.521  -9.686  -3.555  0.00  0.00    +0.292 HD
ENDBRANCH  20  23
ENDBRANCH  14  19
ENDBRANCH  12  14
BRANCH  11  25
ATOM     25  C   UNL     1      -0.369  -5.330   1.779  0.00  0.00    +0.115 C 
BRANCH  25  26
ATOM     26  C   UNL     1       0.916  -5.059   2.563  0.00  0.00    +0.054 C 
BRANCH  26  27
ATOM     27  C   UNL     1       1.211  -6.230   3.464  0.00  0.00    -0.046 A 
ATOM     28  C   UNL     1       0.710  -6.255   4.753  0.00  0.00    +0.004 A 
ATOM     29  C   UNL     1       0.977  -7.332   5.577  0.00  0.00    +0.000 A 
ATOM     30  C   UNL     1       1.753  -8.379   5.117  0.00  0.00    +0.000 A 
ATOM     31  C   UNL     1       2.259  -8.351   3.831  0.00  0.00    +0.000 A 
ATOM     32  C   UNL     1       1.987  -7.277   3.005  0.00  0.00    +0.004 A 
ENDBRANCH  26  27
ENDBRANCH  25  26
ENDBRANCH  11  25
BRANCH   8  33
ATOM     33  C   UNL     1      -1.340  -0.784   0.013  0.00  0.00    +0.238 C 
BRANCH  33  34
ATOM     34  C   UNL     1      -0.060   0.011   0.034  0.00  0.00    +0.325 C 
ATOM     35  O   UNL     1       1.005  -0.560   0.039  0.00  0.00    -0.249 OA
BRANCH  34  36
ATOM     36  O   UNL     1      -0.102   1.352   0.048  0.00  0.00    -0.467 OA
ATOM     37  C   UNL     1       1.170   2.052   0.068  0.00  0.00    +0.280 C 
ENDBRANCH  34  36
ENDBRANCH  33  34
ENDBRANCH   8  33
TORSDOF 10
