REMARK  Name = ZINC63830697
REMARK  12 active torsions:
REMARK  status: ('A' for Active; 'I' for Inactive)
REMARK    1  A    between atoms: C_1  and  C_2
REMARK    2  A    between atoms: C_2  and  C_3
REMARK    3  A    between atoms: C_3  and  C_35
REMARK    4  A    between atoms: N_6  and  C_10
REMARK    5  A    between atoms: C_10  and  C_11
REMARK    6  A    between atoms: N_13  and  C_14
REMARK    7  A    between atoms: C_14  and  C_15
REMARK    8  A    between atoms: C_15  and  C_17
REMARK    9  A    between atoms: C_15  and  C_26
REMARK   10  A    between atoms: C_20  and  N_23
REMARK   11  A    between atoms: N_23  and  C_24
REMARK   12  A    between atoms: N_23  and  C_25
REMARK                            x       y       z     vdW  Elec       q    Type
REMARK                         _______ _______ _______ _____ _____    ______ ____
ROOT
ATOM      1  C   UNL     1       4.819  -6.671  -2.151  0.00  0.00    +0.064 C 
ENDROOT
BRANCH   1   2
ATOM      2  C   UNL     1       3.886  -7.739  -1.639  0.00  0.00    -0.033 C 
ATOM      3  C   UNL     1       4.095  -8.567  -0.590  0.00  0.00    -0.000 A 
ATOM      4  C   UNL     1       5.211  -8.716   0.352  0.00  0.00    +0.010 A 
ATOM      5  C   UNL     1       5.130  -9.656   1.321  0.00  0.00    +0.001 A 
ATOM      6  C   UNL     1       4.011 -10.491   1.446  0.00  0.00    +0.002 A 
ATOM      7  C   UNL     1       2.947 -10.414   0.619  0.00  0.00    +0.026 A 
ATOM      8  C   UNL     1       2.925  -9.460  -0.436  0.00  0.00    +0.043 A 
ATOM      9  N   UNL     1       2.027  -9.195  -1.354  0.00  0.00    -0.380 N 
ATOM     10  C   UNL     1       2.525  -8.098  -2.192  0.00  0.00    +0.145 C 
ATOM     11  H   UNL     1       1.175  -9.646  -1.459  0.00  0.00    +0.160 HD
ENDBRANCH   1   2
BRANCH   1  12
ATOM     12  C   UNL     1       5.183  -6.966  -3.583  0.00  0.00    -0.039 A 
ATOM     13  C   UNL     1       4.194  -7.030  -4.547  0.00  0.00    +0.006 A 
ATOM     14  C   UNL     1       4.524  -7.300  -5.861  0.00  0.00    +0.023 A 
ATOM     15  C   UNL     1       5.851  -7.507  -6.213  0.00  0.00    +0.029 A 
ATOM     16  C   UNL     1       6.843  -7.442  -5.242  0.00  0.00    +0.023 A 
ATOM     17  C   UNL     1       6.506  -7.166  -3.931  0.00  0.00    +0.006 A 
BRANCH  15  18
ATOM     18  N   UNL     1       6.189  -7.780  -7.540  0.00  0.00    -0.336 N 
ATOM     19  C   UNL     1       5.135  -7.973  -8.540  0.00  0.00    +0.129 C 
ATOM     20  C   UNL     1       7.597  -7.875  -7.934  0.00  0.00    +0.129 C 
ENDBRANCH  15  18
ENDBRANCH   1  12
BRANCH   1  21
ATOM     21  C   UNL     1       4.127  -5.309  -2.070  0.00  0.00    +0.116 C 
BRANCH  21  24
ATOM     22  C   UNL     1       3.277  -3.806  -0.351  0.00  0.00    +0.231 C 
ATOM     23  O   UNL     1       2.938  -3.041  -1.229  0.00  0.00    -0.274 OA
ATOM     24  N   UNL     1       3.881  -4.969  -0.666  0.00  0.00    -0.313 N 
ATOM     25  H   UNL     1       4.152  -5.581   0.036  0.00  0.00    +0.149 HD
BRANCH  22  26
ATOM     26  C   UNL     1       3.023  -3.456   1.093  0.00  0.00    +0.213 C 
BRANCH  26  30
ATOM     27  C   UNL     1       0.803  -0.483   1.256  0.00  0.00    +0.110 C 
ATOM     28  C   UNL     1       1.024  -1.979   1.157  0.00  0.00    +0.247 C 
ATOM     29  O   UNL     1       0.176  -2.841   1.080  0.00  0.00    -0.273 OA
ATOM     30  N   UNL     1       2.361  -2.152   1.170  0.00  0.00    -0.215 N 
ATOM     31  C   UNL     1       3.008  -0.984   1.263  0.00  0.00    +0.310 C 
ATOM     32  O   UNL     1       4.219  -0.884   1.293  0.00  0.00    -0.252 OA
ATOM     33  N   UNL     1       2.169   0.065   1.320  0.00  0.00    -0.285 N 
ATOM     34  C   UNL     1       0.023  -0.134   2.525  0.00  0.00    +0.041 C 
ATOM     35  H   UNL     1       2.415   1.001   1.389  0.00  0.00    +0.151 HD
BRANCH  27  37
ATOM     36  C   UNL     1       0.068   1.567   0.031  0.00  0.00    +0.006 C 
ATOM     37  C   UNL     1       0.072   0.037   0.017  0.00  0.00    +0.031 C 
ENDBRANCH  27  37
ENDBRANCH  26  30
ENDBRANCH  22  26
ENDBRANCH  21  24
ENDBRANCH   1  21
TORSDOF 8
