REMARK  Name = ZINC06793322
REMARK  5 active torsions:
REMARK  status: ('A' for Active; 'I' for Inactive)
REMARK    1  A    between atoms: C_1  and  O_2
REMARK    2  A    between atoms: O_2  and  C_3
REMARK    3  A    between atoms: C_5  and  C_10
REMARK    4  A    between atoms: C_8  and  O_9
REMARK    5  A    between atoms: N_16  and  C_19
REMARK                            x       y       z     vdW  Elec       q    Type
REMARK                         _______ _______ _______ _____ _____    ______ ____
ROOT
ATOM      1  C   UNL     1       2.403   0.379  -4.230  0.00  0.00    +0.093 C 
ATOM      2  C   UNL     1       1.736   0.061  -5.539  0.00  0.00    +0.070 A 
ATOM      3  C   UNL     1       2.353  -0.677  -6.519  0.00  0.00    +0.125 A 
ATOM      4  N   UNL     1       1.493  -0.792  -7.567  0.00  0.00    -0.277 N 
ATOM      5  H   UNL     1       1.665  -1.265  -8.397  0.00  0.00    +0.189 HD
ATOM      6  N   UNL     1       0.314  -0.106  -7.235  0.00  0.00    -0.218 N 
ATOM      7  C   UNL     1       0.467   0.414  -5.997  0.00  0.00    +0.278 A 
ATOM      8  O   UNL     1      -0.358   1.073  -5.389  0.00  0.00    -0.265 OA
ATOM      9  N   UNL     1       3.628  -1.161  -6.355  0.00  0.00    -0.303 N 
ATOM     10  C   UNL     1       4.403  -0.651  -5.339  0.00  0.00    +0.017 C 
ATOM     11  C   UNL     1       3.882   0.071  -4.327  0.00  0.00    +0.024 C 
ATOM     12  C   UNL     1       4.704   0.577  -3.301  0.00  0.00    +0.162 C 
ATOM     13  O   UNL     1       4.206   1.243  -2.415  0.00  0.00    -0.292 OA
ATOM     14  C   UNL     1       6.183   0.311  -3.277  0.00  0.00    +0.080 C 
ATOM     15  C   UNL     1       6.459  -1.018  -3.990  0.00  0.00    +0.014 C 
ATOM     16  C   UNL     1       5.887  -0.930  -5.405  0.00  0.00    +0.051 C 
ATOM     17  H   UNL     1       3.975  -1.849  -6.944  0.00  0.00    +0.153 HD
ENDROOT
BRANCH   1  20
ATOM     18  C   UNL     1       0.606  -0.608  -1.056  0.00  0.00    +0.162 A 
ATOM     19  C   UNL     1       1.173   0.159  -2.062  0.00  0.00    +0.054 A 
ATOM     20  C   UNL     1       1.787  -0.456  -3.137  0.00  0.00    -0.032 A 
ATOM     21  C   UNL     1       1.837  -1.836  -3.212  0.00  0.00    +0.008 A 
ATOM     22  C   UNL     1       1.273  -2.606  -2.212  0.00  0.00    +0.049 A 
ATOM     23  C   UNL     1       0.662  -1.996  -1.129  0.00  0.00    +0.158 A 
BRANCH  18  25
ATOM     24  C   UNL     1      -0.017   1.425   0.010  0.00  0.00    +0.277 C 
ATOM     25  O   UNL     1       0.002  -0.004   0.002  0.00  0.00    -0.491 OA
ENDBRANCH  18  25
BRANCH  23  26
ATOM     26  O   UNL     1       0.112  -2.753  -0.142  0.00  0.00    -0.503 OA
ATOM     27  H   UNL     1      -0.816  -2.979  -0.291  0.00  0.00    +0.292 HD
ENDBRANCH  23  26
ENDBRANCH   1  20
BRANCH   6  28
ATOM     28  C   UNL     1      -0.820   0.018  -8.044  0.00  0.00    +0.067 A 
ATOM     29  C   UNL     1      -1.922   0.733  -7.593  0.00  0.00    +0.028 A 
ATOM     30  C   UNL     1      -3.041   0.854  -8.394  0.00  0.00    +0.002 A 
ATOM     31  C   UNL     1      -3.064   0.263  -9.644  0.00  0.00    +0.000 A 
ATOM     32  C   UNL     1      -1.969  -0.450 -10.096  0.00  0.00    +0.002 A 
ATOM     33  C   UNL     1      -0.845  -0.570  -9.302  0.00  0.00    +0.028 A 
ENDBRANCH   6  28
TORSDOF 4
