REMARK  Name = ZINC04222352
REMARK  14 active torsions:
REMARK  status: ('A' for Active; 'I' for Inactive)
REMARK    1  A    between atoms: C_1  and  C_2
REMARK    2  A    between atoms: C_5  and  O_40
REMARK    3  A    between atoms: C_7  and  C_37
REMARK    4  A    between atoms: C_7  and  C_38
REMARK    5  A    between atoms: C_17  and  C_19
REMARK    6  A    between atoms: C_19  and  C_20
REMARK    7  A    between atoms: C_19  and  C_21
REMARK    8  A    between atoms: C_19  and  C_22
REMARK    9  A    between atoms: C_23  and  C_25
REMARK   10  A    between atoms: C_25  and  C_26
REMARK   11  A    between atoms: N_28  and  C_29
REMARK   12  A    between atoms: N_28  and  C_30
REMARK   13  A    between atoms: C_30  and  C_31
REMARK   14  A    between atoms: C_38  and  O_39
REMARK                            x       y       z     vdW  Elec       q    Type
REMARK                         _______ _______ _______ _____ _____    ______ ____
ROOT
ATOM      1  C   UNL     1       6.014   3.948  -5.414  0.00  0.00    +0.012 C 
ATOM      2  C   UNL     1       5.507   2.540  -5.099  0.00  0.00    -0.019 C 
ATOM      3  C   UNL     1       4.106   2.345  -5.688  0.00  0.00    +0.010 C 
ATOM      4  C   UNL     1       4.147   2.460  -7.210  0.00  0.00    +0.032 C 
ATOM      5  C   UNL     1       5.069   1.368  -7.761  0.00  0.00    +0.123 C 
ATOM      6  C   UNL     1       6.476   1.590  -7.212  0.00  0.00    +0.021 C 
ATOM      7  C   UNL     1       6.471   1.505  -5.683  0.00  0.00    +0.011 C 
ATOM      8  C   UNL     1       7.900   1.826  -5.203  0.00  0.00    +0.049 C 
ATOM      9  C   UNL     1       7.871   2.097  -3.740  0.00  0.00    +0.015 A 
ATOM     10  C   UNL     1       6.785   2.344  -2.963  0.00  0.00    +0.058 A 
ATOM     11  N   UNL     1       7.029   2.559  -1.673  0.00  0.00    -0.229 NA
ATOM     12  C   UNL     1       8.247   2.534  -1.174  0.00  0.00    +0.165 A 
ATOM     13  S   UNL     1       9.208   2.182  -2.580  0.00  0.00    -0.057 S 
ATOM     14  N   UNL     1       8.659   2.736   0.138  0.00  0.00    -0.264 N 
ATOM     15  C   UNL     1       9.969   2.668   0.451  0.00  0.00    +0.224 C 
ATOM     16  O   UNL     1      10.787   2.430  -0.412  0.00  0.00    -0.275 OA
ATOM     17  C   UNL     1       5.394   2.361  -3.579  0.00  0.00    +0.054 C 
ATOM     18  C   UNL     1       7.414   0.521  -7.775  0.00  0.00    +0.016 C 
ATOM     19  H   UNL     1       8.005   2.926   0.828  0.00  0.00    +0.157 HD
ENDROOT
BRANCH  15  20
ATOM     20  C   UNL     1      10.415   2.886   1.873  0.00  0.00    +0.039 C 
ATOM     21  C   UNL     1      11.938   2.755   1.956  0.00  0.00    +0.020 C 
ATOM     22  C   UNL     1       9.999   4.286   2.329  0.00  0.00    +0.020 C 
ATOM     23  C   UNL     1       9.764   1.840   2.780  0.00  0.00    +0.020 C 
ENDBRANCH  15  20
BRANCH   5  24
ATOM     24  O   UNL     1       5.094   1.438  -9.188  0.00  0.00    -0.391 OA
ATOM     25  H   UNL     1       4.230   1.317  -9.604  0.00  0.00    +0.210 HD
ENDBRANCH   5  24
BRANCH  17  26
ATOM     26  C   UNL     1       4.590   3.521  -2.988  0.00  0.00    +0.106 C 
BRANCH  26  27
ATOM     27  C   UNL     1       4.313   3.250  -1.531  0.00  0.00    +0.216 C 
ATOM     28  O   UNL     1       4.719   2.229  -1.017  0.00  0.00    -0.276 OA
ATOM     29  N   UNL     1       3.615   4.141  -0.801  0.00  0.00    -0.300 N 
ATOM     30  C   UNL     1       3.125   5.374  -1.422  0.00  0.00    +0.132 C 
BRANCH  29  31
ATOM     31  C   UNL     1       3.346   3.877   0.615  0.00  0.00    +0.142 C 
BRANCH  31  32
ATOM     32  C   UNL     1       2.045   3.128   0.748  0.00  0.00    -0.030 A 
ATOM     33  C   UNL     1       2.037   1.746   0.727  0.00  0.00    +0.005 A 
ATOM     34  C   UNL     1       0.844   1.059   0.849  0.00  0.00    +0.000 A 
ATOM     35  C   UNL     1      -0.343   1.755   0.985  0.00  0.00    +0.000 A 
ATOM     36  C   UNL     1      -0.335   3.137   1.012  0.00  0.00    +0.000 A 
ATOM     37  C   UNL     1       0.858   3.824   0.890  0.00  0.00    +0.005 A 
ENDBRANCH  31  32
ENDBRANCH  29  31
ENDBRANCH  26  27
ENDBRANCH  17  26
BRANCH   6  38
ATOM     38  C   UNL     1       6.975   2.972  -7.640  0.00  0.00    +0.165 C 
BRANCH  38  39
ATOM     39  O   UNL     1       7.136   3.002  -9.059  0.00  0.00    -0.394 OA
ATOM     40  H   UNL     1       7.451   3.850  -9.402  0.00  0.00    +0.209 HD
ENDBRANCH  38  39
ENDBRANCH   6  38
TORSDOF 8
