REMARK  Name = ZINC39996962
REMARK  7 active torsions:
REMARK  status: ('A' for Active; 'I' for Inactive)
REMARK    1  A    between atoms: C_1  and  C_2
REMARK    2  A    between atoms: C_4  and  C_12
REMARK    3  A    between atoms: C_12  and  C_14
REMARK    4  A    between atoms: C_14  and  C_16
REMARK    5  A    between atoms: C_14  and  S_17
REMARK    6  A    between atoms: S_17  and  C_18
REMARK    7  A    between atoms: C_22  and  N_24
REMARK                            x       y       z     vdW  Elec       q    Type
REMARK                         _______ _______ _______ _____ _____    ______ ____
ROOT
ATOM      1  C   UNL     1       1.283  -0.772  -3.678  0.00  0.00    +0.122 C 
ATOM      2  C   UNL     1       2.444   0.209  -3.856  0.00  0.00    +0.028 C 
ENDROOT
BRANCH   1   3
ATOM      3  C   UNL     1       0.379  -0.286  -2.575  0.00  0.00    +0.175 C 
ATOM      4  O   UNL     1      -0.603   0.377  -2.843  0.00  0.00    -0.291 OA
BRANCH   3   7
ATOM      5  C   UNL     1      -0.379   1.207   0.131  0.00  0.00    +0.035 C 
ATOM      6  C   UNL     1      -0.178  -0.303  -0.015  0.00  0.00    +0.111 C 
ATOM      7  C   UNL     1       0.673  -0.599  -1.231  0.00  0.00    +0.027 C 
ATOM      8  C   UNL     1       1.798  -1.243  -0.749  0.00  0.00    +0.006 A 
ATOM      9  C   UNL     1       2.951  -1.768  -1.380  0.00  0.00    +0.010 A 
ATOM     10  C   UNL     1       3.919  -2.361  -0.646  0.00  0.00    +0.001 A 
ATOM     11  C   UNL     1       3.837  -2.485   0.750  0.00  0.00    +0.002 A 
ATOM     12  C   UNL     1       2.779  -2.018   1.448  0.00  0.00    +0.026 A 
ATOM     13  C   UNL     1       1.679  -1.358   0.725  0.00  0.00    +0.043 A 
ATOM     14  N   UNL     1       0.562  -0.827   1.137  0.00  0.00    -0.377 N 
ATOM     15  H   UNL     1       0.267  -0.785   2.060  0.00  0.00    +0.160 HD
ENDBRANCH   3   7
ENDBRANCH   1   3
BRANCH   1  16
ATOM     16  S   UNL     1       0.344  -0.885  -5.225  0.00  0.00    -0.075 S 
BRANCH  16  17
ATOM     17  C   UNL     1       1.483  -1.598  -6.365  0.00  0.00    +0.192 A 
ATOM     18  N   UNL     1       2.703  -1.907  -5.949  0.00  0.00    -0.207 NA
ATOM     19  C   UNL     1       3.589  -2.448  -6.782  0.00  0.00    +0.122 A 
ATOM     20  C   UNL     1       3.220  -2.688  -8.103  0.00  0.00    +0.086 A 
ATOM     21  C   UNL     1       1.931  -2.350  -8.502  0.00  0.00    +0.122 A 
ATOM     22  N   UNL     1       1.096  -1.817  -7.613  0.00  0.00    -0.207 NA
ATOM     23  N   UNL     1       4.864  -2.768  -6.340  0.00  0.00    -0.343 N 
ATOM     24  H   UNL     1       5.114  -2.598  -5.418  0.00  0.00    +0.144 HD
ATOM     25  H   UNL     1       5.505  -3.162  -6.952  0.00  0.00    +0.144 HD
BRANCH  21  26
ATOM     26  N   UNL     1       1.519  -2.570  -9.807  0.00  0.00    -0.343 N 
ATOM     27  H   UNL     1       2.132  -2.962 -10.449  0.00  0.00    +0.144 HD
ATOM     28  H   UNL     1       0.619  -2.332 -10.079  0.00  0.00    +0.144 HD
ENDBRANCH  21  26
ENDBRANCH  16  17
ENDBRANCH   1  16
TORSDOF 5
