REMARK  Name = ZINC09476764
REMARK  9 active torsions:
REMARK  status: ('A' for Active; 'I' for Inactive)
REMARK    1  A    between atoms: C_1  and  C_2
REMARK    2  A    between atoms: C_2  and  O_3
REMARK    3  A    between atoms: O_3  and  C_4
REMARK    4  A    between atoms: C_4  and  C_6
REMARK    5  A    between atoms: C_7  and  C_15
REMARK    6  A    between atoms: C_12  and  C_14
REMARK    7  A    between atoms: C_15  and  S_16
REMARK    8  A    between atoms: S_16  and  C_17
REMARK    9  A    between atoms: C_24  and  C_27
REMARK                            x       y       z     vdW  Elec       q    Type
REMARK                         _______ _______ _______ _____ _____    ______ ____
ROOT
ATOM      1  S   UNL     1       0.594  -2.123  -0.296  0.00  0.00    -0.098 S 
ENDROOT
BRANCH   1   2
ATOM      2  C   UNL     1       0.338  -0.394  -0.526  0.00  0.00    +0.127 A 
ATOM      3  C   UNL     1       1.443   0.475  -0.680  0.00  0.00    +0.018 A 
ATOM      4  C   UNL     1       2.768   0.030  -0.659  0.00  0.00    +0.011 A 
ATOM      5  C   UNL     1       3.780   0.932  -0.814  0.00  0.00    +0.001 A 
ATOM      6  C   UNL     1       3.514   2.287  -0.993  0.00  0.00    +0.001 A 
ATOM      7  C   UNL     1       2.231   2.753  -1.019  0.00  0.00    +0.011 A 
ATOM      8  C   UNL     1       1.173   1.855  -0.862  0.00  0.00    +0.012 A 
ATOM      9  C   UNL     1      -0.228   2.269  -0.877  0.00  0.00    +0.101 A 
ATOM     10  N   UNL     1      -1.157   1.339  -0.721  0.00  0.00    -0.148 NA
ATOM     11  N   UNL     1      -0.887   0.099  -0.558  0.00  0.00    -0.142 NA
BRANCH   9  12
ATOM     12  C   UNL     1      -0.599   3.690  -1.063  0.00  0.00    +0.003 A 
ATOM     13  C   UNL     1      -1.640   4.245  -0.319  0.00  0.00    +0.013 A 
ATOM     14  C   UNL     1      -1.978   5.571  -0.492  0.00  0.00    +0.039 A 
ATOM     15  C   UNL     1      -1.293   6.349  -1.412  0.00  0.00    +0.123 A 
ATOM     16  C   UNL     1      -0.261   5.801  -2.157  0.00  0.00    +0.039 A 
ATOM     17  C   UNL     1       0.088   4.478  -1.988  0.00  0.00    +0.013 A 
ATOM     18  F   UNL     1      -1.632   7.646  -1.582  0.00  0.00    -0.205 F 
ENDBRANCH   9  12
ENDBRANCH   1   2
BRANCH   1  19
ATOM     19  C   UNL     1      -1.124  -2.680  -0.168  0.00  0.00    +0.127 C 
BRANCH  19  21
ATOM     20  C   UNL     1      -1.173  -4.669   1.294  0.00  0.00    +0.074 C 
ATOM     21  C   UNL     1      -1.154  -4.172   0.039  0.00  0.00    +0.034 C 
ATOM     22  N   UNL     1      -1.166  -5.000  -1.047  0.00  0.00    -0.272 N 
ATOM     23  C   UNL     1      -1.188  -6.337  -0.961  0.00  0.00    +0.304 C 
ATOM     24  O   UNL     1      -1.192  -6.991  -1.986  0.00  0.00    -0.253 OA
ATOM     25  N   UNL     1      -1.209  -6.979   0.223  0.00  0.00    -0.292 N 
ATOM     26  C   UNL     1      -1.203  -6.175   1.457  0.00  0.00    +0.110 C 
ATOM     27  C   UNL     1       0.019  -6.585   2.280  0.00  0.00    +0.033 C 
ATOM     28  H   UNL     1      -1.156  -4.598  -1.930  0.00  0.00    +0.156 HD
ATOM     29  H   UNL     1      -1.228  -7.948   0.262  0.00  0.00    +0.151 HD
BRANCH  20  30
ATOM     30  C   UNL     1      -1.165  -3.812   2.420  0.00  0.00    +0.338 C 
ATOM     31  O   UNL     1      -1.012  -2.614   2.272  0.00  0.00    -0.245 OA
BRANCH  30  32
ATOM     32  O   UNL     1      -1.329  -4.323   3.658  0.00  0.00    -0.462 OA
BRANCH  32  34
ATOM     33  C   UNL     1      -1.510  -4.158   6.062  0.00  0.00    +0.048 C 
ATOM     34  C   UNL     1      -1.311  -3.400   4.749  0.00  0.00    +0.229 C 
ENDBRANCH  32  34
ENDBRANCH  30  32
ENDBRANCH  20  30
ENDBRANCH  19  21
ENDBRANCH   1  19
TORSDOF 7
