REMARK  Name = ZINC63557089
REMARK  8 active torsions:
REMARK  status: ('A' for Active; 'I' for Inactive)
REMARK    1  A    between atoms: C_1  and  C_2
REMARK    2  A    between atoms: C_2  and  C_3
REMARK    3  A    between atoms: C_2  and  C_4
REMARK    4  A    between atoms: C_7  and  N_10
REMARK    5  A    between atoms: C_11  and  C_13
REMARK    6  A    between atoms: N_18  and  C_20
REMARK    7  A    between atoms: C_20  and  C_21
REMARK    8  A    between atoms: C_21  and  C_22
REMARK                            x       y       z     vdW  Elec       q    Type
REMARK                         _______ _______ _______ _____ _____    ______ ____
ROOT
ATOM      1  C   UNL     1       4.579  -2.901  -5.799  0.00  0.00    +0.101 C 
ATOM      2  C   UNL     1       5.078  -1.649  -6.557  0.00  0.00    +0.110 C 
ATOM      3  C   UNL     1       6.438  -2.051  -7.083  0.00  0.00    +0.216 C 
ATOM      4  O   UNL     1       7.045  -1.468  -7.957  0.00  0.00    -0.276 OA
ATOM      5  N   UNL     1       6.876  -3.148  -6.442  0.00  0.00    -0.300 N 
ATOM      6  C   UNL     1       5.908  -3.600  -5.435  0.00  0.00    +0.121 C 
ENDROOT
BRANCH   1   8
ATOM      7  N   UNL     1       2.657  -1.834  -4.665  0.00  0.00    -0.285 N 
ATOM      8  C   UNL     1       3.817  -2.513  -4.559  0.00  0.00    +0.222 C 
ATOM      9  O   UNL     1       4.246  -2.811  -3.465  0.00  0.00    -0.275 OA
ATOM     10  H   UNL     1       2.280  -1.653  -5.541  0.00  0.00    +0.155 HD
BRANCH   7  14
ATOM     11  C   UNL     1       0.698  -0.508  -1.236  0.00  0.00    -0.045 A 
ATOM     12  C   UNL     1       1.379  -1.712  -1.220  0.00  0.00    +0.006 A 
ATOM     13  C   UNL     1       2.030  -2.154  -2.355  0.00  0.00    +0.023 A 
ATOM     14  C   UNL     1       1.999  -1.389  -3.514  0.00  0.00    +0.033 A 
ATOM     15  C   UNL     1       1.313  -0.181  -3.527  0.00  0.00    +0.023 A 
ATOM     16  C   UNL     1       0.660   0.253  -2.390  0.00  0.00    +0.006 A 
BRANCH  11  18
ATOM     17  C   UNL     1      -1.069  -1.055   0.415  0.00  0.00    +0.012 C 
ATOM     18  C   UNL     1      -0.011  -0.029   0.004  0.00  0.00    +0.013 C 
ATOM     19  C   UNL     1       1.002   0.141   1.137  0.00  0.00    +0.012 C 
ENDBRANCH  11  18
ENDBRANCH   7  14
ENDBRANCH   1   8
BRANCH   5  20
ATOM     20  C   UNL     1       8.156  -3.808  -6.713  0.00  0.00    +0.112 C 
BRANCH  20  21
ATOM     21  C   UNL     1       9.241  -3.205  -5.819  0.00  0.00    +0.052 C 
BRANCH  21  22
ATOM     22  C   UNL     1      10.556  -3.885  -6.098  0.00  0.00    -0.040 C 
ATOM     23  C   UNL     1      11.528  -3.461  -6.938  0.00  0.00    +0.000 A 
ATOM     24  C   UNL     1      11.646  -2.287  -7.811  0.00  0.00    +0.030 A 
ATOM     25  C   UNL     1      12.767  -2.130  -8.553  0.00  0.00    +0.042 A 
ATOM     26  C   UNL     1      13.816  -3.061  -8.509  0.00  0.00    +0.022 A 
ATOM     27  C   UNL     1      13.780  -4.164  -7.732  0.00  0.00    +0.027 A 
ATOM     28  C   UNL     1      12.649  -4.428  -6.910  0.00  0.00    +0.043 A 
ATOM     29  N   UNL     1      12.381  -5.411  -6.085  0.00  0.00    -0.380 N 
ATOM     30  C   UNL     1      11.061  -5.175  -5.491  0.00  0.00    +0.144 C 
ATOM     31 CL   UNL     1      12.910  -0.743  -9.586  0.00  0.00    -0.084 Cl
ATOM     32  H   UNL     1      12.960  -6.165  -5.896  0.00  0.00    +0.160 HD
ENDBRANCH  21  22
ENDBRANCH  20  21
ENDBRANCH   5  20
TORSDOF 6
