REMARK  Name = ZINC13064494
REMARK  16 active torsions:
REMARK  status: ('A' for Active; 'I' for Inactive)
REMARK    1  A    between atoms: C_1  and  C_2
REMARK    2  A    between atoms: C_2  and  C_3
REMARK    3  A    between atoms: C_3  and  C_5
REMARK    4  A    between atoms: C_3  and  N_76
REMARK    5  A    between atoms: N_9  and  C_10
REMARK    6  A    between atoms: C_10  and  C_11
REMARK    7  A    between atoms: C_10  and  C_12
REMARK    8  A    between atoms: C_10  and  C_13
REMARK    9  A    between atoms: C_13  and  C_14
REMARK   10  A    between atoms: C_15  and  C_16
REMARK   11  A    between atoms: C_15  and  N_76
REMARK   12  A    between atoms: C_20  and  O_30
REMARK   13  A    between atoms: C_21  and  O_28
REMARK   14  A    between atoms: O_28  and  C_29
REMARK   15  A    between atoms: O_30  and  C_31
REMARK   16  A    between atoms: C_32  and  N_76
REMARK                            x       y       z     vdW  Elec       q    Type
REMARK                         _______ _______ _______ _____ _____    ______ ____
ROOT
ATOM      1  N   UNL     1      -5.210   4.347  -1.147  0.00  0.00    +0.391 N 
ATOM      2  H   UNL     1      -4.526   5.045  -1.464  0.00  0.00    -0.080 HD
ENDROOT
BRANCH   1   3
ATOM      3  C   UNL     1      -4.875   3.039  -1.749  0.00  0.00    -0.067 C 
ATOM      4  C   UNL     1      -4.718   3.217  -3.260  0.00  0.00    -0.015 C 
ATOM      5  C   UNL     1      -4.350   1.875  -3.896  0.00  0.00    -0.002 C 
ATOM      6  C   UNL     1      -5.456   0.856  -3.614  0.00  0.00    -0.000 C 
ATOM      7  C   UNL     1      -5.613   0.679  -2.103  0.00  0.00    -0.002 C 
ATOM      8  C   UNL     1      -5.982   2.021  -1.467  0.00  0.00    -0.015 C 
ENDBRANCH   1   3
BRANCH   1   9
ATOM      9  C   UNL     1      -6.560   4.769  -1.575  0.00  0.00    +0.003 C 
BRANCH   9  10
ATOM     10  C   UNL     1      -7.616   4.037  -0.788  0.00  0.00    +0.139 A 
ATOM     11  N   UNL     1      -7.548   3.685   0.473  0.00  0.00    -0.115 NA
ATOM     12  N   UNL     1      -8.645   3.081   0.777  0.00  0.00    -0.023 NA
ATOM     13  N   UNL     1      -9.411   3.039  -0.257  0.00  0.00    -0.043 NA
ATOM     14  N   UNL     1      -8.814   3.623  -1.241  0.00  0.00    -0.225 N 
BRANCH  14  15
ATOM     15  C   UNL     1      -9.339   3.799  -2.597  0.00  0.00    +0.061 C 
ATOM     16  C   UNL     1      -9.261   5.276  -2.987  0.00  0.00    +0.036 C 
ATOM     17  C   UNL     1      -8.510   2.967  -3.577  0.00  0.00    +0.036 C 
BRANCH  15  18
ATOM     18  C   UNL     1     -10.797   3.336  -2.642  0.00  0.00    +0.026 C 
ATOM     19  C   UNL     1     -11.346   3.519  -4.059  0.00  0.00    +0.006 C 
ENDBRANCH  15  18
ENDBRANCH  14  15
ENDBRANCH   9  10
BRANCH   9  21
ATOM     20  C   UNL     1      -5.717   7.025  -2.240  0.00  0.00    +0.002 C 
ATOM     21  C   UNL     1      -6.701   6.275  -1.340  0.00  0.00    -0.011 C 
ENDBRANCH   9  21
ENDBRANCH   1   9
BRANCH   1  22
ATOM     22  C   UNL     1      -5.153   4.255   0.327  0.00  0.00    -0.036 C 
BRANCH  22  23
ATOM     23  C   UNL     1      -3.711   4.314   0.758  0.00  0.00    +0.001 A 
ATOM     24  C   UNL     1      -3.152   5.506   1.090  0.00  0.00    +0.017 A 
ATOM     25  C   UNL     1      -1.750   5.530   1.505  0.00  0.00    +0.002 A 
ATOM     26  C   UNL     1      -1.122   6.731   1.858  0.00  0.00    +0.059 A 
ATOM     27  C   UNL     1       0.200   6.721   2.244  0.00  0.00    +0.162 A 
ATOM     28  C   UNL     1       0.913   5.518   2.286  0.00  0.00    +0.163 A 
ATOM     29  C   UNL     1       0.303   4.327   1.940  0.00  0.00    +0.075 A 
ATOM     30  C   UNL     1      -1.028   4.321   1.542  0.00  0.00    +0.053 A 
ATOM     31  N   UNL     1      -1.657   3.141   1.198  0.00  0.00    -0.322 N 
ATOM     32  H   UNL     1      -1.161   2.309   1.227  0.00  0.00    +0.169 HD
ATOM     33  C   UNL     1      -2.947   3.131   0.817  0.00  0.00    +0.251 A 
ATOM     34  O   UNL     1      -3.468   2.071   0.515  0.00  0.00    -0.268 OA
BRANCH  28  35
ATOM     35  O   UNL     1       2.216   5.521   2.670  0.00  0.00    -0.491 OA
ATOM     36  C   UNL     1       2.889   4.260   2.691  0.00  0.00    +0.277 C 
ENDBRANCH  28  35
BRANCH  27  37
ATOM     37  O   UNL     1       0.814   7.885   2.587  0.00  0.00    -0.491 OA
ATOM     38  C   UNL     1       0.028   9.077   2.523  0.00  0.00    +0.277 C 
ENDBRANCH  27  37
ENDBRANCH  22  23
ENDBRANCH   1  22
TORSDOF 10
