REMARK  Name = ZINC12613640
REMARK  4 active torsions:
REMARK  status: ('A' for Active; 'I' for Inactive)
REMARK    1  A    between atoms: C_7  and  C_16
REMARK    2  A    between atoms: C_8  and  C_11
REMARK    3  A    between atoms: C_16  and  C_17
REMARK    4  A    between atoms: N_19  and  N_20
REMARK                            x       y       z     vdW  Elec       q    Type
REMARK                         _______ _______ _______ _____ _____    ______ ____
ROOT
ATOM      1  C   UNL     1      -4.047   4.131  -1.070  0.00  0.00    +0.234 C 
ATOM      2  O   UNL     1      -4.239   4.311   0.114  0.00  0.00    -0.274 OA
ATOM      3  N   UNL     1      -4.899   3.368  -1.783  0.00  0.00    -0.223 N 
ATOM      4  H   UNL     1      -4.745   3.224  -2.730  0.00  0.00    +0.174 HD
ENDROOT
BRANCH   3   5
ATOM      5  N   UNL     1      -6.007   2.783  -1.156  0.00  0.00    -0.137 N 
ATOM      6  C   UNL     1      -7.276   3.219  -1.296  0.00  0.00    +0.263 C 
ATOM      7  O   UNL     1      -7.660   4.156  -1.962  0.00  0.00    -0.271 OA
ATOM      8  C   UNL     1      -8.117   2.294  -0.447  0.00  0.00    +0.114 C 
ATOM      9  C   UNL     1      -9.129   1.552  -1.313  0.00  0.00    +0.035 C 
ATOM     10  C   UNL     1      -9.951   0.600  -0.440  0.00  0.00    +0.003 C 
ATOM     11  C   UNL     1     -10.674   1.401   0.645  0.00  0.00    +0.000 C 
ATOM     12  C   UNL     1      -9.645   2.119   1.520  0.00  0.00    +0.003 C 
ATOM     13  C   UNL     1      -8.821   3.077   0.655  0.00  0.00    +0.035 C 
ATOM     14  N   UNL     1      -7.145   1.355   0.128  0.00  0.00    -0.284 N 
ATOM     15  C   UNL     1      -5.938   1.717  -0.348  0.00  0.00    +0.326 C 
ATOM     16  O   UNL     1      -4.903   1.143  -0.073  0.00  0.00    -0.251 OA
ATOM     17  H   UNL     1      -7.335   0.618   0.729  0.00  0.00    +0.151 HD
ENDBRANCH   3   5
BRANCH   1  18
ATOM     18  C   UNL     1      -2.855   4.761  -1.745  0.00  0.00    +0.135 C 
BRANCH  18  25
ATOM     19  C   UNL     1      -3.062   9.217  -0.327  0.00  0.00    +0.001 A 
ATOM     20  C   UNL     1      -2.121   9.522   0.647  0.00  0.00    +0.002 A 
ATOM     21  C   UNL     1      -1.246   8.561   1.105  0.00  0.00    +0.026 A 
ATOM     22  C   UNL     1      -1.302   7.271   0.587  0.00  0.00    +0.047 A 
ATOM     23  C   UNL     1      -2.258   6.966  -0.401  0.00  0.00    +0.004 A 
ATOM     24  C   UNL     1      -3.136   7.958  -0.850  0.00  0.00    +0.010 A 
ATOM     25  C   UNL     1      -2.069   5.556  -0.735  0.00  0.00    -0.005 A 
ATOM     26  C   UNL     1      -1.048   5.100   0.038  0.00  0.00    +0.058 A 
ATOM     27  N   UNL     1      -0.586   6.120   0.838  0.00  0.00    -0.354 N 
ATOM     28  H   UNL     1       0.137   6.042   1.481  0.00  0.00    +0.166 HD
BRANCH  26  29
ATOM     29  C   UNL     1      -0.523   3.725   0.026  0.00  0.00    +0.036 A 
ATOM     30  C   UNL     1       0.781   3.297   0.012  0.00  0.00    +0.017 A 
ATOM     31  C   UNL     1       1.032   1.944   0.003  0.00  0.00    +0.008 A 
ATOM     32  C   UNL     1      -0.013   1.076   0.008  0.00  0.00    +0.046 A 
ATOM     33  S   UNL     1      -1.416   2.179   0.019  0.00  0.00    -0.095 S 
ENDBRANCH  26  29
ENDBRANCH  18  25
ENDBRANCH   1  18
TORSDOF 4
