REMARK  Name = ZINC33306661
REMARK  9 active torsions:
REMARK  status: ('A' for Active; 'I' for Inactive)
REMARK    1  A    between atoms: C_1  and  C_2
REMARK    2  A    between atoms: C_7  and  N_8
REMARK    3  A    between atoms: N_8  and  S_9
REMARK    4  A    between atoms: S_9  and  C_12
REMARK    5  A    between atoms: C_15  and  C_17
REMARK    6  A    between atoms: C_18  and  C_19
REMARK    7  A    between atoms: C_20  and  N_25
REMARK    8  A    between atoms: C_21  and  C_24
REMARK    9  A    between atoms: C_26  and  C_28
REMARK                            x       y       z     vdW  Elec       q    Type
REMARK                         _______ _______ _______ _____ _____    ______ ____
ROOT
ATOM      1  C   UNL     1      -2.106   2.471   2.646  0.00  0.00    +0.146 A 
ATOM      2  C   UNL     1      -3.040   2.715   3.603  0.00  0.00    +0.037 A 
ATOM      3  C   UNL     1      -2.743   2.445   4.918  0.00  0.00    +0.017 A 
ATOM      4  C   UNL     1      -1.487   1.941   5.219  0.00  0.00    +0.014 A 
ATOM      5  S   UNL     1      -0.734   1.848   3.603  0.00  0.00    -0.069 S 
ENDROOT
BRANCH   1   6
ATOM      6  S   UNL     1      -2.218   2.716   0.905  0.00  0.00    +0.079 S 
ATOM      7  O   UNL     1      -3.600   2.679   0.578  0.00  0.00    -0.149 OA
ATOM      8  O   UNL     1      -1.271   1.839   0.310  0.00  0.00    -0.149 OA
BRANCH   6   9
ATOM      9  N   UNL     1      -1.699   4.257   0.592  0.00  0.00    -0.216 N 
ATOM     10  H   UNL     1      -2.375   4.977   0.109  0.00  0.00    +0.174 HD
BRANCH   9  17
ATOM     11  C   UNL     1      -1.290   6.918   1.510  0.00  0.00    +0.046 C 
ATOM     12  C   UNL     1      -0.157   5.931   1.395  0.00  0.00    -0.025 A 
ATOM     13  C   UNL     1       1.127   6.311   1.735  0.00  0.00    +0.043 A 
ATOM     14  C   UNL     1       2.169   5.406   1.630  0.00  0.00    +0.124 A 
ATOM     15  C   UNL     1       1.927   4.117   1.184  0.00  0.00    +0.040 A 
ATOM     16  C   UNL     1       0.645   3.733   0.843  0.00  0.00    +0.027 A 
ATOM     17  C   UNL     1      -0.401   4.642   0.943  0.00  0.00    +0.051 A 
ATOM     18  F   UNL     1       3.424   5.779   1.963  0.00  0.00    -0.205 F 
ENDBRANCH   9  17
ENDBRANCH   6   9
ENDBRANCH   1   6
BRANCH   4  19
ATOM     19  C   UNL     1      -0.925   1.581   6.521  0.00  0.00    +0.019 C 
ATOM     20  C   UNL     1       0.337   1.101   6.603  0.00  0.00    +0.052 C 
BRANCH  20  21
ATOM     21  C   UNL     1       0.898   0.741   7.904  0.00  0.00    +0.182 A 
ATOM     22  C   UNL     1       2.166   0.240   8.139  0.00  0.00    +0.103 A 
ATOM     23  C   UNL     1       2.290   0.034   9.523  0.00  0.00    +0.102 A 
ATOM     24  N   UNL     1       1.172   0.385  10.095  0.00  0.00    -0.081 NA
ATOM     25  O   UNL     1       0.277   0.840   9.098  0.00  0.00    -0.353 OA
ATOM     26  C   UNL     1       3.510  -0.503  10.228  0.00  0.00    +0.071 C 
BRANCH  22  27
ATOM     27  N   UNL     1       3.149  -0.014   7.172  0.00  0.00    -0.281 N 
ATOM     28  C   UNL     1       4.453   0.103   7.490  0.00  0.00    +0.220 C 
ATOM     29  O   UNL     1       4.776   0.512   8.585  0.00  0.00    -0.275 OA
ATOM     30  H   UNL     1       2.856  -0.308   6.153  0.00  0.00    +0.155 HD
BRANCH  28  31
ATOM     31  C   UNL     1       5.511  -0.274   6.485  0.00  0.00    +0.075 C 
ATOM     32  C   UNL     1       6.357  -1.514   6.781  0.00  0.00    +0.013 C 
ATOM     33  C   UNL     1       6.973  -0.119   6.906  0.00  0.00    +0.013 C 
ENDBRANCH  28  31
ENDBRANCH  22  27
ENDBRANCH  20  21
ENDBRANCH   4  19
TORSDOF 7
