REMARK  Name = ZINC59417525
REMARK  3 active torsions:
REMARK  status: ('A' for Active; 'I' for Inactive)
REMARK    1  A    between atoms: C_5  and  C_7
REMARK    2  A    between atoms: N_9  and  N_10
REMARK    3  A    between atoms: C_16  and  N_20
REMARK                            x       y       z     vdW  Elec       q    Type
REMARK                         _______ _______ _______ _____ _____    ______ ____
ROOT
ATOM      1  N   UNL     1       0.121  -4.257  -0.022  0.00  0.00    -0.242 N 
ATOM      2  C   UNL     1      -1.061  -4.969  -0.014  0.00  0.00    +0.176 A 
ATOM      3  N   UNL     1      -2.294  -4.518  -0.005  0.00  0.00    -0.224 NA
ATOM      4  C   UNL     1      -3.367  -5.339   0.002  0.00  0.00    +0.080 A 
ATOM      5  C   UNL     1      -4.736  -4.987   0.013  0.00  0.00    +0.031 A 
ATOM      6  C   UNL     1      -5.708  -5.953   0.020  0.00  0.00    +0.035 A 
ATOM      7  C   UNL     1      -5.388  -7.303   0.017  0.00  0.00    +0.127 A 
ATOM      8  C   UNL     1      -4.059  -7.683   0.006  0.00  0.00    +0.050 A 
ATOM      9  C   UNL     1      -3.079  -6.723  -0.001  0.00  0.00    +0.043 A 
ATOM     10  S   UNL     1      -1.302  -6.739  -0.022  0.00  0.00    -0.051 S 
ATOM     11  H   UNL     1       0.970  -4.726  -0.034  0.00  0.00    +0.172 HD
ENDROOT
BRANCH   1  14
ATOM     12  C   UNL     1       1.250  -2.160  -0.022  0.00  0.00    +0.261 C 
ATOM     13  O   UNL     1       2.313  -2.748  -0.036  0.00  0.00    -0.269 OA
ATOM     14  N   UNL     1       0.095  -2.856  -0.014  0.00  0.00    -0.231 N 
ATOM     15  H   UNL     1      -0.754  -2.387  -0.003  0.00  0.00    +0.173 HD
BRANCH  12  20
ATOM     16  C   UNL     1      -0.017   1.375   0.010  0.00  0.00    +0.001 A 
ATOM     17  C   UNL     1       1.170   2.087   0.002  0.00  0.00    +0.001 A 
ATOM     18  C   UNL     1       2.383   1.422  -0.013  0.00  0.00    +0.016 A 
ATOM     19  C   UNL     1       2.417   0.041  -0.021  0.00  0.00    +0.030 A 
ATOM     20  C   UNL     1       1.222  -0.683  -0.013  0.00  0.00    +0.052 A 
ATOM     21  C   UNL     1       0.002  -0.004   0.002  0.00  0.00    +0.014 A 
ATOM     22 BR   UNL     1       4.075  -0.867  -0.043  0.00  0.00    -0.050 Br
ENDBRANCH  12  20
ENDBRANCH   1  14
BRANCH   7  23
ATOM     23  N   UNL     1      -6.459  -8.325   0.025  0.00  0.00    +0.056 N 
ATOM     24  O   UNL     1      -7.619  -7.985   0.035  0.00  0.00    -0.126 OA
ATOM     25  O   UNL     1      -6.173  -9.500   0.023  0.00  0.00    -0.126 OA
ENDBRANCH   7  23
TORSDOF 3
