REMARK  Name = ZINC39689790
REMARK  8 active torsions:
REMARK  status: ('A' for Active; 'I' for Inactive)
REMARK    1  A    between atoms: C_1  and  N_2
REMARK    2  A    between atoms: C_5  and  C_8
REMARK    3  A    between atoms: C_8  and  N_9
REMARK    4  A    between atoms: C_10  and  C_12
REMARK    5  A    between atoms: C_23  and  C_25
REMARK    6  A    between atoms: C_31  and  O_33
REMARK    7  A    between atoms: O_33  and  C_34
REMARK    8  A    between atoms: C_34  and  C_35
REMARK                            x       y       z     vdW  Elec       q    Type
REMARK                         _______ _______ _______ _____ _____    ______ ____
ROOT
ATOM      1  C   UNL     1      -1.062  -5.644   4.361  0.00  0.00    +0.100 C 
ATOM      2  C   UNL     1      -2.506  -5.801   3.834  0.00  0.00    +0.121 C 
ATOM      3  N   UNL     1      -3.139  -6.770   4.760  0.00  0.00    -0.300 N 
ATOM      4  C   UNL     1      -2.617  -6.397   6.096  0.00  0.00    +0.115 C 
ATOM      5  C   UNL     1      -1.140  -6.035   5.846  0.00  0.00    -0.004 C 
ATOM      6  C   UNL     1      -0.730  -4.857   6.725  0.00  0.00    -0.010 C 
ATOM      7  C   UNL     1      -0.758  -5.288   8.194  0.00  0.00    -0.082 C 
ATOM      8  N   UNL     1       0.160  -6.415   8.393  0.00  0.00    +0.379 N 
ATOM      9  C   UNL     1      -0.294  -7.575   7.616  0.00  0.00    -0.082 C 
ATOM     10  C   UNL     1      -0.246  -7.241   6.122  0.00  0.00    -0.010 C 
ATOM     11  C   UNL     1      -3.997  -7.764   4.455  0.00  0.00    +0.219 C 
ATOM     12  O   UNL     1      -4.433  -8.479   5.333  0.00  0.00    -0.275 OA
ATOM     13  H   UNL     1       1.086  -6.151   8.091  0.00  0.00    -0.086 HD
ATOM     14  H   UNL     1       0.186  -6.658   9.373  0.00  0.00    -0.086 HD
ENDROOT
BRANCH  11  15
ATOM     15  C   UNL     1      -4.413  -7.989   3.025  0.00  0.00    +0.078 C 
ATOM     16  C   UNL     1      -5.100  -6.730   2.490  0.00  0.00    +0.032 C 
ATOM     17  C   UNL     1      -5.491  -6.950   1.025  0.00  0.00    +0.112 C 
ATOM     18  N   UNL     1      -6.306  -8.169   0.931  0.00  0.00    -0.267 N 
ATOM     19  C   UNL     1      -5.777  -9.418   1.496  0.00  0.00    +0.112 C 
ATOM     20  C   UNL     1      -5.383  -9.170   2.956  0.00  0.00    +0.032 C 
ATOM     21  C   UNL     1      -7.516  -8.141   0.338  0.00  0.00    +0.403 C 
ATOM     22  O   UNL     1      -7.943  -7.102  -0.125  0.00  0.00    -0.226 OA
BRANCH  21  23
ATOM     23  O   UNL     1      -8.252  -9.266   0.258  0.00  0.00    -0.445 OA
BRANCH  23  24
ATOM     24  C   UNL     1      -9.525  -9.164  -0.384  0.00  0.00    +0.269 C 
BRANCH  24  25
ATOM     25  C   UNL     1     -10.200 -10.512  -0.378  0.00  0.00    -0.010 A 
ATOM     26  C   UNL     1      -9.995 -11.391  -1.425  0.00  0.00    +0.007 A 
ATOM     27  C   UNL     1     -10.614 -12.627  -1.420  0.00  0.00    +0.000 A 
ATOM     28  C   UNL     1     -11.437 -12.984  -0.368  0.00  0.00    +0.000 A 
ATOM     29  C   UNL     1     -11.641 -12.105   0.679  0.00  0.00    +0.000 A 
ATOM     30  C   UNL     1     -11.019 -10.870   0.676  0.00  0.00    +0.007 A 
ENDBRANCH  24  25
ENDBRANCH  23  24
ENDBRANCH  21  23
ENDBRANCH  11  15
BRANCH   1  32
ATOM     31  N   UNL     1       0.705  -3.941   4.055  0.00  0.00    -0.315 N 
ATOM     32  C   UNL     1      -0.604  -4.216   4.218  0.00  0.00    +0.218 C 
ATOM     33  O   UNL     1      -1.414  -3.313   4.248  0.00  0.00    -0.275 OA
ATOM     34  H   UNL     1       1.353  -4.663   4.030  0.00  0.00    +0.149 HD
BRANCH  31  35
ATOM     35  C   UNL     1       1.151  -2.553   3.916  0.00  0.00    +0.105 C 
BRANCH  35  40
ATOM     36  C   UNL     1       4.497   0.224   2.075  0.00  0.00    -0.096 C 
ATOM     37  N   UNL     1       4.271  -1.107   2.654  0.00  0.00    +0.378 N 
ATOM     38  C   UNL     1       3.784  -2.050   1.615  0.00  0.00    -0.079 C 
ATOM     39  C   UNL     1       3.075  -3.170   2.406  0.00  0.00    -0.016 C 
ATOM     40  C   UNL     1       2.671  -2.519   3.746  0.00  0.00    -0.012 C 
ATOM     41  C   UNL     1       3.170  -1.062   3.650  0.00  0.00    -0.074 C 
ATOM     42  H   UNL     1       5.118  -1.455   3.079  0.00  0.00    -0.082 HD
ENDBRANCH  35  40
ENDBRANCH  31  35
ENDBRANCH   1  32
TORSDOF 7
