REMARK  Name = ZINC12780222
REMARK  14 active torsions:
REMARK  status: ('A' for Active; 'I' for Inactive)
REMARK    1  A    between atoms: C_1  and  C_2
REMARK    2  A    between atoms: C_2  and  C_3
REMARK    3  A    between atoms: C_2  and  C_4
REMARK    4  A    between atoms: C_4  and  C_6
REMARK    5  A    between atoms: C_4  and  N_21
REMARK    6  A    between atoms: N_8  and  C_9
REMARK    7  A    between atoms: C_9  and  C_10
REMARK    8  A    between atoms: C_10  and  C_12
REMARK    9  A    between atoms: C_10  and  N_61
REMARK   10  A    between atoms: C_19  and  N_61
REMARK   11  A    between atoms: C_20  and  N_61
REMARK   12  A    between atoms: N_21  and  S_22
REMARK   13  A    between atoms: S_22  and  C_25
REMARK   14  A    between atoms: C_26  and  C_27
REMARK                            x       y       z     vdW  Elec       q    Type
REMARK                         _______ _______ _______ _____ _____    ______ ____
ROOT
ATOM      1  C   UNL     1       3.938   7.890   2.069  0.00  0.00    +0.165 C 
ENDROOT
BRANCH   1   2
ATOM      2  C   UNL     1       3.281   6.569   2.379  0.00  0.00    +0.232 C 
ATOM      3  O   UNL     1       3.104   6.235   3.531  0.00  0.00    -0.274 OA
ATOM      4  N   UNL     1       2.891   5.759   1.375  0.00  0.00    -0.315 N 
ATOM      5  H   UNL     1       3.097   5.991   0.456  0.00  0.00    +0.149 HD
BRANCH   4   6
ATOM      6  C   UNL     1       2.155   4.527   1.671  0.00  0.00    +0.093 C 
BRANCH   6   7
ATOM      7  C   UNL     1       1.992   3.709   0.389  0.00  0.00    -0.020 C 
BRANCH   7   8
ATOM      8  C   UNL     1       1.119   2.512   0.664  0.00  0.00    -0.041 A 
ATOM      9  C   UNL     1       1.688   1.260   0.810  0.00  0.00    +0.003 A 
ATOM     10  C   UNL     1       0.887   0.162   1.063  0.00  0.00    +0.000 A 
ATOM     11  C   UNL     1      -0.483   0.314   1.165  0.00  0.00    +0.001 A 
ATOM     12  C   UNL     1      -1.052   1.565   1.026  0.00  0.00    +0.020 A 
ATOM     13  C   UNL     1      -0.252   2.665   0.772  0.00  0.00    +0.043 A 
ATOM     14 CL   UNL     1      -0.967   4.236   0.589  0.00  0.00    -0.083 Cl
ENDBRANCH   7   8
BRANCH   7  17
ATOM     15  C   UNL     1       3.967   4.293  -0.883  0.00  0.00    -0.096 C 
ATOM     16  C   UNL     1       4.157   2.857   1.056  0.00  0.00    -0.096 C 
ATOM     17  N   UNL     1       3.306   3.235  -0.092  0.00  0.00    +0.382 N 
ATOM     18  H   UNL     1       3.166   2.411  -0.688  0.00  0.00    -0.082 HD
ENDBRANCH   7  17
ENDBRANCH   6   7
ENDBRANCH   4   6
ENDBRANCH   1   2
BRANCH   1  20
ATOM     19  C   UNL     1       1.839   9.128   2.622  0.00  0.00    +0.009 C 
ATOM     20  C   UNL     1       2.888   8.869   1.539  0.00  0.00    +0.010 C 
ATOM     21  C   UNL     1       3.566  10.187   1.160  0.00  0.00    +0.009 C 
ENDBRANCH   1  20
BRANCH   1  22
ATOM     22  N   UNL     1       4.540   8.433   3.288  0.00  0.00    -0.178 NA
ATOM     23  H   UNL     1       4.003   8.955   3.905  0.00  0.00    +0.149 HD
BRANCH  22  24
ATOM     24  S   UNL     1       6.140   8.157   3.615  0.00  0.00    +0.052 S 
ATOM     25  O   UNL     1       6.440   8.870   4.807  0.00  0.00    -0.154 OA
ATOM     26  O   UNL     1       6.344   6.756   3.494  0.00  0.00    -0.154 OA
BRANCH  24  27
ATOM     27  C   UNL     1       7.073   8.915   2.327  0.00  0.00    +0.153 C 
ATOM     28  C   UNL     1       7.873   9.936   2.600  0.00  0.00    +0.028 C 
BRANCH  28  29
ATOM     29  C   UNL     1       8.656  10.572   1.519  0.00  0.00    -0.024 A 
ATOM     30  C   UNL     1       8.559  10.096   0.211  0.00  0.00    +0.008 A 
ATOM     31  C   UNL     1       9.288  10.697  -0.794  0.00  0.00    +0.001 A 
ATOM     32  C   UNL     1      10.123  11.762  -0.505  0.00  0.00    +0.000 A 
ATOM     33  C   UNL     1      10.227  12.236   0.790  0.00  0.00    +0.001 A 
ATOM     34  C   UNL     1       9.499  11.647   1.804  0.00  0.00    +0.008 A 
ENDBRANCH  28  29
ENDBRANCH  24  27
ENDBRANCH  22  24
ENDBRANCH   1  22
TORSDOF 10
