REMARK  Name = ZINC26482310
REMARK  7 active torsions:
REMARK  status: ('A' for Active; 'I' for Inactive)
REMARK    1  A    between atoms: C_1  and  C_2
REMARK    2  A    between atoms: C_2  and  C_4
REMARK    3  A    between atoms: C_2  and  N_18
REMARK    4  A    between atoms: N_6  and  C_7
REMARK    5  A    between atoms: C_12  and  C_13
REMARK    6  A    between atoms: N_21  and  S_24
REMARK    7  A    between atoms: S_24  and  C_27
REMARK                            x       y       z     vdW  Elec       q    Type
REMARK                         _______ _______ _______ _____ _____    ______ ____
ROOT
ATOM      1  C   UNL     1      -4.469  -0.599  -1.445  0.00  0.00    -0.004 C 
ATOM      2  C   UNL     1      -3.711  -1.063  -0.200  0.00  0.00    +0.017 C 
ENDROOT
BRANCH   2   3
ATOM      3  N   UNL     1      -3.428  -2.501  -0.306  0.00  0.00    +0.389 N 
ATOM      4  C   UNL     1      -2.624  -2.793  -1.500  0.00  0.00    -0.060 C 
ATOM      5  C   UNL     1      -2.199  -4.265  -1.478  0.00  0.00    +0.091 C 
ATOM      6  N   UNL     1      -3.402  -5.096  -1.321  0.00  0.00    -0.180 NA
ATOM      7  C   UNL     1      -4.330  -4.776  -0.226  0.00  0.00    +0.091 C 
ATOM      8  C   UNL     1      -4.671  -3.284  -0.297  0.00  0.00    -0.060 C 
ATOM      9  H   UNL     1      -2.840  -2.797   0.575  0.00  0.00    -0.081 HD
BRANCH   6  10
ATOM     10  S   UNL     1      -3.703  -6.359  -2.350  0.00  0.00    +0.061 S 
ATOM     11  O   UNL     1      -2.448  -6.754  -2.885  0.00  0.00    -0.153 OA
ATOM     12  O   UNL     1      -4.551  -7.259  -1.650  0.00  0.00    -0.153 OA
BRANCH  10  13
ATOM     13  C   UNL     1      -4.647  -5.721  -3.695  0.00  0.00    +0.108 A 
ATOM     14  C   UNL     1      -6.028  -5.720  -3.630  0.00  0.00    +0.029 A 
ATOM     15  C   UNL     1      -6.769  -5.216  -4.682  0.00  0.00    +0.005 A 
ATOM     16  C   UNL     1      -6.130  -4.723  -5.805  0.00  0.00    +0.038 A 
ATOM     17  C   UNL     1      -4.748  -4.729  -5.872  0.00  0.00    +0.125 A 
ATOM     18  C   UNL     1      -4.006  -5.229  -4.815  0.00  0.00    +0.066 A 
ATOM     19  F   UNL     1      -4.123  -4.248  -6.969  0.00  0.00    -0.205 F 
ENDBRANCH  10  13
ENDBRANCH   6  10
ENDBRANCH   2   3
BRANCH   2  20
ATOM     20  C   UNL     1      -2.414  -0.303  -0.089  0.00  0.00    +0.203 C 
ATOM     21  O   UNL     1      -1.359  -0.900  -0.097  0.00  0.00    -0.277 OA
ATOM     22  N   UNL     1      -2.428   1.040   0.020  0.00  0.00    -0.286 N 
ATOM     23  H   UNL     1      -3.385   1.576   0.102  0.00  0.00    +0.155 HD
BRANCH  22  24
ATOM     24  C   UNL     1      -1.224   1.754   0.028  0.00  0.00    +0.045 A 
ATOM     25  C   UNL     1      -0.095   1.207   0.625  0.00  0.00    +0.025 A 
ATOM     26  C   UNL     1       1.093   1.911   0.627  0.00  0.00    +0.022 A 
ATOM     27  C   UNL     1       1.158   3.162   0.039  0.00  0.00    +0.042 A 
ATOM     28  C   UNL     1       0.034   3.711  -0.552  0.00  0.00    +0.034 A 
ATOM     29  C   UNL     1      -1.157   3.011  -0.557  0.00  0.00    +0.077 A 
ATOM     30 CL   UNL     1       2.654   4.044   0.043  0.00  0.00    -0.084 Cl
BRANCH  29  31
ATOM     31  C   UNL     1      -2.381   3.610  -1.201  0.00  0.00    +0.419 C 
ATOM     32  F   UNL     1      -2.065   4.869  -1.721  0.00  0.00    -0.166 F 
ATOM     33  F   UNL     1      -2.819   2.775  -2.235  0.00  0.00    -0.166 F 
ATOM     34  F   UNL     1      -3.394   3.740  -0.246  0.00  0.00    -0.166 F 
ENDBRANCH  29  31
ENDBRANCH  22  24
ENDBRANCH   2  20
TORSDOF 6
