REMARK  Name = ZINC03553012
REMARK  5 active torsions:
REMARK  status: ('A' for Active; 'I' for Inactive)
REMARK    1  A    between atoms: C_1  and  C_2
REMARK    2  A    between atoms: C_8  and  N_10
REMARK    3  A    between atoms: C_11  and  C_13
REMARK    4  A    between atoms: C_13  and  S_14
REMARK    5  A    between atoms: S_14  and  C_15
REMARK                            x       y       z     vdW  Elec       q    Type
REMARK                         _______ _______ _______ _____ _____    ______ ____
ROOT
ATOM      1  C   UNL     1       2.326  -4.904   3.792  0.00  0.00    +0.191 A 
ATOM      2  N   UNL     1       1.296  -5.365   3.092  0.00  0.00    -0.207 NA
ATOM      3  C   UNL     1       0.986  -6.650   3.061  0.00  0.00    +0.129 A 
ATOM      4  C   UNL     1       1.772  -7.573   3.808  0.00  0.00    +0.051 A 
ATOM      5  C   UNL     1       1.613  -9.024   3.925  0.00  0.00    -0.025 A 
ATOM      6  C   UNL     1       2.500  -9.675   4.704  0.00  0.00    -0.004 A 
ATOM      7  S   UNL     1       3.584  -8.417   5.322  0.00  0.00    -0.073 S 
ATOM      8  C   UNL     1       2.844  -7.013   4.531  0.00  0.00    +0.115 A 
ATOM      9  N   UNL     1       3.092  -5.717   4.507  0.00  0.00    -0.214 NA
ATOM     10  C   UNL     1       2.553 -11.146   4.983  0.00  0.00    +0.043 C 
ATOM     11  C   UNL     1       1.221 -11.772   4.546  0.00  0.00    +0.005 C 
ATOM     12  C   UNL     1       0.877 -11.265   3.143  0.00  0.00    +0.005 C 
ATOM     13  C   UNL     1       0.502  -9.783   3.204  0.00  0.00    +0.037 C 
ATOM     14  N   UNL     1      -0.091  -7.092   2.316  0.00  0.00    -0.343 N 
ATOM     15  H   UNL     1      -0.464  -7.973   2.477  0.00  0.00    +0.144 HD
ATOM     16  H   UNL     1      -0.474  -6.521   1.631  0.00  0.00    +0.144 HD
ENDROOT
BRANCH   1  17
ATOM     17  S   UNL     1       2.678  -3.177   3.776  0.00  0.00    -0.077 S 
BRANCH  17  18
ATOM     18  C   UNL     1       1.360  -2.598   2.680  0.00  0.00    +0.173 C 
BRANCH  18  20
ATOM     19  N   UNL     1       0.581  -0.448   1.736  0.00  0.00    -0.312 N 
ATOM     20  C   UNL     1       1.465  -1.103   2.514  0.00  0.00    +0.224 C 
ATOM     21  O   UNL     1       2.345  -0.491   3.082  0.00  0.00    -0.275 OA
ATOM     22  H   UNL     1      -0.122  -0.938   1.282  0.00  0.00    +0.149 HD
BRANCH  19  29
ATOM     23  C   UNL     1       0.768   0.724  -0.906  0.00  0.00    +0.009 C 
ATOM     24  C   UNL     1       0.042   1.417   0.248  0.00  0.00    +0.006 C 
ATOM     25  C   UNL     1       0.149   2.934   0.080  0.00  0.00    +0.005 C 
ATOM     26  C   UNL     1      -0.577   3.627   1.235  0.00  0.00    +0.000 C 
ATOM     27  C   UNL     1       0.064   3.215   2.561  0.00  0.00    +0.002 C 
ATOM     28  C   UNL     1      -0.043   1.698   2.729  0.00  0.00    +0.022 C 
ATOM     29  C   UNL     1       0.683   1.005   1.575  0.00  0.00    +0.076 C 
ENDBRANCH  19  29
ENDBRANCH  18  20
ENDBRANCH  17  18
ENDBRANCH   1  17
TORSDOF 4
