REMARK  Name = ZINC39344851
REMARK  11 active torsions:
REMARK  status: ('A' for Active; 'I' for Inactive)
REMARK    1  A    between atoms: C_1  and  C_2
REMARK    2  A    between atoms: C_4  and  C_9
REMARK    3  A    between atoms: C_5  and  C_8
REMARK    4  A    between atoms: C_9  and  O_10
REMARK    5  A    between atoms: O_10  and  C_11
REMARK    6  A    between atoms: N_14  and  C_24
REMARK    7  A    between atoms: N_18  and  C_20
REMARK    8  A    between atoms: C_20  and  C_21
REMARK    9  A    between atoms: C_21  and  C_22
REMARK   10  A    between atoms: C_21  and  C_23
REMARK   11  A    between atoms: C_24  and  C_25
REMARK                            x       y       z     vdW  Elec       q    Type
REMARK                         _______ _______ _______ _____ _____    ______ ____
ROOT
ATOM      1  C   UNL     1       0.247  -1.028  -4.832  0.00  0.00    +0.120 C 
ATOM      2  C   UNL     1       1.408  -1.002  -5.807  0.00  0.00    -0.044 C 
ATOM      3  N   UNL     1       1.026  -0.749  -7.189  0.00  0.00    +0.391 N 
ATOM      4  C   UNL     1       0.274  -1.881  -7.745  0.00  0.00    +0.019 C 
ATOM      5  C   UNL     1      -1.191  -1.704  -7.402  0.00  0.00    +0.199 C 
ATOM      6  O   UNL     1      -1.981  -1.404  -8.271  0.00  0.00    -0.278 OA
ATOM      7  N   UNL     1      -1.617  -1.877  -6.148  0.00  0.00    -0.300 N 
ATOM      8  C   UNL     1      -0.654  -2.238  -5.093  0.00  0.00    +0.137 C 
ATOM      9  H   UNL     1       0.453   0.081  -7.227  0.00  0.00    -0.080 HD
ENDROOT
BRANCH   1  10
ATOM     10  O   UNL     1       0.755  -1.098  -3.498  0.00  0.00    -0.372 OA
BRANCH  10  11
ATOM     11  C   UNL     1      -0.078  -0.463  -2.526  0.00  0.00    +0.195 C 
BRANCH  11  14
ATOM     12  C   UNL     1      -0.293  -2.772  -0.275  0.00  0.00    +0.045 C 
ATOM     13  C   UNL     1       0.940  -1.890  -0.484  0.00  0.00    +0.175 C 
ATOM     14  C   UNL     1       0.551  -0.597  -1.163  0.00  0.00    +0.007 C 
ATOM     15  C   UNL     1       0.860   0.391  -0.349  0.00  0.00    +0.040 C 
ATOM     16  N   UNL     1       1.422  -0.084   0.822  0.00  0.00    -0.269 N 
ATOM     17  O   UNL     1       1.493  -1.500   0.782  0.00  0.00    -0.267 OA
ATOM     18  C   UNL     1       0.631   1.849  -0.655  0.00  0.00    +0.065 C 
ATOM     19  H   UNL     1       1.723   0.469   1.560  0.00  0.00    +0.194 HD
ENDBRANCH  11  14
ENDBRANCH  10  11
ENDBRANCH   1  10
BRANCH   7  20
ATOM     20  C   UNL     1      -3.036  -1.710  -5.824  0.00  0.00    +0.110 C 
BRANCH  20  21
ATOM     21  C   UNL     1      -3.757  -3.050  -5.982  0.00  0.00    +0.000 C 
ATOM     22  C   UNL     1      -3.220  -4.042  -4.948  0.00  0.00    +0.009 C 
ATOM     23  C   UNL     1      -5.258  -2.851  -5.765  0.00  0.00    +0.009 C 
ENDBRANCH  20  21
ENDBRANCH   7  20
BRANCH   3  24
ATOM     24  C   UNL     1       2.237  -0.534  -7.992  0.00  0.00    -0.024 C 
BRANCH  24  25
ATOM     25  C   UNL     1       1.847  -0.151  -9.396  0.00  0.00    +0.000 A 
ATOM     26  H   UNL     1       1.562  -2.000 -10.311  0.00  0.00    +0.166 HD
ATOM     27  C   UNL     1       1.744   1.108  -9.851  0.00  0.00    +0.029 A 
ATOM     28  C   UNL     1       1.344   1.024 -11.258  0.00  0.00    -0.000 A 
ATOM     29  C   UNL     1       1.082   1.970 -12.250  0.00  0.00    +0.010 A 
ATOM     30  C   UNL     1       0.720   1.558 -13.502  0.00  0.00    +0.001 A 
ATOM     31  C   UNL     1       0.610   0.206 -13.794  0.00  0.00    +0.002 A 
ATOM     32  C   UNL     1       0.863  -0.745 -12.829  0.00  0.00    +0.026 A 
ATOM     33  C   UNL     1       1.234  -0.348 -11.549  0.00  0.00    +0.047 A 
ATOM     34  N   UNL     1       1.552  -1.034 -10.399  0.00  0.00    -0.360 N 
ENDBRANCH  24  25
ENDBRANCH   3  24
TORSDOF 7
