REMARK  Name = ZINC39736421
REMARK  16 active torsions:
REMARK  status: ('A' for Active; 'I' for Inactive)
REMARK    1  A    between atoms: C_1  and  C_2
REMARK    2  A    between atoms: C_2  and  O_3
REMARK    3  A    between atoms: O_3  and  C_4
REMARK    4  A    between atoms: N_13  and  C_14
REMARK    5  A    between atoms: C_14  and  C_15
REMARK    6  A    between atoms: C_15  and  C_16
REMARK    7  A    between atoms: C_16  and  N_17
REMARK    8  A    between atoms: N_17  and  C_18
REMARK    9  A    between atoms: N_17  and  C_19
REMARK   10  A    between atoms: C_20  and  C_22
REMARK   11  A    between atoms: C_25  and  S_28
REMARK   12  A    between atoms: S_28  and  N_31
REMARK   13  A    between atoms: N_31  and  C_32
REMARK   14  A    between atoms: N_31  and  C_33
REMARK   15  A    between atoms: C_33  and  C_34
REMARK   16  A    between atoms: C_33  and  C_35
REMARK                            x       y       z     vdW  Elec       q    Type
REMARK                         _______ _______ _______ _____ _____    ______ ____
ROOT
ATOM      1  C   UNL     1       1.478  -0.945   1.090  0.00  0.00    +0.147 A 
ATOM      2  C   UNL     1       1.040  -1.625  -0.022  0.00  0.00    +0.048 A 
ATOM      3  C   UNL     1       0.962  -3.010  -0.039  0.00  0.00    +0.005 A 
ATOM      4  C   UNL     1       1.334  -3.724   1.086  0.00  0.00    +0.017 A 
ATOM      5  C   UNL     1       1.773  -3.054   2.202  0.00  0.00    +0.044 A 
ATOM      6  C   UNL     1       1.872  -1.646   2.258  0.00  0.00    +0.122 A 
ATOM      7  N   UNL     1       2.327  -1.137   3.424  0.00  0.00    -0.221 NA
ATOM      8  C   UNL     1       2.662  -1.895   4.441  0.00  0.00    +0.168 A 
ATOM      9  S   UNL     1       2.334  -3.537   3.817  0.00  0.00    -0.052 S 
ATOM     10  N   UNL     1       3.139  -1.517   5.686  0.00  0.00    -0.246 N 
ATOM     11  C   UNL     1       3.312  -0.212   5.974  0.00  0.00    +0.252 C 
ATOM     12  O   UNL     1       2.981   0.637   5.169  0.00  0.00    -0.270 OA
ENDROOT
BRANCH  11  13
ATOM     13  C   UNL     1       3.904   0.188   7.267  0.00  0.00    +0.037 A 
ATOM     14  C   UNL     1       4.964  -0.542   7.808  0.00  0.00    +0.015 A 
ATOM     15  C   UNL     1       5.513  -0.164   9.016  0.00  0.00    +0.029 A 
ATOM     16  C   UNL     1       5.014   0.936   9.692  0.00  0.00    +0.106 A 
ATOM     17  C   UNL     1       3.963   1.663   9.162  0.00  0.00    +0.029 A 
ATOM     18  C   UNL     1       3.409   1.299   7.952  0.00  0.00    +0.015 A 
BRANCH  16  19
ATOM     19  S   UNL     1       5.720   1.412  11.234  0.00  0.00    +0.061 S 
ATOM     20  O   UNL     1       4.721   2.145  11.929  0.00  0.00    -0.153 OA
ATOM     21  O   UNL     1       6.329   0.249  11.778  0.00  0.00    -0.153 OA
BRANCH  19  22
ATOM     22  N   UNL     1       6.945   2.477  10.904  0.00  0.00    -0.177 NA
ATOM     23  C   UNL     1       6.667   3.914  10.835  0.00  0.00    +0.132 C 
BRANCH  22  24
ATOM     24  C   UNL     1       8.306   1.982  10.681  0.00  0.00    +0.073 C 
ATOM     25  C   UNL     1       8.770   2.382   9.279  0.00  0.00    +0.025 C 
ATOM     26  C   UNL     1       9.247   2.591  11.723  0.00  0.00    +0.025 C 
ENDBRANCH  22  24
ENDBRANCH  19  22
ENDBRANCH  16  19
ENDBRANCH  11  13
BRANCH   1  27
ATOM     27  O   UNL     1       1.540   0.413   1.067  0.00  0.00    -0.490 OA
BRANCH  27  29
ATOM     28  C   UNL     1       1.269   2.576   0.024  0.00  0.00    +0.048 C 
ATOM     29  C   UNL     1       1.130   1.061  -0.138  0.00  0.00    +0.226 C 
ENDBRANCH  27  29
ENDBRANCH   1  27
BRANCH  10  30
ATOM     30  C   UNL     1       3.455  -2.537   6.689  0.00  0.00    +0.114 C 
BRANCH  30  31
ATOM     31  C   UNL     1       4.756  -3.243   6.306  0.00  0.00    +0.001 C 
BRANCH  31  32
ATOM     32  C   UNL     1       5.167  -4.200   7.427  0.00  0.00    -0.078 C 
BRANCH  32  33
ATOM     33  N   UNL     1       6.417  -4.878   7.058  0.00  0.00    +0.376 N 
ATOM     34  C   UNL     1       7.502  -3.892   6.972  0.00  0.00    -0.097 C 
ATOM     35  C   UNL     1       6.747  -5.883   8.078  0.00  0.00    -0.097 C 
ATOM     36  H   UNL     1       6.303  -5.332   6.164  0.00  0.00    -0.083 HD
ENDBRANCH  32  33
ENDBRANCH  31  32
ENDBRANCH  30  31
ENDBRANCH  10  30
TORSDOF 10
