REMARK  Name = ZINC08870723
REMARK  9 active torsions:
REMARK  status: ('A' for Active; 'I' for Inactive)
REMARK    1  A    between atoms: C_1  and  C_2
REMARK    2  A    between atoms: C_4  and  C_34
REMARK    3  A    between atoms: C_5  and  S_9
REMARK    4  A    between atoms: C_6  and  C_8
REMARK    5  A    between atoms: S_9  and  N_12
REMARK    6  A    between atoms: N_12  and  C_13
REMARK    7  A    between atoms: C_15  and  S_24
REMARK    8  A    between atoms: C_16  and  O_23
REMARK    9  A    between atoms: S_24  and  C_25
REMARK                            x       y       z     vdW  Elec       q    Type
REMARK                         _______ _______ _______ _____ _____    ______ ____
ROOT
ATOM      1  C   UNL     1       5.353  -1.450  -2.908  0.00  0.00    +0.057 A 
ATOM      2  C   UNL     1       5.380  -0.099  -2.646  0.00  0.00    +0.044 A 
ATOM      3  C   UNL     1       5.249   0.832  -3.680  0.00  0.00    +0.061 A 
ATOM      4  C   UNL     1       5.078   0.415  -4.987  0.00  0.00    +0.138 A 
ATOM      5  C   UNL     1       5.041  -0.960  -5.282  0.00  0.00    +0.026 A 
ATOM      6  C   UNL     1       5.180  -1.903  -4.232  0.00  0.00    +0.008 A 
ATOM      7  C   UNL     1       5.143  -3.275  -4.531  0.00  0.00    +0.010 A 
ATOM      8  C   UNL     1       4.976  -3.680  -5.820  0.00  0.00    +0.001 A 
ATOM      9  C   UNL     1       4.839  -2.753  -6.852  0.00  0.00    +0.001 A 
ATOM     10  C   UNL     1       4.870  -1.416  -6.600  0.00  0.00    +0.012 A 
ENDROOT
BRANCH   1  11
ATOM     11  N   UNL     1       5.491  -2.369  -1.865  0.00  0.00    -0.216 N 
ATOM     12  H   UNL     1       4.744  -2.934  -1.613  0.00  0.00    +0.174 HD
BRANCH  11  13
ATOM     13  S   UNL     1       6.932  -2.495  -1.057  0.00  0.00    +0.073 S 
ATOM     14  O   UNL     1       7.937  -2.672  -2.046  0.00  0.00    -0.150 OA
ATOM     15  O   UNL     1       6.727  -3.426  -0.004  0.00  0.00    -0.150 OA
BRANCH  13  20
ATOM     16  C   UNL     1       7.998   2.842   1.548  0.00  0.00    +0.044 C 
ATOM     17  C   UNL     1       7.727   1.511   0.894  0.00  0.00    -0.050 A 
ATOM     18  C   UNL     1       6.916   0.585   1.523  0.00  0.00    +0.008 A 
ATOM     19  C   UNL     1       6.673  -0.639   0.927  0.00  0.00    -0.023 A 
ATOM     20  C   UNL     1       7.241  -0.935  -0.298  0.00  0.00    +0.114 A 
ATOM     21  C   UNL     1       8.052  -0.009  -0.927  0.00  0.00    -0.023 A 
ATOM     22  C   UNL     1       8.295   1.214  -0.331  0.00  0.00    +0.008 A 
ATOM     23  C   UNL     1       8.671  -0.333  -2.262  0.00  0.00    +0.046 C 
ATOM     24  C   UNL     1       5.790  -1.649   1.613  0.00  0.00    +0.046 C 
ENDBRANCH  13  20
ENDBRANCH  11  13
ENDBRANCH   1  11
BRANCH   4  25
ATOM     25  O   UNL     1       4.945   1.331  -5.984  0.00  0.00    -0.505 OA
ATOM     26  H   UNL     1       4.031   1.595  -6.157  0.00  0.00    +0.292 HD
ENDBRANCH   4  25
BRANCH   3  27
ATOM     27  S   UNL     1       5.294   2.554  -3.313  0.00  0.00    -0.027 S 
BRANCH  27  28
ATOM     28  C   UNL     1       3.586   2.950  -3.488  0.00  0.00    +0.263 A 
ATOM     29  N   UNL     1       2.634   2.080  -3.717  0.00  0.00    -0.203 NA
ATOM     30  C   UNL     1       1.447   2.742  -3.789  0.00  0.00    +0.110 A 
ATOM     31  C   UNL     1       0.130   2.336  -4.006  0.00  0.00    +0.031 A 
ATOM     32  C   UNL     1      -0.879   3.274  -4.029  0.00  0.00    +0.002 A 
ATOM     33  C   UNL     1      -0.593   4.617  -3.838  0.00  0.00    +0.004 A 
ATOM     34  C   UNL     1       0.706   5.032  -3.622  0.00  0.00    +0.048 A 
ATOM     35  C   UNL     1       1.732   4.102  -3.596  0.00  0.00    +0.156 A 
ATOM     36  O   UNL     1       3.070   4.190  -3.412  0.00  0.00    -0.430 OA
ENDBRANCH  27  28
ENDBRANCH   3  27
TORSDOF 6
