REMARK  Name = ZINC08859979
REMARK  6 active torsions:
REMARK  status: ('A' for Active; 'I' for Inactive)
REMARK    1  A    between atoms: C_10  and  S_11
REMARK    2  A    between atoms: S_11  and  N_14
REMARK    3  A    between atoms: N_14  and  C_15
REMARK    4  A    between atoms: C_17  and  S_26
REMARK    5  A    between atoms: C_18  and  O_25
REMARK    6  A    between atoms: S_26  and  C_27
REMARK                            x       y       z     vdW  Elec       q    Type
REMARK                         _______ _______ _______ _____ _____    ______ ____
ROOT
ATOM      1  C   UNL     1       4.336   1.996  -1.841  0.00  0.00    +0.057 A 
ATOM      2  C   UNL     1       4.022   2.958  -0.907  0.00  0.00    +0.044 A 
ATOM      3  C   UNL     1       3.282   4.088  -1.266  0.00  0.00    +0.059 A 
ATOM      4  C   UNL     1       2.850   4.264  -2.568  0.00  0.00    +0.138 A 
ATOM      5  C   UNL     1       3.157   3.297  -3.542  0.00  0.00    +0.026 A 
ATOM      6  C   UNL     1       3.912   2.153  -3.177  0.00  0.00    +0.008 A 
ATOM      7  C   UNL     1       4.221   1.193  -4.154  0.00  0.00    +0.010 A 
ATOM      8  C   UNL     1       3.798   1.374  -5.435  0.00  0.00    +0.001 A 
ATOM      9  C   UNL     1       3.060   2.500  -5.795  0.00  0.00    +0.001 A 
ATOM     10  C   UNL     1       2.732   3.446  -4.873  0.00  0.00    +0.012 A 
ENDROOT
BRANCH   1  11
ATOM     11  N   UNL     1       5.077   0.872  -1.467  0.00  0.00    -0.216 N 
ATOM     12  H   UNL     1       5.683   0.459  -2.101  0.00  0.00    +0.174 HD
BRANCH  11  13
ATOM     13  S   UNL     1       4.919   0.246   0.057  0.00  0.00    +0.073 S 
ATOM     14  O   UNL     1       5.166   1.313   0.963  0.00  0.00    -0.150 OA
ATOM     15  O   UNL     1       5.667  -0.962   0.080  0.00  0.00    -0.150 OA
BRANCH  13  25
ATOM     16  C   UNL     1       1.523  -3.242  -2.049  0.00  0.00    +0.001 A 
ATOM     17  C   UNL     1       2.862  -2.897  -2.226  0.00  0.00    +0.001 A 
ATOM     18  C   UNL     1       3.436  -1.912  -1.484  0.00  0.00    +0.010 A 
ATOM     19  C   UNL     1       2.670  -1.229  -0.523  0.00  0.00    +0.009 A 
ATOM     20  C   UNL     1       1.308  -1.579  -0.343  0.00  0.00    -0.016 A 
ATOM     21  C   UNL     1       0.751  -2.603  -1.129  0.00  0.00    +0.008 A 
ATOM     22  C   UNL     1       0.543  -0.896   0.617  0.00  0.00    +0.008 A 
ATOM     23  C   UNL     1       1.117   0.089   1.359  0.00  0.00    +0.003 A 
ATOM     24  C   UNL     1       2.455   0.434   1.182  0.00  0.00    +0.029 A 
ATOM     25  C   UNL     1       3.228  -0.206   0.262  0.00  0.00    +0.116 A 
ENDBRANCH  13  25
ENDBRANCH  11  13
ENDBRANCH   1  11
BRANCH   4  26
ATOM     26  O   UNL     1       2.130   5.369  -2.905  0.00  0.00    -0.505 OA
ATOM     27  H   UNL     1       2.670   6.117  -3.192  0.00  0.00    +0.292 HD
ENDBRANCH   4  26
BRANCH   3  28
ATOM     28  S   UNL     1       2.895   5.300  -0.048  0.00  0.00    -0.047 S 
BRANCH  28  29
ATOM     29  C   UNL     1       1.200   5.000   0.329  0.00  0.00    +0.189 A 
ATOM     30  H   UNL     1       0.690   6.534   1.643  0.00  0.00    +0.191 HD
ATOM     31  N   UNL     1       0.466   4.012  -0.136  0.00  0.00    -0.209 NA
ATOM     32  C   UNL     1      -0.769   4.097   0.360  0.00  0.00    +0.245 A 
ATOM     33  N   UNL     1      -0.843   5.137   1.147  0.00  0.00    -0.160 NA
ATOM     34  N   UNL     1       0.425   5.741   1.151  0.00  0.00    -0.254 N 
ENDBRANCH  28  29
ENDBRANCH   3  28
TORSDOF 6
