REMARK  Name = ZINC12028446
REMARK  7 active torsions:
REMARK  status: ('A' for Active; 'I' for Inactive)
REMARK    1  A    between atoms: C_1  and  C_2
REMARK    2  A    between atoms: C_2  and  C_3
REMARK    3  A    between atoms: C_3  and  C_22
REMARK    4  A    between atoms: N_6  and  C_10
REMARK    5  A    between atoms: C_10  and  C_11
REMARK    6  A    between atoms: C_27  and  C_28
REMARK    7  A    between atoms: C_27  and  N_64
REMARK                            x       y       z     vdW  Elec       q    Type
REMARK                         _______ _______ _______ _____ _____    ______ ____
ROOT
ATOM      1  C   UNL     1       7.895   2.252  -1.853  0.00  0.00    +0.115 C 
ATOM      2  C   UNL     1       6.832   2.373  -0.779  0.00  0.00    +0.247 C 
ATOM      3  O   UNL     1       6.706   1.680   0.208  0.00  0.00    -0.273 OA
ATOM      4  N   UNL     1       6.056   3.410  -1.150  0.00  0.00    -0.221 N 
ATOM      5  C   UNL     1       6.480   3.960  -2.293  0.00  0.00    +0.309 C 
ATOM      6  O   UNL     1       5.943   4.912  -2.825  0.00  0.00    -0.252 OA
ATOM      7  N   UNL     1       7.568   3.342  -2.788  0.00  0.00    -0.285 N 
ATOM      8  H   UNL     1       8.044   3.570  -3.602  0.00  0.00    +0.151 HD
ENDROOT
BRANCH   1   9
ATOM      9  C   UNL     1       9.289   2.456  -1.255  0.00  0.00    +0.018 C 
ATOM     10  C   UNL     1       9.646   1.260  -0.369  0.00  0.00    -0.013 C 
ATOM     11  C   UNL     1      11.013   1.499   0.276  0.00  0.00    -0.078 C 
ATOM     12  C   UNL     1      10.678   3.898   0.237  0.00  0.00    -0.078 C 
ATOM     13  C   UNL     1       9.300   3.732  -0.408  0.00  0.00    -0.013 C 
ATOM     14  N   UNL     1      10.950   2.727   1.096  0.00  0.00    +0.382 N 
ATOM     15  H   UNL     1      10.191   2.632   1.780  0.00  0.00    -0.081 HD
BRANCH  14  16
ATOM     16  C   UNL     1      12.225   2.917   1.819  0.00  0.00    -0.042 C 
BRANCH  16  17
ATOM     17  C   UNL     1      12.544   1.662   2.590  0.00  0.00    -0.046 A 
ATOM     18  C   UNL     1      13.555   0.824   2.159  0.00  0.00    +0.003 A 
ATOM     19  C   UNL     1      13.851  -0.325   2.869  0.00  0.00    +0.000 A 
ATOM     20  C   UNL     1      13.129  -0.641   4.005  0.00  0.00    +0.001 A 
ATOM     21  C   UNL     1      12.114   0.193   4.434  0.00  0.00    +0.020 A 
ATOM     22  C   UNL     1      11.821   1.345   3.726  0.00  0.00    +0.042 A 
ATOM     23 CL   UNL     1      10.546   2.394   4.264  0.00  0.00    -0.083 Cl
ENDBRANCH  16  17
ENDBRANCH  14  16
ENDBRANCH   1   9
BRANCH   1  25
ATOM     24  C   UNL     1       6.429   0.747  -3.204  0.00  0.00    +0.006 C 
ATOM     25  C   UNL     1       7.806   0.895  -2.554  0.00  0.00    +0.032 C 
ENDBRANCH   1  25
BRANCH   4  26
ATOM     26  C   UNL     1       4.894   3.880  -0.392  0.00  0.00    +0.166 C 
BRANCH  26  27
ATOM     27  C   UNL     1       3.639   3.148  -0.874  0.00  0.00    +0.229 C 
ATOM     28  C   UNL     1       2.402   3.725  -0.173  0.00  0.00    +0.275 C 
ATOM     29  O   UNL     1       1.251   3.010  -0.636  0.00  0.00    -0.485 OA
ATOM     30  C   UNL     1       1.349   1.653  -0.676  0.00  0.00    +0.162 A 
ATOM     31  C   UNL     1       0.194   0.890  -0.760  0.00  0.00    +0.049 A 
ATOM     32  C   UNL     1       0.278  -0.489  -0.806  0.00  0.00    +0.004 A 
ATOM     33  C   UNL     1       1.512  -1.111  -0.770  0.00  0.00    +0.004 A 
ATOM     34  C   UNL     1       2.666  -0.356  -0.685  0.00  0.00    +0.049 A 
ATOM     35  C   UNL     1       2.590   1.028  -0.637  0.00  0.00    +0.163 A 
ATOM     36  O   UNL     1       3.735   1.758  -0.547  0.00  0.00    -0.480 OA
ENDBRANCH  26  27
ENDBRANCH   4  26
TORSDOF 6
