REMARK  Name = ZINC05030725
REMARK  7 active torsions:
REMARK  status: ('A' for Active; 'I' for Inactive)
REMARK    1  A    between atoms: C_1  and  C_2
REMARK    2  A    between atoms: C_2  and  C_3
REMARK    3  A    between atoms: C_3  and  C_5
REMARK    4  A    between atoms: C_3  and  N_6
REMARK    5  A    between atoms: C_7  and  C_9
REMARK    6  A    between atoms: N_20  and  N_23
REMARK    7  A    between atoms: C_21  and  N_22
REMARK                            x       y       z     vdW  Elec       q    Type
REMARK                         _______ _______ _______ _____ _____    ______ ____
ROOT
ATOM      1  C   UNL     1      -2.480   1.367  -2.848  0.00  0.00    +0.105 A 
ATOM      2  C   UNL     1      -2.177   1.039  -4.250  0.00  0.00    +0.124 A 
ATOM      3  C   UNL     1      -3.170   1.770  -5.043  0.00  0.00    +0.179 A 
ATOM      4  N   UNL     1      -3.152   1.668  -6.355  0.00  0.00    -0.225 NA
ATOM      5  C   UNL     1      -2.235   0.896  -6.952  0.00  0.00    +0.092 A 
ATOM      6  C   UNL     1      -2.209   0.782  -8.354  0.00  0.00    +0.030 A 
ATOM      7  C   UNL     1      -1.274  -0.005  -8.952  0.00  0.00    +0.002 A 
ATOM      8  C   UNL     1      -0.335  -0.703  -8.196  0.00  0.00    +0.002 A 
ATOM      9  C   UNL     1      -0.328  -0.618  -6.838  0.00  0.00    +0.030 A 
ATOM     10  C   UNL     1      -1.280   0.186  -6.183  0.00  0.00    +0.090 A 
ATOM     11  N   UNL     1      -1.283   0.277  -4.848  0.00  0.00    -0.241 NA
ATOM     12  N   UNL     1      -3.965   2.463  -4.153  0.00  0.00    -0.234 N 
ATOM     13  C   UNL     1      -3.568   2.232  -2.872  0.00  0.00    +0.130 A 
ENDROOT
BRANCH   1  15
ATOM     14  N   UNL     1      -0.721   1.571  -1.179  0.00  0.00    -0.309 N 
ATOM     15  C   UNL     1      -1.773   0.883  -1.664  0.00  0.00    +0.250 C 
ATOM     16  O   UNL     1      -2.135  -0.143  -1.116  0.00  0.00    -0.270 OA
ATOM     17  H   UNL     1      -0.433   2.388  -1.615  0.00  0.00    +0.149 HD
BRANCH  14  18
ATOM     18  C   UNL     1      -0.013   1.086   0.008  0.00  0.00    +0.070 C 
ATOM     19  C   UNL     1      -0.729   1.579   1.267  0.00  0.00    +0.028 C 
BRANCH  18  21
ATOM     20  C   UNL     1       2.176   1.022  -1.195  0.00  0.00    +0.005 C 
ATOM     21  C   UNL     1       1.423   1.615  -0.003  0.00  0.00    +0.018 C 
ENDBRANCH  18  21
ENDBRANCH  14  18
ENDBRANCH   1  15
BRANCH  13  22
ATOM     22  N   UNL     1      -4.159   2.777  -1.761  0.00  0.00    -0.343 N 
ATOM     23  H   UNL     1      -3.818   2.565  -0.878  0.00  0.00    +0.144 HD
ATOM     24  H   UNL     1      -4.916   3.374  -1.858  0.00  0.00    +0.144 HD
ENDBRANCH  13  22
BRANCH  12  25
ATOM     25  N   UNL     1      -5.007   3.270  -4.510  0.00  0.00    -0.295 N 
ATOM     26  H   UNL     1      -4.697   4.219  -4.654  0.00  0.00    +0.163 HD
ATOM     27  H   UNL     1      -5.476   2.914  -5.329  0.00  0.00    +0.163 HD
ENDBRANCH  12  25
TORSDOF 5
