REMARK  Name = ZINC40659464
REMARK  7 active torsions:
REMARK  status: ('A' for Active; 'I' for Inactive)
REMARK    1  A    between atoms: C_1  and  C_2
REMARK    2  A    between atoms: C_11  and  N_12
REMARK    3  A    between atoms: C_14  and  N_30
REMARK    4  A    between atoms: C_15  and  N_19
REMARK    5  A    between atoms: N_19  and  N_20
REMARK    6  A    between atoms: C_21  and  C_23
REMARK    7  A    between atoms: C_23  and  C_24
REMARK                            x       y       z     vdW  Elec       q    Type
REMARK                         _______ _______ _______ _____ _____    ______ ____
ROOT
ATOM      1  N   UNL     1       0.064  -4.885  -1.143  0.00  0.00    -0.297 N 
ATOM      2  C   UNL     1       0.189  -6.266  -1.088  0.00  0.00    +0.159 A 
ATOM      3  C   UNL     1       0.304  -7.012  -2.257  0.00  0.00    +0.207 A 
ATOM      4  C   UNL     1       0.426  -8.394  -2.147  0.00  0.00    +0.171 A 
ATOM      5  N   UNL     1       0.429  -8.948  -0.937  0.00  0.00    -0.217 NA
ATOM      6  C   UNL     1       0.318  -8.207   0.147  0.00  0.00    +0.225 A 
ATOM      7  N   UNL     1       0.206  -6.896   0.085  0.00  0.00    -0.218 NA
ATOM      8  H   UNL     1      -0.030  -4.441  -2.000  0.00  0.00    +0.154 HD
ENDROOT
BRANCH   1  19
ATOM      9  C   UNL     1      -2.363   0.938   0.386  0.00  0.00    +0.063 C 
ATOM     10  C   UNL     1      -1.716  -0.418   0.278  0.00  0.00    +0.013 A 
ATOM     11  C   UNL     1      -1.771  -1.101  -0.935  0.00  0.00    +0.021 A 
ATOM     12  C   UNL     1      -1.190  -2.333  -1.051  0.00  0.00    +0.013 A 
ATOM     13  C   UNL     1      -0.548  -2.872   0.077  0.00  0.00    +0.020 A 
ATOM     14  C   UNL     1      -0.528  -2.125   1.280  0.00  0.00    +0.048 A 
ATOM     15  N   UNL     1      -1.112  -0.923   1.326  0.00  0.00    -0.358 N 
ATOM     16  C   UNL     1       0.113  -2.661   2.410  0.00  0.00    +0.026 A 
ATOM     17  C   UNL     1       0.706  -3.885   2.341  0.00  0.00    +0.004 A 
ATOM     18  C   UNL     1       0.693  -4.627   1.164  0.00  0.00    +0.024 A 
ATOM     19  C   UNL     1       0.075  -4.137   0.032  0.00  0.00    +0.042 A 
ATOM     20  H   UNL     1      -1.091  -0.415   2.153  0.00  0.00    +0.166 HD
ENDBRANCH   1  19
BRANCH   3  21
ATOM     21  N   UNL     1       0.296  -6.353  -3.582  0.00  0.00    +0.063 N 
ATOM     22  O   UNL     1       1.334  -5.987  -4.082  0.00  0.00    -0.126 OA
ATOM     23  O   UNL     1      -0.750  -6.180  -4.165  0.00  0.00    -0.126 OA
ENDBRANCH   3  21
BRANCH   4  24
ATOM     24  N   UNL     1       0.543  -9.181  -3.282  0.00  0.00    -0.246 N 
ATOM     25  H   UNL     1       0.540  -8.770  -4.161  0.00  0.00    +0.172 HD
BRANCH  24  26
ATOM     26  N   UNL     1       0.666 -10.572  -3.160  0.00  0.00    -0.235 N 
ATOM     27  C   UNL     1       0.780 -11.337  -4.264  0.00  0.00    +0.233 C 
ATOM     28  O   UNL     1       0.776 -10.823  -5.362  0.00  0.00    -0.274 OA
ATOM     29  H   UNL     1       0.670 -10.983  -2.282  0.00  0.00    +0.173 HD
BRANCH  27  30
ATOM     30  C   UNL     1       0.912 -12.833  -4.132  0.00  0.00    +0.132 C 
BRANCH  30  31
ATOM     31  C   UNL     1       1.023 -13.450  -5.503  0.00  0.00    -0.039 A 
ATOM     32  C   UNL     1      -0.118 -13.837  -6.181  0.00  0.00    +0.004 A 
ATOM     33  C   UNL     1      -0.016 -14.402  -7.438  0.00  0.00    +0.000 A 
ATOM     34  C   UNL     1       1.226 -14.580  -8.018  0.00  0.00    +0.000 A 
ATOM     35  C   UNL     1       2.367 -14.193  -7.340  0.00  0.00    +0.000 A 
ATOM     36  C   UNL     1       2.265 -13.623  -6.085  0.00  0.00    +0.004 A 
ENDBRANCH  30  31
ENDBRANCH  27  30
ENDBRANCH  24  26
ENDBRANCH   4  24
TORSDOF 6
