REMARK  Name = ZINC02620240
REMARK  3 active torsions:
REMARK  status: ('A' for Active; 'I' for Inactive)
REMARK    1  A    between atoms: C_1  and  C_2
REMARK    2  A    between atoms: C_5  and  S_7
REMARK    3  A    between atoms: S_7  and  N_10
REMARK                            x       y       z     vdW  Elec       q    Type
REMARK                         _______ _______ _______ _____ _____    ______ ____
ROOT
ATOM      1  N   UNL     1       1.300  -4.748  -1.614  0.00  0.00    -0.255 N 
ATOM      2  C   UNL     1       2.291  -4.254  -2.458  0.00  0.00    +0.066 A 
ATOM      3  C   UNL     1       2.313  -4.612  -3.790  0.00  0.00    +0.027 A 
ATOM      4  C   UNL     1       3.300  -4.122  -4.639  0.00  0.00    +0.004 A 
ATOM      5  C   UNL     1       4.268  -3.279  -4.182  0.00  0.00    +0.028 A 
ATOM      6  C   UNL     1       4.282  -2.889  -2.833  0.00  0.00    +0.073 A 
ATOM      7  N   UNL     1       5.224  -2.062  -2.365  0.00  0.00    -0.255 NA
ATOM      8  C   UNL     1       5.243  -1.694  -1.106  0.00  0.00    +0.111 A 
ATOM      9  C   UNL     1       4.290  -2.143  -0.197  0.00  0.00    +0.020 A 
ATOM     10  C   UNL     1       3.299  -2.991  -0.610  0.00  0.00    +0.013 A 
ATOM     11  C   UNL     1       3.278  -3.378  -1.960  0.00  0.00    +0.025 A 
ATOM     12  H   UNL     1       0.945  -5.640  -1.754  0.00  0.00    +0.188 HD
ENDROOT
BRANCH   1  13
ATOM     13  S   UNL     1       0.729  -3.814  -0.372  0.00  0.00    +0.084 S 
ATOM     14  O   UNL     1       0.984  -2.463  -0.729  0.00  0.00    -0.148 OA
ATOM     15  O   UNL     1       1.224  -4.390   0.830  0.00  0.00    -0.148 OA
BRANCH  13  20
ATOM     16  C   UNL     1      -5.164  -3.684  -0.880  0.00  0.00    +0.051 C 
ATOM     17  C   UNL     1      -3.707  -3.930  -0.582  0.00  0.00    -0.011 A 
ATOM     18  C   UNL     1      -3.145  -4.874   0.212  0.00  0.00    +0.013 A 
ATOM     19  C   UNL     1      -1.769  -4.913   0.337  0.00  0.00    +0.037 A 
ATOM     20  C   UNL     1      -1.022  -4.005  -0.339  0.00  0.00    +0.148 A 
ATOM     21  S   UNL     1      -2.272  -3.058  -1.191  0.00  0.00    -0.073 S 
ENDBRANCH  13  20
ENDBRANCH   1  13
TORSDOF 2
