REMARK  Name = ZINC01785030
REMARK  8 active torsions:
REMARK  status: ('A' for Active; 'I' for Inactive)
REMARK    1  A    between atoms: C_1  and  C_2
REMARK    2  A    between atoms: C_6  and  S_8
REMARK    3  A    between atoms: S_8  and  C_11
REMARK    4  A    between atoms: N_22  and  N_25
REMARK    5  A    between atoms: C_23  and  N_24
REMARK    6  A    between atoms: C_26  and  C_27
REMARK    7  A    between atoms: C_30  and  O_34
REMARK    8  A    between atoms: C_31  and  O_33
REMARK                            x       y       z     vdW  Elec       q    Type
REMARK                         _______ _______ _______ _____ _____    ______ ____
ROOT
ATOM      1  C   UNL     1      -4.373   5.125   0.824  0.00  0.00    +0.162 A 
ATOM      2  C   UNL     1      -4.451   5.172  -0.589  0.00  0.00    +0.137 A 
ATOM      3  C   UNL     1      -3.241   4.502  -1.083  0.00  0.00    +0.184 A 
ATOM      4  N   UNL     1      -3.036   4.397  -2.376  0.00  0.00    -0.224 NA
ATOM      5  C   UNL     1      -3.928   4.906  -3.236  0.00  0.00    +0.092 A 
ATOM      6  C   UNL     1      -3.716   4.799  -4.623  0.00  0.00    +0.030 A 
ATOM      7  C   UNL     1      -4.627   5.319  -5.489  0.00  0.00    +0.002 A 
ATOM      8  C   UNL     1      -5.775   5.959  -5.024  0.00  0.00    +0.002 A 
ATOM      9  C   UNL     1      -6.015   6.082  -3.691  0.00  0.00    +0.030 A 
ATOM     10  C   UNL     1      -5.095   5.557  -2.763  0.00  0.00    +0.090 A 
ATOM     11  N   UNL     1      -5.326   5.666  -1.450  0.00  0.00    -0.240 NA
ATOM     12  N   UNL     1      -2.540   4.098   0.036  0.00  0.00    -0.197 N 
ATOM     13  C   UNL     1      -3.230   4.482   1.161  0.00  0.00    +0.148 A 
ENDROOT
BRANCH   1  14
ATOM     14  S   UNL     1      -5.558   5.786   1.948  0.00  0.00    +0.030 S 
ATOM     15  O   UNL     1      -6.793   5.849   1.246  0.00  0.00    -0.164 OA
ATOM     16  O   UNL     1      -5.409   5.067   3.164  0.00  0.00    -0.164 OA
BRANCH  14  22
ATOM     17  C   UNL     1      -5.717  10.904   0.898  0.00  0.00    +0.044 C 
ATOM     18  C   UNL     1      -5.194   9.783   1.759  0.00  0.00    -0.049 A 
ATOM     19  C   UNL     1      -4.344  10.060   2.814  0.00  0.00    +0.003 A 
ATOM     20  C   UNL     1      -3.865   9.032   3.603  0.00  0.00    +0.002 A 
ATOM     21  C   UNL     1      -4.240   7.727   3.342  0.00  0.00    +0.027 A 
ATOM     22  C   UNL     1      -5.086   7.449   2.285  0.00  0.00    +0.094 A 
ATOM     23  C   UNL     1      -5.565   8.478   1.495  0.00  0.00    +0.030 A 
ENDBRANCH  14  22
ENDBRANCH   1  14
BRANCH  13  24
ATOM     24  N   UNL     1      -2.814   4.246   2.459  0.00  0.00    -0.341 N 
ATOM     25  H   UNL     1      -1.980   3.777   2.624  0.00  0.00    +0.144 HD
ATOM     26  H   UNL     1      -3.356   4.548   3.205  0.00  0.00    +0.144 HD
ENDBRANCH  13  24
BRANCH  12  27
ATOM     27  N   UNL     1      -1.318   3.412   0.027  0.00  0.00    -0.171 NA
ATOM     28  C   UNL     1      -1.302   2.115   0.020  0.00  0.00    +0.141 C 
BRANCH  28  29
ATOM     29  C   UNL     1      -0.017   1.393   0.010  0.00  0.00    -0.002 A 
ATOM     30  C   UNL     1       1.186   2.105   0.002  0.00  0.00    +0.013 A 
ATOM     31  C   UNL     1       2.387   1.428  -0.013  0.00  0.00    +0.050 A 
ATOM     32  C   UNL     1       2.405   0.041  -0.020  0.00  0.00    +0.158 A 
ATOM     33  C   UNL     1       1.210  -0.675  -0.013  0.00  0.00    +0.159 A 
ATOM     34  C   UNL     1       0.002  -0.004   0.002  0.00  0.00    +0.058 A 
BRANCH  33  35
ATOM     35  O   UNL     1       1.232  -2.035  -0.021  0.00  0.00    -0.503 OA
ATOM     36  H   UNL     1       1.230  -2.424  -0.906  0.00  0.00    +0.292 HD
ENDBRANCH  33  35
BRANCH  32  37
ATOM     37  O   UNL     1       3.592  -0.622  -0.035  0.00  0.00    -0.503 OA
ATOM     38  H   UNL     1       3.928  -0.808  -0.923  0.00  0.00    +0.292 HD
ENDBRANCH  32  37
ENDBRANCH  28  29
ENDBRANCH  12  27
TORSDOF 7
