REMARK  Name = ZINC12402295
REMARK  7 active torsions:
REMARK  status: ('A' for Active; 'I' for Inactive)
REMARK    1  A    between atoms: C_1  and  C_2
REMARK    2  A    between atoms: C_2  and  C_33
REMARK    3  A    between atoms: C_6  and  C_22
REMARK    4  A    between atoms: C_8  and  C_20
REMARK    5  A    between atoms: C_9  and  N_19
REMARK    6  A    between atoms: N_10  and  C_11
REMARK    7  A    between atoms: C_25  and  N_27
REMARK                            x       y       z     vdW  Elec       q    Type
REMARK                         _______ _______ _______ _____ _____    ______ ____
ROOT
ATOM      1  C   UNL     1      -6.099   8.923  -1.433  0.00  0.00    +0.011 C 
ATOM      2  C   UNL     1      -5.191   8.538  -2.602  0.00  0.00    -0.023 C 
ATOM      3  C   UNL     1      -3.770   8.290  -2.089  0.00  0.00    +0.058 C 
ATOM      4  C   UNL     1      -3.780   7.147  -1.105  0.00  0.00    +0.025 C 
ATOM      5  C   UNL     1      -4.668   6.138  -1.219  0.00  0.00    +0.026 C 
ATOM      6  C   UNL     1      -4.664   4.985  -0.247  0.00  0.00    +0.104 C 
ATOM      7  C   UNL     1      -3.916   5.337   1.005  0.00  0.00    +0.077 C 
ATOM      8  C   UNL     1      -3.055   6.386   1.037  0.00  0.00    +0.107 C 
ATOM      9  N   UNL     1      -2.860   7.154  -0.089  0.00  0.00    -0.260 N 
ATOM     10  C   UNL     1      -5.628   6.131  -2.248  0.00  0.00    +0.162 C 
ATOM     11  O   UNL     1      -6.410   5.204  -2.328  0.00  0.00    -0.292 OA
ATOM     12  C   UNL     1      -5.705   7.249  -3.251  0.00  0.00    +0.086 C 
ATOM     13  C   UNL     1      -5.175   9.668  -3.634  0.00  0.00    +0.011 C 
ENDROOT
BRANCH   9  14
ATOM     14  C   UNL     1      -1.713   7.949  -0.197  0.00  0.00    +0.041 A 
ATOM     15  C   UNL     1      -0.580   7.453  -0.829  0.00  0.00    +0.025 A 
ATOM     16  C   UNL     1       0.551   8.239  -0.935  0.00  0.00    +0.023 A 
ATOM     17  C   UNL     1       0.556   9.520  -0.413  0.00  0.00    +0.059 A 
ATOM     18  C   UNL     1      -0.572  10.018   0.218  0.00  0.00    +0.061 A 
ATOM     19  C   UNL     1      -1.708   9.237   0.322  0.00  0.00    +0.045 A 
ATOM     20 CL   UNL     1      -0.562  11.626   0.872  0.00  0.00    -0.082 Cl
ATOM     21 CL   UNL     1       1.978  10.506  -0.548  0.00  0.00    -0.082 Cl
ENDBRANCH   9  14
BRANCH   6  22
ATOM     22  C   UNL     1      -4.009   3.794  -0.896  0.00  0.00    +0.005 A 
ATOM     23  C   UNL     1      -4.531   2.570  -1.159  0.00  0.00    +0.014 A 
ATOM     24  C   UNL     1      -3.737   1.621  -1.775  0.00  0.00    +0.041 A 
ATOM     25  C   UNL     1      -2.456   1.938  -2.087  0.00  0.00    +0.164 A 
ATOM     26  S   UNL     1      -2.344   3.627  -1.520  0.00  0.00    -0.068 S 
BRANCH  25  27
ATOM     27  N   UNL     1      -1.421   1.102  -2.737  0.00  0.00    +0.063 N 
ATOM     28  O   UNL     1      -1.679  -0.043  -3.062  0.00  0.00    -0.126 OA
ATOM     29  O   UNL     1      -0.314   1.562  -2.952  0.00  0.00    -0.126 OA
ENDBRANCH  25  27
ENDBRANCH   6  22
BRANCH   8  30
ATOM     30  N   UNL     1      -2.377   6.682   2.195  0.00  0.00    -0.345 N 
ATOM     31  H   UNL     1      -2.441   6.089   2.960  0.00  0.00    +0.144 HD
ATOM     32  H   UNL     1      -1.834   7.484   2.247  0.00  0.00    +0.144 HD
ENDBRANCH   8  30
BRANCH   7  33
ATOM     33  C   UNL     1      -4.114   4.552   2.187  0.00  0.00    +0.099 C 
ATOM     34  N   UNL     1      -4.271   3.930   3.124  0.00  0.00    -0.191 NA
ENDBRANCH   7  33
TORSDOF 5
