REMARK  Name = ZINC01090071
REMARK  7 active torsions:
REMARK  status: ('A' for Active; 'I' for Inactive)
REMARK    1  A    between atoms: C_8  and  C_10
REMARK    2  A    between atoms: C_10  and  O_12
REMARK    3  A    between atoms: O_12  and  C_13
REMARK    4  A    between atoms: C_17  and  C_19
REMARK    5  A    between atoms: N_20  and  N_21
REMARK    6  A    between atoms: N_21  and  C_22
REMARK    7  A    between atoms: C_22  and  N_24
REMARK                            x       y       z     vdW  Elec       q    Type
REMARK                         _______ _______ _______ _____ _____    ______ ____
ROOT
ATOM      1  C   UNL     1       3.685   8.730   0.044  0.00  0.00    +0.133 A 
ATOM      2  C   UNL     1       5.039   8.427  -0.009  0.00  0.00    +0.046 A 
ATOM      3  C   UNL     1       5.981   9.438   0.021  0.00  0.00    +0.004 A 
ATOM      4  C   UNL     1       5.582  10.757   0.103  0.00  0.00    +0.010 A 
ATOM      5  C   UNL     1       4.222  11.072   0.156  0.00  0.00    -0.002 A 
ATOM      6  C   UNL     1       3.272  10.049   0.121  0.00  0.00    +0.055 A 
ENDROOT
BRANCH   5   7
ATOM      7  C   UNL     1       3.791  12.479   0.244  0.00  0.00    +0.138 C 
ATOM      8  N   UNL     1       4.676  13.428   0.272  0.00  0.00    -0.188 NA
BRANCH   8   9
ATOM      9  N   UNL     1       4.267  14.765   0.355  0.00  0.00    -0.219 N 
ATOM     10  H   UNL     1       3.322  14.982   0.393  0.00  0.00    +0.176 HD
BRANCH   9  11
ATOM     11  C   UNL     1       5.186  15.751   0.384  0.00  0.00    +0.147 C 
ATOM     12  S   UNL     1       4.686  17.385   0.486  0.00  0.00    -0.017 S 
BRANCH  11  13
ATOM     13  N   UNL     1       6.499  15.450   0.332  0.00  0.00    -0.339 N 
ATOM     14  H   UNL     1       6.782  14.524   0.275  0.00  0.00    +0.144 HD
ATOM     15  H   UNL     1       7.160  16.159   0.353  0.00  0.00    +0.144 HD
ENDBRANCH  11  13
ENDBRANCH   9  11
ENDBRANCH   8   9
ENDBRANCH   5   7
BRANCH   1  16
ATOM     16  O   UNL     1       2.764   7.731   0.014  0.00  0.00    -0.422 OA
BRANCH  16  17
ATOM     17  C   UNL     1       2.578   7.035   1.155  0.00  0.00    +0.353 C 
ATOM     18  O   UNL     1       3.282   7.253   2.122  0.00  0.00    -0.244 OA
BRANCH  17  26
ATOM     19  C   UNL     1      -1.389   2.550   2.826  0.00  0.00    +0.001 A 
ATOM     20  C   UNL     1      -1.993   2.549   1.574  0.00  0.00    +0.001 A 
ATOM     21  C   UNL     1      -1.546   3.422   0.603  0.00  0.00    +0.016 A 
ATOM     22  C   UNL     1      -0.500   4.274   0.885  0.00  0.00    +0.022 A 
ATOM     23  C   UNL     1       0.138   4.293   2.148  0.00  0.00    +0.008 A 
ATOM     24  C   UNL     1      -0.358   3.383   3.118  0.00  0.00    +0.010 A 
ATOM     25  C   UNL     1       1.190   5.218   2.280  0.00  0.00    +0.070 A 
ATOM     26  C   UNL     1       1.526   6.016   1.228  0.00  0.00    +0.116 A 
ATOM     27  S   UNL     1       0.372   5.515  -0.037  0.00  0.00    -0.080 S 
ATOM     28 CL   UNL     1       2.056   5.343   3.779  0.00  0.00    -0.082 Cl
ENDBRANCH  17  26
ENDBRANCH  16  17
ENDBRANCH   1  16
TORSDOF 7
