REMARK  Name = ZINC12714068
REMARK  15 active torsions:
REMARK  status: ('A' for Active; 'I' for Inactive)
REMARK    1  A    between atoms: C_1  and  C_2
REMARK    2  A    between atoms: C_2  and  O_3
REMARK    3  A    between atoms: O_3  and  C_4
REMARK    4  A    between atoms: C_7  and  C_10
REMARK    5  A    between atoms: C_10  and  C_12
REMARK    6  A    between atoms: C_10  and  N_19
REMARK    7  A    between atoms: N_14  and  C_15
REMARK    8  A    between atoms: C_15  and  C_16
REMARK    9  A    between atoms: C_15  and  C_17
REMARK   10  A    between atoms: C_15  and  C_18
REMARK   11  A    between atoms: N_19  and  C_20
REMARK   12  A    between atoms: C_23  and  C_27
REMARK   13  A    between atoms: C_25  and  C_26
REMARK   14  A    between atoms: C_28  and  C_30
REMARK   15  A    between atoms: C_30  and  N_31
REMARK                            x       y       z     vdW  Elec       q    Type
REMARK                         _______ _______ _______ _____ _____    ______ ____
ROOT
ATOM      1  N   UNL     1      -4.633   3.574  -1.887  0.00  0.00    -0.254 N 
ATOM      2  C   UNL     1      -4.098   4.739  -1.472  0.00  0.00    +0.242 C 
ATOM      3  O   UNL     1      -4.487   5.787  -1.942  0.00  0.00    -0.273 OA
ENDROOT
BRANCH   1   4
ATOM      4  C   UNL     1      -4.183   2.365  -1.345  0.00  0.00    +0.040 A 
ATOM      5  C   UNL     1      -4.712   1.899  -0.148  0.00  0.00    +0.024 A 
ATOM      6  C   UNL     1      -4.269   0.704   0.382  0.00  0.00    +0.005 A 
ATOM      7  C   UNL     1      -3.293  -0.025  -0.273  0.00  0.00    -0.050 A 
ATOM      8  C   UNL     1      -2.760   0.438  -1.461  0.00  0.00    +0.008 A 
ATOM      9  C   UNL     1      -3.202   1.631  -1.999  0.00  0.00    -0.029 A 
ATOM     10  C   UNL     1      -2.621   2.136  -3.295  0.00  0.00    +0.045 C 
ATOM     11  C   UNL     1      -2.808  -1.327   0.311  0.00  0.00    +0.044 C 
ENDBRANCH   1   4
BRANCH   1  12
ATOM     12  C   UNL     1      -5.685   3.573  -2.906  0.00  0.00    +0.197 C 
BRANCH  12  16
ATOM     13  C   UNL     1      -9.139   5.581  -1.388  0.00  0.00    +0.121 A 
ATOM     14  C   UNL     1      -8.691   5.845  -2.674  0.00  0.00    +0.046 A 
ATOM     15  C   UNL     1      -7.574   5.195  -3.163  0.00  0.00    +0.009 A 
ATOM     16  C   UNL     1      -6.903   4.282  -2.370  0.00  0.00    -0.018 A 
ATOM     17  C   UNL     1      -7.351   4.013  -1.090  0.00  0.00    +0.009 A 
ATOM     18  C   UNL     1      -8.463   4.665  -0.595  0.00  0.00    +0.046 A 
BRANCH  13  19
ATOM     19  O   UNL     1     -10.238   6.219  -0.905  0.00  0.00    -0.492 OA
BRANCH  19  21
ATOM     20  C   UNL     1     -11.887   6.708   0.792  0.00  0.00    +0.048 C 
ATOM     21  C   UNL     1     -10.641   5.898   0.427  0.00  0.00    +0.225 C 
ENDBRANCH  19  21
ENDBRANCH  13  19
ENDBRANCH  12  16
BRANCH  12  22
ATOM     22  C   UNL     1      -6.044   2.152  -3.256  0.00  0.00    +0.239 C 
ATOM     23  O   UNL     1      -6.091   1.307  -2.388  0.00  0.00    -0.273 OA
ATOM     24  N   UNL     1      -6.312   1.821  -4.535  0.00  0.00    -0.309 N 
ATOM     25  H   UNL     1      -6.274   2.497  -5.229  0.00  0.00    +0.149 HD
BRANCH  24  26
ATOM     26  C   UNL     1      -6.661   0.439  -4.876  0.00  0.00    +0.026 C 
ATOM     27  C   UNL     1      -7.923   0.030  -4.115  0.00  0.00    +0.031 C 
ATOM     28  C   UNL     1      -6.915   0.334  -6.381  0.00  0.00    +0.031 C 
ATOM     29  C   UNL     1      -5.508  -0.488  -4.487  0.00  0.00    +0.031 C 
ENDBRANCH  24  26
ENDBRANCH  12  22
ENDBRANCH   1  12
BRANCH   2  30
ATOM     30  C   UNL     1      -3.015   4.740  -0.424  0.00  0.00    +0.242 C 
BRANCH  30  31
ATOM     31  N   UNL     1      -2.604   6.119  -0.147  0.00  0.00    -0.235 N 
ATOM     32  C   UNL     1      -1.608   6.823  -0.781  0.00  0.00    +0.090 A 
ATOM     33  C   UNL     1      -0.721   6.528  -1.811  0.00  0.00    +0.029 A 
ATOM     34  C   UNL     1       0.178   7.471  -2.224  0.00  0.00    +0.002 A 
ATOM     35  C   UNL     1       0.208   8.727  -1.632  0.00  0.00    +0.002 A 
ATOM     36  C   UNL     1      -0.655   9.043  -0.624  0.00  0.00    +0.032 A 
ATOM     37  C   UNL     1      -1.583   8.093  -0.178  0.00  0.00    +0.113 A 
ATOM     38  N   UNL     1      -2.538   8.112   0.774  0.00  0.00    -0.129 NA
ATOM     39  N   UNL     1      -3.148   6.980   0.817  0.00  0.00    -0.064 NA
ENDBRANCH  30  31
ENDBRANCH   2  30
TORSDOF 9
