REMARK  Name = ZINC39679079
REMARK  10 active torsions:
REMARK  status: ('A' for Active; 'I' for Inactive)
REMARK    1  A    between atoms: C_1  and  N_2
REMARK    2  A    between atoms: N_2  and  C_3
REMARK    3  A    between atoms: N_2  and  C_4
REMARK    4  A    between atoms: C_4  and  C_5
REMARK    5  A    between atoms: C_5  and  C_6
REMARK    6  A    between atoms: C_6  and  C_7
REMARK    7  A    between atoms: C_7  and  N_8
REMARK    8  A    between atoms: C_9  and  C_11
REMARK    9  A    between atoms: C_22  and  C_24
REMARK   10  A    between atoms: C_27  and  C_29
REMARK                            x       y       z     vdW  Elec       q    Type
REMARK                         _______ _______ _______ _____ _____    ______ ____
ROOT
ATOM      1  C   UNL     1      -5.795  -6.442  -0.330  0.00  0.00    +0.100 C 
ATOM      2  C   UNL     1      -6.613  -5.804  -1.476  0.00  0.00    +0.121 C 
ATOM      3  N   UNL     1      -6.526  -6.780  -2.587  0.00  0.00    -0.294 N 
ATOM      4  C   UNL     1      -6.630  -8.103  -1.925  0.00  0.00    +0.115 C 
ATOM      5  C   UNL     1      -5.811  -7.951  -0.627  0.00  0.00    -0.004 C 
ATOM      6  C   UNL     1      -4.390  -8.464  -0.838  0.00  0.00    -0.010 C 
ATOM      7  C   UNL     1      -4.428  -9.976  -1.076  0.00  0.00    -0.082 C 
ATOM      8  N   UNL     1      -5.042 -10.639   0.081  0.00  0.00    +0.379 N 
ATOM      9  C   UNL     1      -6.438 -10.210   0.222  0.00  0.00    -0.082 C 
ATOM     10  C   UNL     1      -6.486  -8.707   0.513  0.00  0.00    -0.010 C 
ATOM     11  C   UNL     1      -6.385  -6.524  -3.903  0.00  0.00    +0.282 C 
ATOM     12  O   UNL     1      -6.330  -7.442  -4.699  0.00  0.00    -0.267 OA
ATOM     13  H   UNL     1      -5.010 -11.639  -0.051  0.00  0.00    -0.086 HD
ATOM     14  H   UNL     1      -4.531 -10.397   0.917  0.00  0.00    -0.086 HD
ENDROOT
BRANCH  11  15
ATOM     15  C   UNL     1      -6.299  -5.139  -4.374  0.00  0.00    +0.190 A 
ATOM     16  C   UNL     1      -6.160  -4.738  -5.684  0.00  0.00    +0.055 A 
ATOM     17  C   UNL     1      -6.120  -3.340  -5.676  0.00  0.00    +0.050 A 
ATOM     18  C   UNL     1      -6.234  -2.943  -4.375  0.00  0.00    +0.136 A 
ATOM     19  O   UNL     1      -6.348  -4.034  -3.600  0.00  0.00    -0.450 OA
BRANCH  18  20
ATOM     20  C   UNL     1      -6.239  -1.545  -3.899  0.00  0.00    +0.017 A 
ATOM     21  C   UNL     1      -6.125  -0.493  -4.812  0.00  0.00    +0.014 A 
ATOM     22  C   UNL     1      -6.131   0.810  -4.362  0.00  0.00    +0.039 A 
ATOM     23  C   UNL     1      -6.249   1.078  -3.007  0.00  0.00    +0.123 A 
ATOM     24  C   UNL     1      -6.362   0.038  -2.097  0.00  0.00    +0.039 A 
ATOM     25  C   UNL     1      -6.363  -1.269  -2.536  0.00  0.00    +0.014 A 
ATOM     26  F   UNL     1      -6.254   2.357  -2.572  0.00  0.00    -0.205 F 
ENDBRANCH  18  20
ENDBRANCH  11  15
BRANCH   1  28
ATOM     27  N   UNL     1      -3.676  -5.862   0.806  0.00  0.00    -0.315 N 
ATOM     28  C   UNL     1      -4.381  -5.921  -0.341  0.00  0.00    +0.218 C 
ATOM     29  O   UNL     1      -3.878  -5.554  -1.382  0.00  0.00    -0.275 OA
ATOM     30  H   UNL     1      -4.079  -6.155   1.638  0.00  0.00    +0.149 HD
BRANCH  27  31
ATOM     31  C   UNL     1      -2.302  -5.354   0.796  0.00  0.00    +0.104 C 
BRANCH  31  32
ATOM     32  C   UNL     1      -1.733  -5.393   2.216  0.00  0.00    +0.017 C 
BRANCH  32  33
ATOM     33  C   UNL     1      -0.298  -4.864   2.205  0.00  0.00    -0.017 C 
BRANCH  33  34
ATOM     34  C   UNL     1       0.271  -4.902   3.624  0.00  0.00    -0.080 C 
BRANCH  34  36
ATOM     35  C   UNL     1       2.153  -4.318   4.992  0.00  0.00    -0.097 C 
ATOM     36  N   UNL     1       1.649  -4.394   3.614  0.00  0.00    +0.376 N 
ATOM     37  C   UNL     1       2.499  -5.300   2.830  0.00  0.00    -0.097 C 
ATOM     38  H   UNL     1       1.665  -3.474   3.199  0.00  0.00    -0.083 HD
ENDBRANCH  34  36
ENDBRANCH  33  34
ENDBRANCH  32  33
ENDBRANCH  31  32
ENDBRANCH  27  31
ENDBRANCH   1  28
TORSDOF 8
