REMARK  Name = ZINC39684149
REMARK  6 active torsions:
REMARK  status: ('A' for Active; 'I' for Inactive)
REMARK    1  A    between atoms: C_1  and  C_2
REMARK    2  A    between atoms: C_7  and  C_11
REMARK    3  A    between atoms: C_11  and  C_12
REMARK    4  A    between atoms: C_12  and  N_13
REMARK    5  A    between atoms: C_14  and  C_16
REMARK    6  A    between atoms: C_27  and  C_29
REMARK                            x       y       z     vdW  Elec       q    Type
REMARK                         _______ _______ _______ _____ _____    ______ ____
ROOT
ATOM      1  C   UNL     1      -8.675   1.954  -6.774  0.00  0.00    +0.100 C 
ATOM      2  C   UNL     1      -9.780   2.296  -5.749  0.00  0.00    +0.121 C 
ATOM      3  N   UNL     1     -11.023   1.749  -6.343  0.00  0.00    -0.296 N 
ATOM      4  C   UNL     1     -10.607   0.460  -6.946  0.00  0.00    +0.115 C 
ATOM      5  C   UNL     1      -9.222   0.749  -7.557  0.00  0.00    -0.004 C 
ATOM      6  C   UNL     1      -8.305  -0.457  -7.378  0.00  0.00    -0.010 C 
ATOM      7  C   UNL     1      -8.837  -1.626  -8.212  0.00  0.00    -0.082 C 
ATOM      8  N   UNL     1      -8.893  -1.235  -9.626  0.00  0.00    +0.379 N 
ATOM      9  C   UNL     1      -9.848  -0.134  -9.803  0.00  0.00    -0.082 C 
ATOM     10  C   UNL     1      -9.359   1.097  -9.036  0.00  0.00    -0.010 C 
ATOM     11  C   UNL     1     -12.253   2.299  -6.335  0.00  0.00    +0.249 C 
ATOM     12  O   UNL     1     -13.198   1.681  -6.786  0.00  0.00    -0.270 OA
ATOM     13  H   UNL     1      -7.978  -0.936  -9.927  0.00  0.00    -0.086 HD
ATOM     14  H   UNL     1      -9.186  -2.025 -10.181  0.00  0.00    -0.086 HD
ENDROOT
BRANCH  11  15
ATOM     15  C   UNL     1     -12.454   3.652  -5.780  0.00  0.00    +0.073 A 
ATOM     16  C   UNL     1     -11.702   4.079  -4.682  0.00  0.00    +0.016 A 
ATOM     17  C   UNL     1     -11.893   5.344  -4.168  0.00  0.00    +0.002 A 
ATOM     18  C   UNL     1     -12.828   6.193  -4.736  0.00  0.00    +0.023 A 
ATOM     19  C   UNL     1     -13.577   5.781  -5.823  0.00  0.00    +0.077 A 
ATOM     20  C   UNL     1     -13.392   4.515  -6.353  0.00  0.00    +0.154 A 
ATOM     21  F   UNL     1     -14.120   4.114  -7.418  0.00  0.00    -0.203 F 
ATOM     22 CL   UNL     1     -14.746   6.854  -6.527  0.00  0.00    -0.081 Cl
ENDBRANCH  11  15
BRANCH   1  24
ATOM     23  N   UNL     1      -6.209   1.812  -6.658  0.00  0.00    -0.315 N 
ATOM     24  C   UNL     1      -7.398   1.585  -6.066  0.00  0.00    +0.218 C 
ATOM     25  O   UNL     1      -7.440   1.083  -4.962  0.00  0.00    -0.275 OA
ATOM     26  H   UNL     1      -6.175   2.213  -7.540  0.00  0.00    +0.149 HD
BRANCH  23  27
ATOM     27  C   UNL     1      -4.967   1.452  -5.969  0.00  0.00    +0.109 C 
BRANCH  27  28
ATOM     28  C   UNL     1      -3.771   1.812  -6.852  0.00  0.00    +0.056 C 
BRANCH  28  35
ATOM     29  C   UNL     1       1.382  -0.710  -4.320  0.00  0.00    +0.046 C 
ATOM     30  C   UNL     1       0.139  -0.837  -5.162  0.00  0.00    -0.027 A 
ATOM     31  C   UNL     1      -0.180  -2.043  -5.746  0.00  0.00    +0.005 A 
ATOM     32  C   UNL     1      -1.322  -2.172  -6.524  0.00  0.00    +0.001 A 
ATOM     33  C   UNL     1      -2.151  -1.104  -6.724  0.00  0.00    +0.010 A 
ATOM     34  C   UNL     1      -1.848   0.127  -6.140  0.00  0.00    +0.003 A 
ATOM     35  C   UNL     1      -2.493   1.442  -6.143  0.00  0.00    -0.021 A 
ATOM     36  C   UNL     1      -1.731   2.255  -5.395  0.00  0.00    +0.087 A 
ATOM     37  N   UNL     1      -0.650   1.569  -4.913  0.00  0.00    -0.360 N 
ATOM     38  C   UNL     1      -0.694   0.262  -5.346  0.00  0.00    +0.050 A 
ATOM     39  H   UNL     1       0.043   1.945  -4.348  0.00  0.00    +0.165 HD
ENDBRANCH  28  35
ENDBRANCH  27  28
ENDBRANCH  23  27
ENDBRANCH   1  24
TORSDOF 5
