REMARK  Name = ZINC21535749
REMARK  7 active torsions:
REMARK  status: ('A' for Active; 'I' for Inactive)
REMARK    1  A    between atoms: C_1  and  C_2
REMARK    2  A    between atoms: C_2  and  C_3
REMARK    3  A    between atoms: C_2  and  C_4
REMARK    4  A    between atoms: C_4  and  C_6
REMARK    5  A    between atoms: C_4  and  N_18
REMARK    6  A    between atoms: N_18  and  S_19
REMARK    7  A    between atoms: S_19  and  C_22
REMARK                            x       y       z     vdW  Elec       q    Type
REMARK                         _______ _______ _______ _____ _____    ______ ____
ROOT
ATOM      1  N   UNL     1       5.049  -0.662  -1.130  0.00  0.00    -0.178 NA
ATOM      2  H   UNL     1       4.674  -1.680  -0.949  0.00  0.00    +0.149 HD
ENDROOT
BRANCH   1   3
ATOM      3  S   UNL     1       5.658   0.213   0.138  0.00  0.00    +0.059 S 
ATOM      4  O   UNL     1       6.788   0.916  -0.360  0.00  0.00    -0.153 OA
ATOM      5  O   UNL     1       5.741  -0.677   1.242  0.00  0.00    -0.153 OA
BRANCH   3   6
ATOM      6  C   UNL     1       4.453   1.427   0.558  0.00  0.00    +0.106 A 
ATOM      7  C   UNL     1       4.494   2.681  -0.024  0.00  0.00    +0.030 A 
ATOM      8  C   UNL     1       3.550   3.619   0.318  0.00  0.00    +0.025 A 
ATOM      9  C   UNL     1       2.539   3.334   1.253  0.00  0.00    +0.037 A 
ATOM     10  C   UNL     1       2.498   2.080   1.823  0.00  0.00    -0.024 A 
ATOM     11  C   UNL     1       3.465   1.137   1.470  0.00  0.00    +0.034 A 
ATOM     12  C   UNL     1       1.477   1.617   2.810  0.00  0.00    +0.037 C 
ATOM     13  C   UNL     1       0.090   2.144   2.608  0.00  0.00    +0.014 C 
ATOM     14  C   UNL     1      -0.087   3.567   3.081  0.00  0.00    +0.096 C 
ATOM     15  C   UNL     1       0.568   4.540   2.169  0.00  0.00    +0.217 C 
ATOM     16  O   UNL     1       0.003   5.603   2.018  0.00  0.00    -0.275 OA
ATOM     17  N   UNL     1       1.683   4.379   1.514  0.00  0.00    -0.285 N 
ATOM     18  H   UNL     1       1.900   5.381   1.116  0.00  0.00    +0.155 HD
ENDBRANCH   3   6
ENDBRANCH   1   3
BRANCH   1  19
ATOM     19  C   UNL     1       4.812  -0.013  -2.421  0.00  0.00    +0.165 C 
BRANCH  19  20
ATOM     20  C   UNL     1       5.663  -0.670  -3.478  0.00  0.00    +0.235 C 
ATOM     21  O   UNL     1       6.110  -1.782  -3.291  0.00  0.00    -0.274 OA
ATOM     22  N   UNL     1       5.928  -0.021  -4.629  0.00  0.00    -0.296 N 
ATOM     23  C   UNL     1       6.681  -0.668  -5.717  0.00  0.00    +0.113 C 
ATOM     24  C   UNL     1       5.741  -0.796  -6.920  0.00  0.00    +0.054 C 
ATOM     25  C   UNL     1       5.029   0.505  -7.183  0.00  0.00    -0.041 A 
ATOM     26  C   UNL     1       4.480   0.696  -8.446  0.00  0.00    +0.004 A 
ATOM     27  C   UNL     1       3.804   1.859  -8.749  0.00  0.00    +0.000 A 
ATOM     28  C   UNL     1       3.670   2.846  -7.790  0.00  0.00    +0.000 A 
ATOM     29  C   UNL     1       4.217   2.662  -6.537  0.00  0.00    +0.005 A 
ATOM     30  C   UNL     1       4.901   1.492  -6.232  0.00  0.00    -0.027 A 
ATOM     31  C   UNL     1       5.483   1.359  -4.847  0.00  0.00    +0.143 C 
ENDBRANCH  19  20
BRANCH  19  33
ATOM     32  C   UNL     1       2.937  -1.627  -2.767  0.00  0.00    +0.009 C 
ATOM     33  C   UNL     1       3.336  -0.150  -2.798  0.00  0.00    +0.010 C 
ATOM     34  C   UNL     1       2.480   0.631  -1.799  0.00  0.00    +0.009 C 
ENDBRANCH  19  33
ENDBRANCH   1  19
TORSDOF 5
