REMARK  Name = ZINC13467180
REMARK  13 active torsions:
REMARK  status: ('A' for Active; 'I' for Inactive)
REMARK    1  A    between atoms: C_1  and  C_2
REMARK    2  A    between atoms: C_2  and  C_4
REMARK    3  A    between atoms: C_2  and  C_10
REMARK    4  A    between atoms: C_4  and  C_5
REMARK    5  A    between atoms: C_5  and  C_6
REMARK    6  A    between atoms: C_6  and  C_7
REMARK    7  A    between atoms: C_7  and  C_8
REMARK    8  A    between atoms: C_7  and  C_9
REMARK    9  A    between atoms: C_16  and  C_37
REMARK   10  A    between atoms: C_24  and  O_36
REMARK   11  A    between atoms: C_26  and  O_35
REMARK   12  A    between atoms: C_27  and  C_34
REMARK   13  A    between atoms: C_30  and  O_33
REMARK                            x       y       z     vdW  Elec       q    Type
REMARK                         _______ _______ _______ _____ _____    ______ ____
ROOT
ATOM      1  C   UNL     1       0.859  -0.639   1.221  0.00  0.00    -0.002 C 
ATOM      2  C   UNL     1       0.883  -2.183   1.382  0.00  0.00    +0.004 C 
ATOM      3  C   UNL     1       0.484  -2.474   2.861  0.00  0.00    +0.004 C 
ATOM      4  C   UNL     1       0.785  -1.123   3.525  0.00  0.00    -0.001 C 
ATOM      5  C   UNL     1       0.157  -0.151   2.505  0.00  0.00    -0.026 C 
ATOM      6  C   UNL     1       0.427   1.275   2.910  0.00  0.00    +0.007 C 
ATOM      7  C   UNL     1      -0.097   1.503   4.343  0.00  0.00    +0.005 C 
ATOM      8  C   UNL     1       0.598   0.565   5.315  0.00  0.00    +0.001 C 
ATOM      9  C   UNL     1       0.343  -0.903   4.938  0.00  0.00    -0.001 C 
ATOM     10  C   UNL     1      -1.107  -1.267   5.218  0.00  0.00    +0.038 C 
ATOM     11  C   UNL     1      -1.354  -1.142   6.730  0.00  0.00    +0.147 C 
ATOM     12  C   UNL     1      -1.124   0.303   7.156  0.00  0.00    +0.100 C 
ATOM     13  C   UNL     1       0.255   0.818   6.777  0.00  0.00    +0.002 C 
ATOM     14  C   UNL     1       1.326   0.154   7.650  0.00  0.00    +0.012 C 
ATOM     15  C   UNL     1       1.086   0.455   9.121  0.00  0.00    +0.032 C 
ATOM     16  C   UNL     1      -0.302   0.033   9.572  0.00  0.00    +0.117 C 
ATOM     17  C   UNL     1      -1.411   0.476   8.642  0.00  0.00    +0.069 C 
ATOM     18  C   UNL     1       0.307   2.333   7.047  0.00  0.00    +0.014 C 
ATOM     19  C   UNL     1      -1.341  -0.371   2.297  0.00  0.00    +0.012 C 
ENDROOT
BRANCH   1  21
ATOM     20  C   UNL     1      -0.026   1.284  -0.101  0.00  0.00    +0.008 C 
ATOM     21  C   UNL     1       0.038  -0.242  -0.003  0.00  0.00    -0.010 C 
BRANCH  21  22
ATOM     22  C   UNL     1       0.695  -0.807  -1.263  0.00  0.00    +0.003 C 
BRANCH  22  23
ATOM     23  C   UNL     1      -0.193  -0.516  -2.475  0.00  0.00    +0.001 C 
BRANCH  23  24
ATOM     24  C   UNL     1       0.465  -1.082  -3.736  0.00  0.00    +0.003 C 
BRANCH  24  25
ATOM     25  C   UNL     1      -0.423  -0.791  -4.948  0.00  0.00    -0.017 C 
ATOM     26  C   UNL     1      -0.498   0.720  -5.174  0.00  0.00    +0.007 C 
ATOM     27  C   UNL     1       0.171  -1.463  -6.188  0.00  0.00    +0.007 C 
ENDBRANCH  24  25
ENDBRANCH  23  24
ENDBRANCH  22  23
ENDBRANCH  21  22
ENDBRANCH   1  21
BRANCH  16  28
ATOM     28  O   UNL     1      -0.348  -1.377   9.802  0.00  0.00    -0.392 OA
ATOM     29  H   UNL     1       0.268  -1.685  10.480  0.00  0.00    +0.210 HD
ENDBRANCH  16  28
BRANCH  12  30
ATOM     30  O   UNL     1      -2.098   1.115   6.454  0.00  0.00    -0.385 OA
ATOM     31  H   UNL     1      -3.016   0.881   6.646  0.00  0.00    +0.210 HD
ENDBRANCH  12  30
BRANCH  11  32
ATOM     32  O   UNL     1      -0.505  -2.050   7.419  0.00  0.00    -0.389 OA
ATOM     33  H   UNL     1      -0.644  -2.977   7.180  0.00  0.00    +0.210 HD
ENDBRANCH  11  32
TORSDOF 8
