REMARK  Name = ZINC64064516
REMARK  7 active torsions:
REMARK  status: ('A' for Active; 'I' for Inactive)
REMARK    1  A    between atoms: C_4  and  N_7
REMARK    2  A    between atoms: C_8  and  C_33
REMARK    3  A    between atoms: C_11  and  C_13
REMARK    4  A    between atoms: N_15  and  C_16
REMARK    5  A    between atoms: C_16  and  C_17
REMARK    6  A    between atoms: C_17  and  C_19
REMARK    7  A    between atoms: C_17  and  C_24
REMARK                            x       y       z     vdW  Elec       q    Type
REMARK                         _______ _______ _______ _____ _____    ______ ____
ROOT
ATOM      1  C   UNL     1       7.279  -0.542  -0.066  0.00  0.00    +0.260 C 
ATOM      2  O   UNL     1       8.125  -1.417  -0.082  0.00  0.00    -0.269 OA
ATOM      3  N   UNL     1       7.650   0.754  -0.057  0.00  0.00    -0.309 N 
ATOM      4  H   UNL     1       6.976   1.451  -0.045  0.00  0.00    +0.149 HD
ENDROOT
BRANCH   1   8
ATOM      5  N   UNL     1       3.619  -0.648  -0.037  0.00  0.00    -0.212 N 
ATOM      6  C   UNL     1       3.783  -2.111  -0.053  0.00  0.00    +0.189 C 
ATOM      7  C   UNL     1       5.312  -2.305  -0.067  0.00  0.00    +0.096 C 
ATOM      8  C   UNL     1       5.860  -0.896  -0.058  0.00  0.00    +0.123 C 
ATOM      9  N   UNL     1       4.879  -0.052  -0.048  0.00  0.00    -0.178 NA
BRANCH   5  13
ATOM     10  C   UNL     1      -0.017   1.379   0.010  0.00  0.00    +0.000 A 
ATOM     11  C   UNL     1       1.169   2.090   0.002  0.00  0.00    +0.002 A 
ATOM     12  C   UNL     1       2.377   1.421  -0.013  0.00  0.00    +0.025 A 
ATOM     13  C   UNL     1       2.400   0.031  -0.021  0.00  0.00    +0.052 A 
ATOM     14  C   UNL     1       1.206  -0.680  -0.013  0.00  0.00    +0.025 A 
ATOM     15  C   UNL     1       0.002  -0.004   0.002  0.00  0.00    +0.002 A 
ENDBRANCH   5  13
BRANCH   6  16
ATOM     16  C   UNL     1       3.179  -2.724   1.184  0.00  0.00    +0.233 C 
ATOM     17  O   UNL     1       2.960  -2.036   2.158  0.00  0.00    -0.274 OA
ATOM     18  N   UNL     1       2.882  -4.039   1.208  0.00  0.00    -0.328 N 
ATOM     19  H   UNL     1       3.057  -4.590   0.429  0.00  0.00    +0.145 HD
ATOM     20  H   UNL     1       2.494  -4.434   2.004  0.00  0.00    +0.145 HD
ENDBRANCH   6  16
ENDBRANCH   1   8
BRANCH   3  21
ATOM     21  C   UNL     1       9.072   1.109  -0.065  0.00  0.00    +0.117 C 
BRANCH  21  22
ATOM     22  C   UNL     1       9.217   2.632  -0.052  0.00  0.00    +0.071 C 
BRANCH  22  23
ATOM     23  C   UNL     1      10.674   2.997   0.063  0.00  0.00    -0.032 C 
ATOM     24  C   UNL     1      11.258   3.712   1.052  0.00  0.00    -0.000 A 
ATOM     25  C   UNL     1      10.730   4.342   2.268  0.00  0.00    +0.010 A 
ATOM     26  C   UNL     1      11.580   5.007   3.084  0.00  0.00    +0.001 A 
ATOM     27  C   UNL     1      12.948   5.110   2.797  0.00  0.00    +0.002 A 
ATOM     28  C   UNL     1      13.506   4.559   1.699  0.00  0.00    +0.026 A 
ATOM     29  C   UNL     1      12.706   3.836   0.772  0.00  0.00    +0.043 A 
ATOM     30  N   UNL     1      13.007   3.220  -0.346  0.00  0.00    -0.380 N 
ATOM     31  C   UNL     1      11.782   2.631  -0.899  0.00  0.00    +0.145 C 
ATOM     32  H   UNL     1      13.891   3.161  -0.740  0.00  0.00    +0.160 HD
ENDBRANCH  22  23
BRANCH  22  33
ATOM     33  C   UNL     1       8.656   3.201  -1.330  0.00  0.00    -0.002 A 
ATOM     34  C   UNL     1       7.645   4.088  -1.498  0.00  0.00    +0.012 A 
ATOM     35  C   UNL     1       7.297   4.474  -2.779  0.00  0.00    +0.008 A 
ATOM     36  C   UNL     1       7.978   3.954  -3.829  0.00  0.00    +0.045 A 
ATOM     37  S   UNL     1       9.156   2.889  -3.015  0.00  0.00    -0.101 S 
ENDBRANCH  22  33
ENDBRANCH  21  22
ENDBRANCH   3  21
TORSDOF 7
