REMARK  Name = ZINC63994070
REMARK  10 active torsions:
REMARK  status: ('A' for Active; 'I' for Inactive)
REMARK    1  A    between atoms: C_1  and  C_2
REMARK    2  A    between atoms: C_2  and  C_3
REMARK    3  A    between atoms: C_2  and  C_4
REMARK    4  A    between atoms: C_4  and  N_5
REMARK    5  A    between atoms: N_8  and  C_28
REMARK    6  A    between atoms: N_14  and  C_17
REMARK    7  A    between atoms: C_17  and  C_18
REMARK    8  A    between atoms: C_28  and  C_29
REMARK    9  A    between atoms: C_29  and  C_30
REMARK   10  A    between atoms: C_30  and  C_31
REMARK                            x       y       z     vdW  Elec       q    Type
REMARK                         _______ _______ _______ _____ _____    ______ ____
ROOT
ATOM      1  N   UNL     1      -1.657  -0.130  -1.617  0.00  0.00    -0.271 N 
ATOM      2  C   UNL     1      -2.091   1.082  -2.015  0.00  0.00    +0.312 C 
ATOM      3  O   UNL     1      -2.089   2.067  -1.304  0.00  0.00    -0.252 OA
ATOM      4  N   UNL     1      -2.525   1.078  -3.281  0.00  0.00    -0.224 N 
ATOM      5  C   UNL     1      -2.415  -0.145  -3.841  0.00  0.00    +0.247 C 
ATOM      6  O   UNL     1      -2.722  -0.467  -4.968  0.00  0.00    -0.273 OA
ATOM      7  C   UNL     1      -1.823  -1.028  -2.767  0.00  0.00    +0.112 C 
ATOM      8  C   UNL     1      -2.781  -2.164  -2.424  0.00  0.00    +0.017 C 
ATOM      9  C   UNL     1      -2.138  -3.068  -1.368  0.00  0.00    -0.076 C 
ATOM     10  N   UNL     1      -0.874  -3.605  -1.886  0.00  0.00    +0.381 N 
ATOM     11  C   UNL     1       0.075  -2.511  -2.124  0.00  0.00    -0.076 C 
ATOM     12  C   UNL     1      -0.475  -1.584  -3.212  0.00  0.00    +0.017 C 
ATOM     13  H   UNL     1      -1.047  -4.093  -2.752  0.00  0.00    -0.082 HD
ENDROOT
BRANCH   1  14
ATOM     14  C   UNL     1      -1.118  -0.480  -0.301  0.00  0.00    +0.113 C 
BRANCH  14  16
ATOM     15  C   UNL     1      -3.406  -1.095   0.495  0.00  0.00    +0.009 C 
ATOM     16  C   UNL     1      -2.180  -0.221   0.770  0.00  0.00    +0.000 C 
ATOM     17  C   UNL     1      -1.609  -0.563   2.148  0.00  0.00    +0.009 C 
ENDBRANCH  14  16
ENDBRANCH   1  14
BRANCH  10  18
ATOM     18  C   UNL     1      -0.305  -4.540  -0.907  0.00  0.00    -0.050 C 
BRANCH  18  19
ATOM     19  C   UNL     1      -1.216  -5.763  -0.779  0.00  0.00    +0.086 C 
ATOM     20  C   UNL     1      -0.547  -6.826   0.064  0.00  0.00    +0.005 C 
ATOM     21  C   UNL     1      -0.417  -7.910  -0.734  0.00  0.00    -0.004 A 
ATOM     22  C   UNL     1       0.146  -9.247  -0.510  0.00  0.00    +0.010 A 
ATOM     23  C   UNL     1       0.136 -10.142  -1.525  0.00  0.00    +0.001 A 
ATOM     24  C   UNL     1      -0.398  -9.824  -2.781  0.00  0.00    +0.002 A 
ATOM     25  C   UNL     1      -0.933  -8.617  -3.063  0.00  0.00    +0.026 A 
ATOM     26  C   UNL     1      -0.974  -7.600  -2.070  0.00  0.00    +0.043 A 
ATOM     27  N   UNL     1      -1.433  -6.371  -2.097  0.00  0.00    -0.380 N 
ATOM     28  H   UNL     1      -1.846  -5.936  -2.860  0.00  0.00    +0.160 HD
ENDBRANCH  18  19
ENDBRANCH  10  18
BRANCH   4  29
ATOM     29  C   UNL     1      -3.052   2.256  -3.974  0.00  0.00    +0.118 C 
BRANCH  29  30
ATOM     30  C   UNL     1      -1.907   2.993  -4.672  0.00  0.00    +0.024 C 
BRANCH  30  31
ATOM     31  C   UNL     1      -2.458   4.223  -5.396  0.00  0.00    +0.038 C 
BRANCH  31  32
ATOM     32  C   UNL     1      -1.330   4.949  -6.083  0.00  0.00    -0.029 A 
ATOM     33  C   UNL     1      -0.625   5.941  -5.418  0.00  0.00    +0.006 A 
ATOM     34  C   UNL     1       0.405   6.581  -6.089  0.00  0.00    +0.020 A 
ATOM     35  C   UNL     1       0.692   6.213  -7.390  0.00  0.00    +0.111 A 
ATOM     36  N   UNL     1      -0.000   5.266  -7.992  0.00  0.00    -0.263 NA
ATOM     37  C   UNL     1      -0.982   4.631  -7.382  0.00  0.00    +0.114 A 
ENDBRANCH  31  32
ENDBRANCH  30  31
ENDBRANCH  29  30
ENDBRANCH   4  29
TORSDOF 8
