REMARK  Name = ZINC36494406
REMARK  17 active torsions:
REMARK  status: ('A' for Active; 'I' for Inactive)
REMARK    1  A    between atoms: C_1  and  C_2
REMARK    2  A    between atoms: C_2  and  C_3
REMARK    3  A    between atoms: C_2  and  C_4
REMARK    4  A    between atoms: C_2  and  C_5
REMARK    5  A    between atoms: C_5  and  C_6
REMARK    6  A    between atoms: C_6  and  C_7
REMARK    7  A    between atoms: C_6  and  C_8
REMARK    8  A    between atoms: C_6  and  N_9
REMARK    9  A    between atoms: C_10  and  C_12
REMARK   10  A    between atoms: C_12  and  C_14
REMARK   11  A    between atoms: C_12  and  N_23
REMARK   12  A    between atoms: C_15  and  O_22
REMARK   13  A    between atoms: C_17  and  O_21
REMARK   14  A    between atoms: C_19  and  O_20
REMARK   15  A    between atoms: N_23  and  C_24
REMARK   16  A    between atoms: C_24  and  C_25
REMARK   17  A    between atoms: C_30  and  C_32
REMARK                            x       y       z     vdW  Elec       q    Type
REMARK                         _______ _______ _______ _____ _____    ______ ____
ROOT
ATOM      1  C   UNL     1       5.306  -0.810  -5.636  0.00  0.00    +0.200 C 
ENDROOT
BRANCH   1   2
ATOM      2  C   UNL     1       5.597  -2.180  -6.193  0.00  0.00    +0.065 A 
ATOM      3  C   UNL     1       6.171  -3.150  -5.385  0.00  0.00    +0.129 A 
ATOM      4  C   UNL     1       6.439  -4.410  -5.898  0.00  0.00    +0.091 A 
ATOM      5  C   UNL     1       6.132  -4.701  -7.219  0.00  0.00    +0.124 A 
ATOM      6  C   UNL     1       5.557  -3.732  -8.027  0.00  0.00    +0.091 A 
ATOM      7  C   UNL     1       5.285  -2.473  -7.513  0.00  0.00    +0.129 A 
BRANCH   7   8
ATOM      8  O   UNL     1       4.718  -1.524  -8.303  0.00  0.00    -0.506 OA
ATOM      9  H   UNL     1       5.356  -0.978  -8.782  0.00  0.00    +0.292 HD
ENDBRANCH   7   8
BRANCH   5  10
ATOM     10  O   UNL     1       6.396  -5.936  -7.721  0.00  0.00    -0.507 OA
ATOM     11  H   UNL     1       5.668  -6.565  -7.620  0.00  0.00    +0.292 HD
ENDBRANCH   5  10
BRANCH   3  12
ATOM     12  O   UNL     1       6.472  -2.865  -4.091  0.00  0.00    -0.506 OA
ATOM     13  H   UNL     1       5.786  -3.124  -3.461  0.00  0.00    +0.292 HD
ENDBRANCH   3  12
ENDBRANCH   1   2
BRANCH   1  15
ATOM     14  N   UNL     1       3.097  -1.454  -4.729  0.00  0.00    -0.308 N 
ATOM     15  C   UNL     1       4.317  -0.928  -4.505  0.00  0.00    +0.239 C 
ATOM     16  O   UNL     1       4.619  -0.549  -3.394  0.00  0.00    -0.273 OA
ATOM     17  H   UNL     1       2.855  -1.758  -5.618  0.00  0.00    +0.149 HD
BRANCH  14  18
ATOM     18  C   UNL     1       2.135  -1.569  -3.630  0.00  0.00    +0.030 C 
ATOM     19  C   UNL     1       2.055  -0.236  -2.882  0.00  0.00    +0.031 C 
ATOM     20  C   UNL     1       2.590  -2.667  -2.667  0.00  0.00    +0.031 C 
BRANCH  18  21
ATOM     21  C   UNL     1       0.757  -1.921  -4.192  0.00  0.00    +0.031 C 
BRANCH  21  23
ATOM     22  C   UNL     1       1.185  -1.742  -6.647  0.00  0.00    +0.010 C 
ATOM     23  C   UNL     1       0.491  -1.090  -5.449  0.00  0.00    -0.036 C 
ATOM     24  C   UNL     1       1.039   0.325  -5.250  0.00  0.00    +0.010 C 
ATOM     25  C   UNL     1      -1.015  -1.023  -5.707  0.00  0.00    +0.010 C 
ENDBRANCH  21  23
ENDBRANCH  18  21
ENDBRANCH  14  18
ENDBRANCH   1  15
BRANCH   1  26
ATOM     26  N   UNL     1       6.547  -0.211  -5.139  0.00  0.00    -0.278 N 
ATOM     27  C   UNL     1       6.509   0.950  -4.457  0.00  0.00    +0.220 C 
ATOM     28  O   UNL     1       5.448   1.502  -4.259  0.00  0.00    -0.275 OA
BRANCH  27  29
ATOM     29  C   UNL     1       7.785   1.563  -3.941  0.00  0.00    +0.075 C 
ATOM     30  C   UNL     1       8.245   0.807  -2.692  0.00  0.00    +0.013 C 
ATOM     31  C   UNL     1       9.541   1.429  -2.168  0.00  0.00    +0.001 C 
ATOM     32  C   UNL     1       9.295   2.897  -1.813  0.00  0.00    +0.000 C 
ATOM     33  C   UNL     1       8.835   3.653  -3.061  0.00  0.00    +0.001 C 
ATOM     34  C   UNL     1       7.539   3.031  -3.586  0.00  0.00    +0.013 C 
ENDBRANCH  27  29
BRANCH  26  35
ATOM     35  C   UNL     1       7.830  -0.875  -5.384  0.00  0.00    +0.183 C 
BRANCH  35  36
ATOM     36  C   UNL     1       8.565  -0.158  -6.487  0.00  0.00    +0.122 A 
ATOM     37  C   UNL     1       9.688   0.568  -6.342  0.00  0.00    +0.046 A 
ATOM     38  C   UNL     1      10.028   1.056  -7.624  0.00  0.00    +0.041 A 
ATOM     39  C   UNL     1       9.093   0.600  -8.476  0.00  0.00    +0.195 A 
ATOM     40  O   UNL     1       8.212  -0.140  -7.783  0.00  0.00    -0.466 OA
ENDBRANCH  35  36
ENDBRANCH  26  35
ENDBRANCH   1  26
TORSDOF 12
