REMARK  Name = ZINC46842107
REMARK  8 active torsions:
REMARK  status: ('A' for Active; 'I' for Inactive)
REMARK    1  A    between atoms: C_1  and  C_2
REMARK    2  A    between atoms: C_2  and  C_3
REMARK    3  A    between atoms: C_2  and  C_4
REMARK    4  A    between atoms: C_2  and  C_5
REMARK    5  A    between atoms: C_10  and  N_13
REMARK    6  A    between atoms: C_14  and  C_16
REMARK    7  A    between atoms: N_19  and  S_22
REMARK    8  A    between atoms: S_22  and  C_25
REMARK                            x       y       z     vdW  Elec       q    Type
REMARK                         _______ _______ _______ _____ _____    ______ ____
ROOT
ATOM      1  C   UNL     1       2.078  -8.300  -1.543  0.00  0.00    +0.077 C 
ATOM      2  C   UNL     1       3.559  -7.936  -1.666  0.00  0.00    +0.030 C 
ATOM      3  C   UNL     1       4.412  -9.173  -1.368  0.00  0.00    +0.110 C 
ATOM      4  N   UNL     1       3.983 -10.267  -2.251  0.00  0.00    -0.177 NA
ATOM      5  C   UNL     1       2.562 -10.638  -2.278  0.00  0.00    +0.110 C 
ATOM      6  C   UNL     1       1.730  -9.384  -2.566  0.00  0.00    +0.030 C 
ENDROOT
BRANCH   1   8
ATOM      7  N   UNL     1       1.373  -5.987  -1.021  0.00  0.00    -0.312 N 
ATOM      8  C   UNL     1       1.237  -7.076  -1.803  0.00  0.00    +0.216 C 
ATOM      9  O   UNL     1       0.439  -7.072  -2.716  0.00  0.00    -0.276 OA
ATOM     10  H   UNL     1       2.011  -5.991  -0.290  0.00  0.00    +0.149 HD
BRANCH   7  16
ATOM     11  C   UNL     1       0.363  -0.695  -1.238  0.00  0.00    +0.221 C 
ATOM     12  O   UNL     1       0.920  -0.101  -2.138  0.00  0.00    -0.275 OA
ATOM     13  N   UNL     1       0.093  -2.009  -1.364  0.00  0.00    -0.301 N 
ATOM     14  C   UNL     1      -0.470  -2.768  -0.239  0.00  0.00    +0.109 C 
ATOM     15  C   UNL     1       0.414  -3.992   0.021  0.00  0.00    +0.041 C 
ATOM     16  C   UNL     1       0.555  -4.798  -1.273  0.00  0.00    +0.076 C 
ATOM     17  C   UNL     1       1.228  -3.934  -2.343  0.00  0.00    +0.041 C 
ATOM     18  C   UNL     1       0.348  -2.708  -2.631  0.00  0.00    +0.109 C 
BRANCH  11  20
ATOM     19  C   UNL     1       0.221   1.537  -0.166  0.00  0.00    +0.020 C 
ATOM     20  C   UNL     1      -0.025   0.038   0.020  0.00  0.00    +0.039 C 
ATOM     21  C   UNL     1       0.816  -0.476   1.190  0.00  0.00    +0.020 C 
ATOM     22  C   UNL     1      -1.507  -0.203   0.313  0.00  0.00    +0.020 C 
ENDBRANCH  11  20
ENDBRANCH   7  16
ENDBRANCH   1   8
BRANCH   4  23
ATOM     23  S   UNL     1       5.082 -11.066  -3.199  0.00  0.00    +0.061 S 
ATOM     24  O   UNL     1       4.353 -11.621  -4.285  0.00  0.00    -0.153 OA
ATOM     25  O   UNL     1       6.175 -10.178  -3.389  0.00  0.00    -0.153 OA
BRANCH  23  26
ATOM     26  C   UNL     1       5.693 -12.423  -2.256  0.00  0.00    +0.106 A 
ATOM     27  C   UNL     1       6.805 -12.263  -1.450  0.00  0.00    +0.029 A 
ATOM     28  C   UNL     1       7.280 -13.331  -0.718  0.00  0.00    +0.006 A 
ATOM     29  C   UNL     1       6.648 -14.567  -0.782  0.00  0.00    -0.044 A 
ATOM     30  C   UNL     1       5.538 -14.725  -1.580  0.00  0.00    -0.042 A 
ATOM     31  C   UNL     1       5.060 -13.647  -2.315  0.00  0.00    +0.032 A 
ATOM     32  C   UNL     1       4.794 -16.030  -1.685  0.00  0.00    +0.035 C 
ATOM     33  C   UNL     1       5.659 -17.184  -1.181  0.00  0.00    +0.005 C 
ATOM     34  C   UNL     1       6.200 -16.813   0.205  0.00  0.00    +0.005 C 
ATOM     35  C   UNL     1       7.224 -15.692   0.038  0.00  0.00    +0.035 C 
ENDBRANCH  23  26
ENDBRANCH   4  23
TORSDOF 5
