REMARK  Name = ZINC41021460
REMARK  11 active torsions:
REMARK  status: ('A' for Active; 'I' for Inactive)
REMARK    1  A    between atoms: C_1  and  C_2
REMARK    2  A    between atoms: C_2  and  C_3
REMARK    3  A    between atoms: C_3  and  C_4
REMARK    4  A    between atoms: C_4  and  S_5
REMARK    5  A    between atoms: S_5  and  C_6
REMARK    6  A    between atoms: C_11  and  C_28
REMARK    7  A    between atoms: C_13  and  C_17
REMARK    8  A    between atoms: C_14  and  C_16
REMARK    9  A    between atoms: N_19  and  C_20
REMARK   10  A    between atoms: C_24  and  C_27
REMARK   11  A    between atoms: C_25  and  C_26
REMARK                            x       y       z     vdW  Elec       q    Type
REMARK                         _______ _______ _______ _____ _____    ______ ____
ROOT
ATOM      1  C   UNL     1      -2.872  -4.453   0.237  0.00  0.00    +0.210 A 
ATOM      2  N   UNL     1      -1.713  -5.124   0.171  0.00  0.00    -0.187 NA
ATOM      3  C   UNL     1      -1.953  -6.406   0.122  0.00  0.00    +0.220 A 
ATOM      4  N   UNL     1      -3.297  -6.584   0.152  0.00  0.00    -0.217 N 
ATOM      5  N   UNL     1      -3.866  -5.315   0.235  0.00  0.00    -0.141 NA
ATOM      6  C   UNL     1      -3.940  -7.895   0.104  0.00  0.00    +0.213 C 
ATOM      7  C   UNL     1      -2.906  -8.969   0.318  0.00  0.00    +0.063 C 
ATOM      8  C   UNL     1      -1.587  -8.732   0.281  0.00  0.00    +0.018 C 
ATOM      9  N   UNL     1      -1.074  -7.478   0.054  0.00  0.00    -0.287 N 
ATOM     10  C   UNL     1      -0.635  -9.880   0.497  0.00  0.00    +0.061 C 
ATOM     11  H   UNL     1      -0.134  -7.347  -0.147  0.00  0.00    +0.155 HD
ENDROOT
BRANCH   6  12
ATOM     12  C   UNL     1      -4.591  -8.086  -1.242  0.00  0.00    +0.134 A 
ATOM     13  C   UNL     1      -5.902  -8.295  -1.459  0.00  0.00    +0.047 A 
ATOM     14  C   UNL     1      -6.071  -8.418  -2.857  0.00  0.00    +0.041 A 
ATOM     15  C   UNL     1      -4.853  -8.277  -3.411  0.00  0.00    +0.195 A 
ATOM     16  O   UNL     1      -3.962  -8.070  -2.428  0.00  0.00    -0.465 OA
ENDBRANCH   6  12
BRANCH   7  17
ATOM     17  C   UNL     1      -3.348 -10.289   0.571  0.00  0.00    +0.248 C 
ATOM     18  O   UNL     1      -3.720 -10.603   1.687  0.00  0.00    -0.270 OA
ATOM     19  N   UNL     1      -3.356 -11.198  -0.424  0.00  0.00    -0.281 N 
ATOM     20  H   UNL     1      -2.999 -10.967  -1.296  0.00  0.00    +0.155 HD
BRANCH  19  21
ATOM     21  C   UNL     1      -3.879 -12.476  -0.199  0.00  0.00    +0.037 A 
ATOM     22  C   UNL     1      -3.727 -13.081   1.043  0.00  0.00    +0.023 A 
ATOM     23  C   UNL     1      -4.245 -14.342   1.262  0.00  0.00    +0.002 A 
ATOM     24  C   UNL     1      -4.913 -15.003   0.247  0.00  0.00    +0.004 A 
ATOM     25  C   UNL     1      -5.066 -14.403  -0.989  0.00  0.00    -0.046 A 
ATOM     26  C   UNL     1      -4.556 -13.139  -1.213  0.00  0.00    -0.026 A 
ATOM     27  C   UNL     1      -4.728 -12.484  -2.559  0.00  0.00    +0.046 C 
ATOM     28  C   UNL     1      -5.795 -15.127  -2.092  0.00  0.00    +0.044 C 
ENDBRANCH  19  21
ENDBRANCH   7  17
BRANCH   1  29
ATOM     29  S   UNL     1      -3.037  -2.701   0.322  0.00  0.00    -0.084 S 
BRANCH  29  30
ATOM     30  C   UNL     1      -1.326  -2.098   0.287  0.00  0.00    +0.077 C 
BRANCH  30  31
ATOM     31  C   UNL     1      -1.323  -0.569   0.356  0.00  0.00    +0.011 C 
BRANCH  31  33
ATOM     32  C   UNL     1       0.122   1.468   0.396  0.00  0.00    +0.004 C 
ATOM     33  C   UNL     1       0.119  -0.060   0.327  0.00  0.00    -0.003 C 
ENDBRANCH  31  33
ENDBRANCH  30  31
ENDBRANCH  29  30
ENDBRANCH   1  29
TORSDOF 7
