REMARK  Name = ZINC12635564
REMARK  13 active torsions:
REMARK  status: ('A' for Active; 'I' for Inactive)
REMARK    1  A    between atoms: C_1  and  C_2
REMARK    2  A    between atoms: C_2  and  N_70
REMARK    3  A    between atoms: C_6  and  C_8
REMARK    4  A    between atoms: C_8  and  N_9
REMARK    5  A    between atoms: N_9  and  C_10
REMARK    6  A    between atoms: N_9  and  C_25
REMARK    7  A    between atoms: C_10  and  C_11
REMARK    8  A    between atoms: C_16  and  C_24
REMARK    9  A    between atoms: C_17  and  C_23
REMARK   10  A    between atoms: C_25  and  N_27
REMARK   11  A    between atoms: N_27  and  C_28
REMARK   12  A    between atoms: C_32  and  C_35
REMARK   13  A    between atoms: C_33  and  C_34
REMARK                            x       y       z     vdW  Elec       q    Type
REMARK                         _______ _______ _______ _____ _____    ______ ____
ROOT
ATOM      1  N   UNL     1      -2.684   0.960  -0.548  0.00  0.00    -0.309 N 
ENDROOT
BRANCH   1   2
ATOM      2  C   UNL     1      -3.386   1.897  -1.216  0.00  0.00    +0.137 C 
ATOM      3  S   UNL     1      -3.798   3.369  -0.446  0.00  0.00    -0.018 S 
BRANCH   2   4
ATOM      4  N   UNL     1      -3.763   1.674  -2.490  0.00  0.00    -0.297 N 
ATOM      5  H   UNL     1      -3.596   0.812  -2.902  0.00  0.00    +0.154 HD
BRANCH   4   6
ATOM      6  C   UNL     1      -4.397   2.687  -3.219  0.00  0.00    +0.036 A 
ATOM      7  C   UNL     1      -5.447   3.398  -2.654  0.00  0.00    +0.023 A 
ATOM      8  C   UNL     1      -6.071   4.396  -3.376  0.00  0.00    +0.002 A 
ATOM      9  C   UNL     1      -5.650   4.689  -4.660  0.00  0.00    +0.004 A 
ATOM     10  C   UNL     1      -4.604   3.982  -5.226  0.00  0.00    -0.046 A 
ATOM     11  C   UNL     1      -3.973   2.986  -4.507  0.00  0.00    -0.026 A 
ATOM     12  C   UNL     1      -2.829   2.221  -5.122  0.00  0.00    +0.046 C 
ATOM     13  C   UNL     1      -4.149   4.304  -6.626  0.00  0.00    +0.044 C 
ENDBRANCH   4   6
ENDBRANCH   2   4
ENDBRANCH   1   2
BRANCH   1  14
ATOM     14  C   UNL     1      -2.331  -0.300  -1.207  0.00  0.00    +0.092 C 
BRANCH  14  18
ATOM     15  C   UNL     1      -3.989  -2.902   0.753  0.00  0.00    -0.078 C 
ATOM     16  C   UNL     1      -3.887  -3.658  -0.588  0.00  0.00    -0.020 C 
ATOM     17  C   UNL     1      -2.986  -2.730  -1.444  0.00  0.00    -0.016 C 
ATOM     18  C   UNL     1      -3.440  -1.327  -0.969  0.00  0.00    -0.051 C 
ATOM     19  N   UNL     1      -3.676  -1.490   0.480  0.00  0.00    +0.382 N 
ATOM     20  H   UNL     1      -2.829  -1.224   0.994  0.00  0.00    -0.081 HD
BRANCH  19  22
ATOM     21  C   UNL     1      -5.092  -0.876   2.396  0.00  0.00    -0.017 C 
ATOM     22  C   UNL     1      -4.801  -0.622   0.916  0.00  0.00    -0.082 C 
ENDBRANCH  19  22
ENDBRANCH  14  18
ENDBRANCH   1  14
BRANCH   1  23
ATOM     23  C   UNL     1      -2.274   1.202   0.838  0.00  0.00    +0.147 C 
BRANCH  23  24
ATOM     24  C   UNL     1      -0.920   1.865   0.853  0.00  0.00    +0.035 A 
ATOM     25  C   UNL     1      -0.831   3.216   0.936  0.00  0.00    +0.020 A 
ATOM     26  C   UNL     1       0.499   3.829   0.942  0.00  0.00    -0.001 A 
ATOM     27  C   UNL     1       0.655   5.217   1.018  0.00  0.00    +0.010 A 
ATOM     28  C   UNL     1       1.909   5.758   1.022  0.00  0.00    +0.004 A 
ATOM     29  C   UNL     1       3.030   4.943   0.949  0.00  0.00    -0.046 A 
ATOM     30  C   UNL     1       2.900   3.574   0.872  0.00  0.00    -0.024 A 
ATOM     31  C   UNL     1       1.633   2.999   0.867  0.00  0.00    +0.052 A 
ATOM     32  N   UNL     1       1.474   1.632   0.790  0.00  0.00    -0.322 N 
ATOM     33  H   UNL     1       2.257   1.062   0.739  0.00  0.00    +0.169 HD
ATOM     34  C   UNL     1       0.249   1.078   0.785  0.00  0.00    +0.254 A 
ATOM     35  O   UNL     1       0.146  -0.135   0.716  0.00  0.00    -0.268 OA
ATOM     36  C   UNL     1       4.126   2.701   0.793  0.00  0.00    +0.046 C 
ATOM     37  C   UNL     1       4.404   5.563   0.954  0.00  0.00    +0.044 C 
ENDBRANCH  23  24
ENDBRANCH   1  23
TORSDOF 8
