REMARK  Name = ZINC03185074
REMARK  7 active torsions:
REMARK  status: ('A' for Active; 'I' for Inactive)
REMARK    1  A    between atoms: C_10  and  C_11
REMARK    2  A    between atoms: N_12  and  N_13
REMARK    3  A    between atoms: C_14  and  C_16
REMARK    4  A    between atoms: C_16  and  C_18
REMARK    5  A    between atoms: C_16  and  N_29
REMARK    6  A    between atoms: C_18  and  C_19
REMARK    7  A    between atoms: C_30  and  C_32
REMARK                            x       y       z     vdW  Elec       q    Type
REMARK                         _______ _______ _______ _____ _____    ______ ____
ROOT
ATOM      1  C   UNL     1       7.498   4.190  -0.249  0.00  0.00    +0.165 C 
ENDROOT
BRANCH   1   3
ATOM      2  N   UNL     1       6.195   2.090  -0.145  0.00  0.00    -0.205 N 
ATOM      3  C   UNL     1       6.194   3.434  -0.240  0.00  0.00    +0.253 C 
ATOM      4  O   UNL     1       5.144   4.036  -0.319  0.00  0.00    -0.272 OA
ATOM      5  H   UNL     1       7.035   1.609  -0.082  0.00  0.00    +0.177 HD
BRANCH   2   7
ATOM      6  C   UNL     1       4.984   0.092  -0.045  0.00  0.00    +0.139 C 
ATOM      7  N   UNL     1       4.983   1.387  -0.137  0.00  0.00    -0.188 NA
BRANCH   6  17
ATOM      8  C   UNL     1      -0.016   1.357   0.035  0.00  0.00    +0.001 A 
ATOM      9  C   UNL     1       1.168   2.091   0.029  0.00  0.00    +0.001 A 
ATOM     10  C   UNL     1       2.379   1.466   0.005  0.00  0.00    +0.009 A 
ATOM     11  C   UNL     1       2.435   0.067  -0.012  0.00  0.00    -0.009 A 
ATOM     12  C   UNL     1       1.233  -0.682  -0.004  0.00  0.00    -0.017 A 
ATOM     13  C   UNL     1       0.002  -0.004   0.019  0.00  0.00    +0.008 A 
ATOM     14  C   UNL     1       1.294  -2.086  -0.021  0.00  0.00    +0.008 A 
ATOM     15  C   UNL     1       2.494  -2.729  -0.043  0.00  0.00    +0.001 A 
ATOM     16  C   UNL     1       3.696  -2.036  -0.051  0.00  0.00    +0.010 A 
ATOM     17  C   UNL     1       3.711  -0.646  -0.036  0.00  0.00    +0.002 A 
ENDBRANCH   6  17
ENDBRANCH   2   7
ENDBRANCH   1   3
BRANCH   1  18
ATOM     18  N   UNL     1       7.255   5.588   0.117  0.00  0.00    -0.299 N 
ATOM     19  C   UNL     1       6.433   6.348  -0.633  0.00  0.00    +0.251 C 
ATOM     20  O   UNL     1       5.892   5.873  -1.615  0.00  0.00    -0.270 OA
ATOM     21  H   UNL     1       7.685   5.966   0.900  0.00  0.00    +0.150 HD
BRANCH  19  22
ATOM     22  C   UNL     1       6.189   7.746  -0.267  0.00  0.00    +0.074 A 
ATOM     23  C   UNL     1       5.385   8.686  -0.892  0.00  0.00    +0.021 A 
ATOM     24  C   UNL     1       5.357   9.931  -0.309  0.00  0.00    +0.008 A 
ATOM     25  C   UNL     1       6.096  10.152   0.806  0.00  0.00    +0.046 A 
ATOM     26  S   UNL     1       6.845   8.679   1.104  0.00  0.00    -0.092 S 
ENDBRANCH  19  22
ENDBRANCH   1  18
BRANCH   1  27
ATOM     27  C   UNL     1       8.113   4.129  -1.649  0.00  0.00    +0.069 C 
BRANCH  27  28
ATOM     28  C   UNL     1       9.473   4.779  -1.628  0.00  0.00    -0.020 A 
ATOM     29  C   UNL     1       9.754   6.053  -1.942  0.00  0.00    +0.087 A 
ATOM     30  N   UNL     1      11.096   6.282  -1.807  0.00  0.00    -0.360 N 
ATOM     31  H   UNL     1      11.537   7.129  -1.978  0.00  0.00    +0.165 HD
ATOM     32  C   UNL     1      11.728   5.130  -1.393  0.00  0.00    +0.047 A 
ATOM     33  C   UNL     1      10.738   4.140  -1.256  0.00  0.00    +0.003 A 
ATOM     34  C   UNL     1      11.090   2.856  -0.839  0.00  0.00    +0.010 A 
ATOM     35  C   UNL     1      12.397   2.567  -0.560  0.00  0.00    +0.001 A 
ATOM     36  C   UNL     1      13.377   3.542  -0.689  0.00  0.00    +0.002 A 
ATOM     37  C   UNL     1      13.052   4.814  -1.109  0.00  0.00    +0.026 A 
ENDBRANCH  27  28
ENDBRANCH   1  27
TORSDOF 7
