REMARK  Name = ZINC64427279
REMARK  3 active torsions:
REMARK  status: ('A' for Active; 'I' for Inactive)
REMARK    1  A    between atoms: C_4  and  C_7
REMARK    2  A    between atoms: C_11  and  C_13
REMARK    3  A    between atoms: C_16  and  C_25
REMARK                            x       y       z     vdW  Elec       q    Type
REMARK                         _______ _______ _______ _____ _____    ______ ____
ROOT
ATOM      1  C   UNL     1       3.564  -2.577  -1.062  0.00  0.00    +0.090 C 
ATOM      2  C   UNL     1       3.557  -4.093  -0.980  0.00  0.00    +0.079 C 
ATOM      3  C   UNL     1       4.935  -4.652  -1.047  0.00  0.00    +0.060 C 
ATOM      4  N   UNL     1       5.915  -4.239  -1.723  0.00  0.00    -0.249 NA
ATOM      5  C   UNL     1       6.180  -3.199  -2.533  0.00  0.00    +0.085 A 
ATOM      6  C   UNL     1       7.473  -3.155  -3.092  0.00  0.00    +0.029 A 
ATOM      7  C   UNL     1       7.849  -2.132  -3.928  0.00  0.00    +0.002 A 
ATOM      8  C   UNL     1       6.954  -1.121  -4.234  0.00  0.00    +0.002 A 
ATOM      9  C   UNL     1       5.684  -1.145  -3.699  0.00  0.00    +0.025 A 
ATOM     10  C   UNL     1       5.284  -2.177  -2.850  0.00  0.00    +0.053 A 
ATOM     11  N   UNL     1       3.985  -2.127  -2.368  0.00  0.00    -0.338 N 
ATOM     12  H   UNL     1       3.306  -1.759  -2.954  0.00  0.00    +0.146 HD
ENDROOT
BRANCH   3  13
ATOM     13  C   UNL     1       5.183  -5.835  -0.222  0.00  0.00    +0.114 A 
ATOM     14  C   UNL     1       5.077  -7.144  -0.824  0.00  0.00    +0.265 A 
ATOM     15  N   UNL     1       5.245  -8.356  -0.323  0.00  0.00    -0.283 N 
ATOM     16  C   UNL     1       5.578  -8.634   0.962  0.00  0.00    +0.294 A 
ATOM     17  O   UNL     1       5.721  -9.769   1.372  0.00  0.00    -0.259 OA
ATOM     18  S   UNL     1       5.790  -7.200   2.000  0.00  0.00    +0.014 S 
ATOM     19  C   UNL     1       5.523  -5.663   1.132  0.00  0.00    +0.235 A 
ATOM     20  O   UNL     1       5.634  -4.454   1.718  0.00  0.00    -0.279 OA
ATOM     21  O   UNL     1       4.779  -7.128  -2.005  0.00  0.00    -0.267 OA
ATOM     22  H   UNL     1       5.120  -9.107  -0.924  0.00  0.00    +0.172 HD
ENDBRANCH   3  13
BRANCH   1  27
ATOM     23  C   UNL     1       4.411  -0.512   0.075  0.00  0.00    +0.081 C 
ATOM     24  N   UNL     1       5.590  -0.051  -0.239  0.00  0.00    -0.153 NA
ATOM     25  N   UNL     1       6.491  -1.069  -0.532  0.00  0.00    -0.161 NA
ATOM     26  C   UNL     1       5.962  -2.245  -0.427  0.00  0.00    +0.119 C 
ATOM     27  C   UNL     1       4.523  -2.022  -0.007  0.00  0.00    +0.103 C 
BRANCH  23  31
ATOM     28  C   UNL     1       0.977   1.745   1.127  0.00  0.00    +0.000 A 
ATOM     29  C   UNL     1       2.159   2.395   0.813  0.00  0.00    +0.001 A 
ATOM     30  C   UNL     1       3.279   1.668   0.470  0.00  0.00    +0.010 A 
ATOM     31  C   UNL     1       3.220   0.271   0.441  0.00  0.00    -0.001 A 
ATOM     32  C   UNL     1       2.022  -0.378   0.760  0.00  0.00    +0.010 A 
ATOM     33  C   UNL     1       0.911   0.363   1.100  0.00  0.00    +0.001 A 
ENDBRANCH  23  31
ENDBRANCH   1  27
TORSDOF 3
