REMARK  Name = ZINC36587095
REMARK  21 active torsions:
REMARK  status: ('A' for Active; 'I' for Inactive)
REMARK    1  A    between atoms: C_1  and  C_2
REMARK    2  A    between atoms: C_2  and  C_3
REMARK    3  A    between atoms: C_2  and  C_4
REMARK    4  A    between atoms: C_2  and  C_5
REMARK    5  A    between atoms: C_5  and  C_6
REMARK    6  A    between atoms: C_6  and  C_7
REMARK    7  A    between atoms: C_6  and  C_8
REMARK    8  A    between atoms: C_6  and  N_9
REMARK    9  A    between atoms: C_10  and  C_12
REMARK   10  A    between atoms: C_12  and  C_14
REMARK   11  A    between atoms: C_12  and  N_23
REMARK   12  A    between atoms: C_17  and  N_20
REMARK   13  A    between atoms: N_20  and  C_21
REMARK   14  A    between atoms: N_20  and  C_22
REMARK   15  A    between atoms: N_23  and  C_34
REMARK   16  A    between atoms: C_24  and  C_26
REMARK   17  A    between atoms: C_30  and  O_33
REMARK   18  A    between atoms: C_31  and  O_32
REMARK   19  A    between atoms: C_34  and  C_35
REMARK   20  A    between atoms: C_34  and  C_36
REMARK   21  A    between atoms: C_34  and  C_37
REMARK                            x       y       z     vdW  Elec       q    Type
REMARK                         _______ _______ _______ _____ _____    ______ ____
ROOT
ATOM      1  C   UNL     1       8.120   0.642  -2.236  0.00  0.00    +0.193 C 
ENDROOT
BRANCH   1   2
ATOM      2  C   UNL     1       8.231   2.142  -2.330  0.00  0.00    -0.018 A 
ATOM      3  C   UNL     1       9.473   2.734  -2.474  0.00  0.00    +0.008 A 
ATOM      4  C   UNL     1       9.578   4.109  -2.560  0.00  0.00    +0.023 A 
ATOM      5  C   UNL     1       8.436   4.896  -2.502  0.00  0.00    +0.029 A 
ATOM      6  C   UNL     1       7.190   4.298  -2.357  0.00  0.00    +0.023 A 
ATOM      7  C   UNL     1       7.091   2.923  -2.277  0.00  0.00    +0.008 A 
BRANCH   5   8
ATOM      8  N   UNL     1       8.539   6.287  -2.588  0.00  0.00    -0.336 N 
ATOM      9  C   UNL     1       9.839   6.910  -2.850  0.00  0.00    +0.129 C 
ATOM     10  C   UNL     1       7.348   7.122  -2.417  0.00  0.00    +0.129 C 
ENDBRANCH   5   8
ENDBRANCH   1   2
BRANCH   1  12
ATOM     11  N   UNL     1       7.312   0.595   0.101  0.00  0.00    -0.308 N 
ATOM     12  C   UNL     1       8.245   0.218  -0.795  0.00  0.00    +0.239 C 
ATOM     13  O   UNL     1       9.185  -0.462  -0.443  0.00  0.00    -0.273 OA
ATOM     14  H   UNL     1       6.560   1.139  -0.181  0.00  0.00    +0.149 HD
BRANCH  11  15
ATOM     15  C   UNL     1       7.433   0.183   1.502  0.00  0.00    +0.030 C 
ATOM     16  C   UNL     1       8.844   0.496   2.005  0.00  0.00    +0.031 C 
ATOM     17  C   UNL     1       7.173  -1.321   1.615  0.00  0.00    +0.031 C 
BRANCH  15  18
ATOM     18  C   UNL     1       6.409   0.943   2.348  0.00  0.00    +0.031 C 
BRANCH  18  20
ATOM     19  C   UNL     1       5.624   2.568   0.620  0.00  0.00    +0.010 C 
ATOM     20  C   UNL     1       6.396   2.415   1.932  0.00  0.00    -0.036 C 
ATOM     21  C   UNL     1       7.833   2.903   1.737  0.00  0.00    +0.010 C 
ATOM     22  C   UNL     1       5.718   3.247   3.022  0.00  0.00    +0.010 C 
ENDBRANCH  18  20
ENDBRANCH  15  18
ENDBRANCH  11  15
ENDBRANCH   1  12
BRANCH   1  23
ATOM     23  N   UNL     1       9.190   0.023  -3.022  0.00  0.00    -0.277 N 
ATOM     24  C   UNL     1      10.463   0.068  -2.580  0.00  0.00    +0.252 C 
ATOM     25  O   UNL     1      10.694   0.349  -1.420  0.00  0.00    -0.270 OA
BRANCH  24  26
ATOM     26  C   UNL     1      11.575  -0.224  -3.505  0.00  0.00    +0.082 A 
ATOM     27  C   UNL     1      11.310  -0.624  -4.818  0.00  0.00    +0.017 A 
ATOM     28  C   UNL     1      12.351  -0.895  -5.678  0.00  0.00    +0.005 A 
ATOM     29  C   UNL     1      13.663  -0.773  -5.250  0.00  0.00    +0.049 A 
ATOM     30  C   UNL     1      13.941  -0.379  -3.953  0.00  0.00    +0.159 A 
ATOM     31  C   UNL     1      12.900  -0.095  -3.073  0.00  0.00    +0.171 A 
BRANCH  31  32
ATOM     32  O   UNL     1      13.169   0.298  -1.802  0.00  0.00    -0.503 OA
ATOM     33  H   UNL     1      13.243  -0.432  -1.172  0.00  0.00    +0.292 HD
ENDBRANCH  31  32
BRANCH  30  34
ATOM     34  O   UNL     1      15.232  -0.262  -3.539  0.00  0.00    -0.503 OA
ATOM     35  H   UNL     1      15.611   0.617  -3.678  0.00  0.00    +0.292 HD
ENDBRANCH  30  34
ENDBRANCH  24  26
BRANCH  23  36
ATOM     36  C   UNL     1       8.877  -0.645  -4.287  0.00  0.00    +0.030 C 
ATOM     37  C   UNL     1       7.385  -0.980  -4.332  0.00  0.00    +0.031 C 
ATOM     38  C   UNL     1       9.226   0.282  -5.454  0.00  0.00    +0.031 C 
ATOM     39  C   UNL     1       9.693  -1.935  -4.399  0.00  0.00    +0.031 C 
ENDBRANCH  23  36
ENDBRANCH   1  23
TORSDOF 11
