REMARK  Name = ZINC03245410
REMARK  4 active torsions:
REMARK  status: ('A' for Active; 'I' for Inactive)
REMARK    1  A    between atoms: C_8  and  C_10
REMARK    2  A    between atoms: C_10  and  S_11
REMARK    3  A    between atoms: S_11  and  C_12
REMARK    4  A    between atoms: C_15  and  O_16
REMARK                            x       y       z     vdW  Elec       q    Type
REMARK                         _______ _______ _______ _____ _____    ______ ____
ROOT
ATOM      1  C   UNL     1      -1.759   5.809  -4.186  0.00  0.00    +0.193 A 
ATOM      2  N   UNL     1      -1.651   4.495  -4.529  0.00  0.00    -0.187 NA
ATOM      3  C   UNL     1      -1.382   3.519  -3.630  0.00  0.00    +0.225 A 
ATOM      4  C   UNL     1      -1.212   3.947  -2.273  0.00  0.00    +0.072 A 
ATOM      5  C   UNL     1      -0.919   3.104  -1.126  0.00  0.00    -0.023 A 
ATOM      6  C   UNL     1      -0.802   3.725   0.070  0.00  0.00    -0.004 A 
ATOM      7  S   UNL     1      -1.073   5.446  -0.271  0.00  0.00    -0.073 S 
ATOM      8  C   UNL     1      -1.343   5.330  -2.011  0.00  0.00    +0.117 A 
ATOM      9  N   UNL     1      -1.609   6.239  -2.941  0.00  0.00    -0.214 NA
ATOM     10  C   UNL     1      -0.507   3.094   1.396  0.00  0.00    +0.043 C 
ATOM     11  C   UNL     1      -0.723   1.579   1.270  0.00  0.00    +0.005 C 
ATOM     12  C   UNL     1      -0.010   1.086   0.007  0.00  0.00    +0.005 C 
ATOM     13  C   UNL     1      -0.747   1.591  -1.233  0.00  0.00    +0.037 C 
ENDROOT
BRANCH   3  15
ATOM     14  H   UNL     1      -1.087   1.793  -3.148  0.00  0.00    +0.294 HD
ATOM     15  O   UNL     1      -1.288   2.348  -3.955  0.00  0.00    -0.492 OA
ENDBRANCH   3  15
BRANCH   1  16
ATOM     16  S   UNL     1      -2.113   6.985  -5.450  0.00  0.00    -0.079 S 
BRANCH  16  17
ATOM     17  C   UNL     1      -2.143   8.504  -4.466  0.00  0.00    +0.140 C 
BRANCH  17  25
ATOM     18  C   UNL     1      -4.827  12.969  -7.776  0.00  0.00    +0.002 A 
ATOM     19  C   UNL     1      -3.611  13.455  -8.235  0.00  0.00    +0.001 A 
ATOM     20  C   UNL     1      -2.439  12.843  -7.833  0.00  0.00    +0.017 A 
ATOM     21  C   UNL     1      -2.500  11.762  -6.986  0.00  0.00    +0.039 A 
ATOM     22  C   UNL     1      -3.723  11.245  -6.503  0.00  0.00    +0.079 A 
ATOM     23  C   UNL     1      -4.897  11.899  -6.937  0.00  0.00    +0.029 A 
ATOM     24  N   UNL     1      -3.596  10.182  -5.682  0.00  0.00    -0.243 NA
ATOM     25  C   UNL     1      -2.437   9.678  -5.364  0.00  0.00    +0.090 A 
ATOM     26  S   UNL     1      -1.313  10.689  -6.217  0.00  0.00    -0.071 S 
ENDBRANCH  17  25
ENDBRANCH  16  17
ENDBRANCH   1  16
TORSDOF 4
