REMARK  Name = ZINC39934658
REMARK  11 active torsions:
REMARK  status: ('A' for Active; 'I' for Inactive)
REMARK    1  A    between atoms: C_1  and  C_2
REMARK    2  A    between atoms: C_2  and  O_3
REMARK    3  A    between atoms: O_3  and  C_4
REMARK    4  A    between atoms: C_6  and  C_11
REMARK    5  A    between atoms: C_9  and  O_10
REMARK    6  A    between atoms: C_11  and  C_12
REMARK    7  A    between atoms: C_11  and  C_25
REMARK    8  A    between atoms: C_13  and  O_24
REMARK    9  A    between atoms: C_16  and  C_18
REMARK   10  A    between atoms: C_26  and  O_37
REMARK   11  A    between atoms: C_29  and  C_31
REMARK                            x       y       z     vdW  Elec       q    Type
REMARK                         _______ _______ _______ _____ _____    ______ ____
ROOT
ATOM      1  C   UNL     1       0.794  -4.968  -0.087  0.00  0.00    +0.086 C 
ENDROOT
BRANCH   1   4
ATOM      2  C   UNL     1      -1.695  -2.163   0.365  0.00  0.00    +0.162 A 
ATOM      3  C   UNL     1      -0.510  -2.881   0.363  0.00  0.00    +0.054 A 
ATOM      4  C   UNL     1      -0.495  -4.189  -0.086  0.00  0.00    -0.032 A 
ATOM      5  C   UNL     1      -1.661  -4.782  -0.534  0.00  0.00    +0.008 A 
ATOM      6  C   UNL     1      -2.846  -4.071  -0.535  0.00  0.00    +0.049 A 
ATOM      7  C   UNL     1      -2.869  -2.762  -0.081  0.00  0.00    +0.158 A 
BRANCH   7   8
ATOM      8  O   UNL     1      -4.036  -2.063  -0.075  0.00  0.00    -0.503 OA
ATOM      9  H   UNL     1      -4.207  -1.577  -0.894  0.00  0.00    +0.292 HD
ENDBRANCH   7   8
BRANCH   2  10
ATOM     10  O   UNL     1      -1.712  -0.877   0.807  0.00  0.00    -0.489 OA
BRANCH  10  12
ATOM     11  C   UNL     1      -0.684   1.118   1.705  0.00  0.00    +0.048 C 
ATOM     12  C   UNL     1      -0.469  -0.327   1.249  0.00  0.00    +0.226 C 
ENDBRANCH  10  12
ENDBRANCH   2  10
ENDBRANCH   1   4
BRANCH   1  13
ATOM     13  C   UNL     1       0.846  -5.856   1.129  0.00  0.00    +0.033 C 
ATOM     14  C   UNL     1      -0.141  -6.133   1.992  0.00  0.00    +0.232 C 
ATOM     15  N   UNL     1       0.292  -6.976   2.960  0.00  0.00    -0.140 NA
ATOM     16  N   UNL     1       1.475  -7.309   2.855  0.00  0.00    -0.294 N 
ATOM     17  C   UNL     1       2.026  -6.650   1.659  0.00  0.00    +0.161 C 
ATOM     18  H   UNL     1       1.956  -7.903   3.453  0.00  0.00    +0.184 HD
BRANCH  17  19
ATOM     19  C   UNL     1       3.160  -5.732   2.035  0.00  0.00    -0.019 A 
ATOM     20  C   UNL     1       3.084  -4.977   3.190  0.00  0.00    +0.006 A 
ATOM     21  C   UNL     1       4.124  -4.134   3.535  0.00  0.00    +0.000 A 
ATOM     22  C   UNL     1       5.241  -4.047   2.725  0.00  0.00    +0.000 A 
ATOM     23  C   UNL     1       5.317  -4.803   1.570  0.00  0.00    +0.000 A 
ATOM     24  C   UNL     1       4.279  -5.648   1.227  0.00  0.00    +0.006 A 
ENDBRANCH  17  19
BRANCH  14  25
ATOM     25  O   UNL     1      -1.404  -5.637   1.907  0.00  0.00    -0.491 OA
ATOM     26  H   UNL     1      -1.993  -5.939   2.612  0.00  0.00    +0.294 HD
ENDBRANCH  14  25
ENDBRANCH   1  13
BRANCH   1  27
ATOM     27  C   UNL     1       0.867  -5.816  -1.331  0.00  0.00    +0.033 C 
ATOM     28  C   UNL     1       0.675  -7.137  -1.443  0.00  0.00    +0.232 C 
ATOM     29  N   UNL     1       0.827  -7.535  -2.729  0.00  0.00    -0.140 NA
ATOM     30  N   UNL     1       1.103  -6.626  -3.516  0.00  0.00    -0.294 N 
ATOM     31  C   UNL     1       1.169  -5.370  -2.751  0.00  0.00    +0.161 C 
ATOM     32  H   UNL     1       1.247  -6.722  -4.471  0.00  0.00    +0.184 HD
BRANCH  31  33
ATOM     33  C   UNL     1       2.548  -4.768  -2.838  0.00  0.00    -0.019 A 
ATOM     34  C   UNL     1       3.654  -5.589  -2.958  0.00  0.00    +0.006 A 
ATOM     35  C   UNL     1       4.919  -5.037  -3.038  0.00  0.00    +0.000 A 
ATOM     36  C   UNL     1       5.078  -3.665  -2.999  0.00  0.00    +0.000 A 
ATOM     37  C   UNL     1       3.972  -2.844  -2.880  0.00  0.00    +0.000 A 
ATOM     38  C   UNL     1       2.707  -3.396  -2.804  0.00  0.00    +0.006 A 
ENDBRANCH  31  33
BRANCH  28  39
ATOM     39  O   UNL     1       0.372  -7.964  -0.408  0.00  0.00    -0.491 OA
ATOM     40  H   UNL     1       0.267  -8.891  -0.663  0.00  0.00    +0.294 HD
ENDBRANCH  28  39
ENDBRANCH   1  27
TORSDOF 10
