REMARK  Name = ZINC39596510
REMARK  9 active torsions:
REMARK  status: ('A' for Active; 'I' for Inactive)
REMARK    1  A    between atoms: C_1  and  C_2
REMARK    2  A    between atoms: C_3  and  C_13
REMARK    3  A    between atoms: C_4  and  C_7
REMARK    4  A    between atoms: C_17  and  C_26
REMARK    5  A    between atoms: N_28  and  C_29
REMARK    6  A    between atoms: C_29  and  C_30
REMARK    7  A    between atoms: C_30  and  C_32
REMARK    8  A    between atoms: C_30  and  O_33
REMARK    9  A    between atoms: O_33  and  C_34
REMARK                            x       y       z     vdW  Elec       q    Type
REMARK                         _______ _______ _______ _____ _____    ______ ____
ROOT
ATOM      1  C   UNL     1      -0.528  -0.765   0.417  0.00  0.00    +0.252 C 
ATOM      2  O   UNL     1      -1.159  -0.941  -0.608  0.00  0.00    -0.270 OA
ATOM      3  N   UNL     1      -1.176  -0.607   1.588  0.00  0.00    -0.296 N 
ATOM      4  C   UNL     1      -0.592  -0.291   2.913  0.00  0.00    +0.121 C 
ATOM      5  C   UNL     1      -1.591   0.698   3.554  0.00  0.00    +0.100 C 
ATOM      6  C   UNL     1      -2.929   0.418   2.849  0.00  0.00    -0.004 C 
ATOM      7  C   UNL     1      -2.634  -0.702   1.841  0.00  0.00    +0.115 C 
ATOM      8  C   UNL     1      -3.410   1.666   2.115  0.00  0.00    -0.010 C 
ATOM      9  C   UNL     1      -4.769   1.380   1.469  0.00  0.00    -0.082 C 
ATOM     10  N   UNL     1      -5.734   0.994   2.506  0.00  0.00    +0.379 N 
ATOM     11  C   UNL     1      -5.310  -0.258   3.144  0.00  0.00    -0.082 C 
ATOM     12  C   UNL     1      -3.974  -0.041   3.860  0.00  0.00    -0.010 C 
ATOM     13  H   UNL     1      -5.788   1.723   3.201  0.00  0.00    -0.086 HD
ATOM     14  H   UNL     1      -6.643   0.865   2.086  0.00  0.00    -0.086 HD
ENDROOT
BRANCH   1  17
ATOM     15  C   UNL     1       1.220   1.746  -0.219  0.00  0.00    +0.090 C 
ATOM     16  C   UNL     1       1.720   0.361   0.102  0.00  0.00    +0.147 A 
ATOM     17  C   UNL     1       0.943  -0.725   0.378  0.00  0.00    +0.106 A 
ATOM     18  C   UNL     1       1.858  -1.849   0.628  0.00  0.00    +0.126 A 
ATOM     19  N   UNL     1       3.075  -1.386   0.493  0.00  0.00    -0.077 NA
ATOM     20  O   UNL     1       3.001  -0.014   0.160  0.00  0.00    -0.359 OA
BRANCH  18  21
ATOM     21  C   UNL     1       1.476  -3.240   0.969  0.00  0.00    +0.004 A 
ATOM     22  C   UNL     1       0.351  -3.484   1.756  0.00  0.00    +0.010 A 
ATOM     23  C   UNL     1      -0.000  -4.781   2.070  0.00  0.00    +0.001 A 
ATOM     24  C   UNL     1       0.761  -5.838   1.605  0.00  0.00    +0.000 A 
ATOM     25  C   UNL     1       1.878  -5.603   0.824  0.00  0.00    +0.001 A 
ATOM     26  C   UNL     1       2.235  -4.310   0.499  0.00  0.00    +0.010 A 
ENDBRANCH  18  21
ENDBRANCH   1  17
BRANCH   5  27
ATOM     27  C   UNL     1      -1.153   2.119   3.309  0.00  0.00    +0.218 C 
ATOM     28  O   UNL     1      -0.491   2.389   2.329  0.00  0.00    -0.275 OA
ATOM     29  N   UNL     1      -1.497   3.090   4.178  0.00  0.00    -0.312 N 
ATOM     30  H   UNL     1      -2.027   2.875   4.961  0.00  0.00    +0.149 HD
BRANCH  29  31
ATOM     31  C   UNL     1      -1.071   4.472   3.939  0.00  0.00    +0.148 C 
BRANCH  31  32
ATOM     32  C   UNL     1      -1.590   5.367   5.065  0.00  0.00    +0.187 C 
ATOM     33  C   UNL     1      -1.253   6.827   4.753  0.00  0.00    +0.053 C 
BRANCH  32  34
ATOM     34  O   UNL     1      -0.973   4.989   6.297  0.00  0.00    -0.488 OA
BRANCH  34  35
ATOM     35  C   UNL     1      -1.650   5.277   7.441  0.00  0.00    +0.121 A 
ATOM     36  C   UNL     1      -2.827   6.008   7.385  0.00  0.00    +0.048 A 
ATOM     37  C   UNL     1      -3.514   6.300   8.548  0.00  0.00    +0.042 A 
ATOM     38  C   UNL     1      -3.027   5.863   9.768  0.00  0.00    +0.124 A 
ATOM     39  C   UNL     1      -1.852   5.133   9.825  0.00  0.00    +0.042 A 
ATOM     40  C   UNL     1      -1.167   4.834   8.663  0.00  0.00    +0.048 A 
ATOM     41  F   UNL     1      -3.700   6.149  10.905  0.00  0.00    -0.205 F 
ENDBRANCH  34  35
ENDBRANCH  32  34
ENDBRANCH  31  32
ENDBRANCH  29  31
ENDBRANCH   5  27
TORSDOF 7
