REMARK  Name = ZINC52541736
REMARK  9 active torsions:
REMARK  status: ('A' for Active; 'I' for Inactive)
REMARK    1  A    between atoms: C_1  and  C_2
REMARK    2  A    between atoms: C_2  and  C_3
REMARK    3  A    between atoms: C_2  and  C_4
REMARK    4  A    between atoms: C_2  and  N_38
REMARK    5  A    between atoms: N_6  and  C_7
REMARK    6  A    between atoms: C_7  and  C_9
REMARK    7  A    between atoms: C_7  and  C_19
REMARK    8  A    between atoms: C_9  and  C_10
REMARK    9  A    between atoms: C_28  and  O_37
REMARK                            x       y       z     vdW  Elec       q    Type
REMARK                         _______ _______ _______ _____ _____    ______ ____
ROOT
ATOM      1  C   UNL     1      -3.465  -1.164  -1.134  0.00  0.00    +0.163 C 
ENDROOT
BRANCH   1   2
ATOM      2  C   UNL     1      -3.485  -2.550  -0.541  0.00  0.00    +0.236 C 
ATOM      3  O   UNL     1      -2.564  -2.925   0.155  0.00  0.00    -0.274 OA
ATOM      4  N   UNL     1      -4.525  -3.372  -0.783  0.00  0.00    -0.300 N 
ATOM      5  C   UNL     1      -5.644  -2.933  -1.629  0.00  0.00    +0.111 C 
ATOM      6  C   UNL     1      -6.952  -3.130  -0.855  0.00  0.00    +0.067 C 
ATOM      7  C   UNL     1      -7.048  -4.582  -0.386  0.00  0.00    +0.116 C 
ATOM      8  C   UNL     1      -5.881  -4.901   0.550  0.00  0.00    +0.067 C 
ATOM      9  C   UNL     1      -4.558  -4.725  -0.211  0.00  0.00    +0.111 C 
ATOM     10  C   UNL     1      -8.372  -4.794   0.355  0.00  0.00    +0.084 C 
ATOM     11  C   UNL     1      -9.515  -4.365  -0.568  0.00  0.00    +0.152 C 
ATOM     12  C   UNL     1      -9.323  -4.975  -1.933  0.00  0.00    +0.023 A 
ATOM     13  C   UNL     1     -10.404  -5.027  -2.797  0.00  0.00    +0.010 A 
ATOM     14  C   UNL     1     -10.263  -5.575  -4.058  0.00  0.00    +0.001 A 
ATOM     15  C   UNL     1      -9.038  -6.073  -4.462  0.00  0.00    +0.004 A 
ATOM     16  C   UNL     1      -7.958  -6.025  -3.605  0.00  0.00    +0.046 A 
ATOM     17  C   UNL     1      -8.097  -5.477  -2.333  0.00  0.00    +0.127 A 
ATOM     18  O   UNL     1      -7.013  -5.456  -1.514  0.00  0.00    -0.485 OA
BRANCH  11  19
ATOM     19  O   UNL     1     -10.759  -4.808  -0.022  0.00  0.00    -0.387 OA
ATOM     20  H   UNL     1     -11.530  -4.570  -0.556  0.00  0.00    +0.210 HD
ENDBRANCH  11  19
ENDBRANCH   1   2
BRANCH   1  23
ATOM     21  C   UNL     1      -1.412  -0.526   0.013  0.00  0.00    +0.202 C 
ATOM     22  O   UNL     1      -1.939  -0.827   1.062  0.00  0.00    -0.277 OA
ATOM     23  N   UNL     1      -2.090  -0.657  -1.144  0.00  0.00    -0.305 N 
ATOM     24  H   UNL     1      -1.669  -0.416  -1.984  0.00  0.00    +0.149 HD
BRANCH  21  26
ATOM     25  C   UNL     1      -0.019   1.526   0.010  0.00  0.00    -0.001 C 
ATOM     26  C   UNL     1       0.002  -0.004   0.002  0.00  0.00    +0.001 C 
ATOM     27  C   UNL     1       0.742  -0.511   1.242  0.00  0.00    -0.001 C 
BRANCH  26  28
ATOM     28  N   UNL     1       0.690  -0.478  -1.207  0.00  0.00    +0.387 N 
ATOM     29  H   UNL     1       1.636  -0.129  -1.214  0.00  0.00    -0.089 HD
ATOM     30  H   UNL     1       0.703  -1.487  -1.212  0.00  0.00    -0.089 HD
ATOM     31  H   UNL     1       0.202  -0.144  -2.024  0.00  0.00    -0.089 HD
ENDBRANCH  26  28
ENDBRANCH  21  26
ENDBRANCH   1  23
BRANCH   1  32
ATOM     32  C   UNL     1      -4.344  -0.237  -0.293  0.00  0.00    +0.065 C 
BRANCH  32  33
ATOM     33  C   UNL     1      -4.423   1.115  -0.954  0.00  0.00    -0.039 C 
ATOM     34  C   UNL     1      -5.391   1.557  -1.789  0.00  0.00    -0.001 A 
ATOM     35  C   UNL     1      -6.612   0.934  -2.313  0.00  0.00    +0.010 A 
ATOM     36  C   UNL     1      -7.402   1.643  -3.152  0.00  0.00    +0.001 A 
ATOM     37  C   UNL     1      -7.083   2.954  -3.533  0.00  0.00    +0.002 A 
ATOM     38  C   UNL     1      -5.979   3.593  -3.092  0.00  0.00    +0.026 A 
ATOM     39  C   UNL     1      -5.077   2.943  -2.205  0.00  0.00    +0.043 A 
ATOM     40  N   UNL     1      -3.959   3.342  -1.649  0.00  0.00    -0.380 N 
ATOM     41  C   UNL     1      -3.440   2.256  -0.811  0.00  0.00    +0.144 C 
ATOM     42  H   UNL     1      -3.547   4.212  -1.769  0.00  0.00    +0.160 HD
ENDBRANCH  32  33
ENDBRANCH   1  32
TORSDOF 7
