REMARK  Name = ZINC12603137
REMARK  9 active torsions:
REMARK  status: ('A' for Active; 'I' for Inactive)
REMARK    1  A    between atoms: C_1  and  C_2
REMARK    2  A    between atoms: N_4  and  C_5
REMARK    3  A    between atoms: C_5  and  C_6
REMARK    4  A    between atoms: C_6  and  N_7
REMARK    5  A    between atoms: N_7  and  C_8
REMARK    6  A    between atoms: C_11  and  C_34
REMARK    7  A    between atoms: C_14  and  C_30
REMARK    8  A    between atoms: C_30  and  O_32
REMARK    9  A    between atoms: O_32  and  C_33
REMARK                            x       y       z     vdW  Elec       q    Type
REMARK                         _______ _______ _______ _____ _____    ______ ____
ROOT
ATOM      1  C   UNL     1      -1.827   1.310   1.707  0.00  0.00    -0.068 C 
ATOM      2  C   UNL     1      -0.787   0.903   0.660  0.00  0.00    +0.008 C 
ATOM      3  C   UNL     1      -1.169   1.499  -0.698  0.00  0.00    +0.087 C 
ATOM      4  N   UNL     1      -2.500   1.015  -1.082  0.00  0.00    -0.274 NA
ATOM      5  C   UNL     1      -2.845   1.404  -2.454  0.00  0.00    +0.172 C 
ATOM      6  C   UNL     1      -4.035   0.564  -2.939  0.00  0.00    +0.068 C 
ATOM      7  C   UNL     1      -5.099   0.595  -1.872  0.00  0.00    -0.016 A 
ATOM      8  C   UNL     1      -6.496   0.231  -1.960  0.00  0.00    +0.003 A 
ATOM      9  C   UNL     1      -7.290  -0.245  -3.008  0.00  0.00    +0.010 A 
ATOM     10  C   UNL     1      -8.611  -0.488  -2.726  0.00  0.00    +0.001 A 
ATOM     11  C   UNL     1      -9.146  -0.276  -1.466  0.00  0.00    +0.002 A 
ATOM     12  C   UNL     1      -8.383   0.193  -0.410  0.00  0.00    +0.026 A 
ATOM     13  C   UNL     1      -7.038   0.449  -0.667  0.00  0.00    +0.047 A 
ATOM     14  N   UNL     1      -6.027   0.910   0.127  0.00  0.00    -0.356 N 
ATOM     15  H   UNL     1      -6.221   1.146   1.183  0.00  0.00    +0.166 HD
ATOM     16  C   UNL     1      -4.871   0.996  -0.600  0.00  0.00    +0.038 A 
ATOM     17  C   UNL     1      -3.518   1.458  -0.118  0.00  0.00    +0.103 C 
ATOM     18  C   UNL     1      -3.214   0.848   1.251  0.00  0.00    +0.009 C 
ENDROOT
BRANCH   3  19
ATOM     19  C   UNL     1      -0.161   1.075  -1.734  0.00  0.00    -0.030 A 
ATOM     20  C   UNL     1      -0.238  -0.185  -2.299  0.00  0.00    +0.005 A 
ATOM     21  C   UNL     1       0.684  -0.572  -3.253  0.00  0.00    +0.000 A 
ATOM     22  C   UNL     1       1.689   0.296  -3.636  0.00  0.00    +0.000 A 
ATOM     23  C   UNL     1       1.769   1.554  -3.068  0.00  0.00    +0.000 A 
ATOM     24  C   UNL     1       0.845   1.943  -2.117  0.00  0.00    +0.005 A 
ENDBRANCH   3  19
BRANCH   1  25
ATOM     25  N   UNL     1      -1.823   2.771   1.859  0.00  0.00    +0.382 N 
ATOM     26  H   UNL     1      -2.811   3.091   2.222  0.00  0.00    -0.085 HD
ATOM     27  H   UNL     1      -1.628   3.228   0.877  0.00  0.00    -0.085 HD
BRANCH  25  28
ATOM     28  C   UNL     1      -0.790   3.198   2.812  0.00  0.00    -0.063 C 
BRANCH  28  29
ATOM     29  C   UNL     1      -0.816   4.723   2.944  0.00  0.00    +0.085 C 
BRANCH  29  33
ATOM     30  C   UNL     1       1.436   6.896   5.147  0.00  0.00    +0.109 C 
ATOM     31  C   UNL     1       0.376   6.458   4.170  0.00  0.00    +0.210 C 
ATOM     32  O   UNL     1      -0.331   7.283   3.632  0.00  0.00    -0.276 OA
ATOM     33  N   UNL     1       0.214   5.149   3.894  0.00  0.00    -0.317 N 
ATOM     34  H   UNL     1       0.856   4.400   4.382  0.00  0.00    +0.149 HD
ENDBRANCH  29  33
ENDBRANCH  28  29
ENDBRANCH  25  28
ENDBRANCH   1  25
BRANCH   5  35
ATOM     35  C   UNL     1      -3.215   2.865  -2.484  0.00  0.00    +0.325 C 
ATOM     36  O   UNL     1      -3.000   3.562  -1.522  0.00  0.00    -0.249 OA
BRANCH  35  37
ATOM     37  O   UNL     1      -3.784   3.390  -3.580  0.00  0.00    -0.467 OA
ATOM     38  C   UNL     1      -4.114   4.803  -3.538  0.00  0.00    +0.280 C 
ENDBRANCH  35  37
ENDBRANCH   5  35
TORSDOF 7
