REMARK  Name = ZINC39280453
REMARK  12 active torsions:
REMARK  status: ('A' for Active; 'I' for Inactive)
REMARK    1  A    between atoms: C_1  and  C_2
REMARK    2  A    between atoms: C_2  and  O_3
REMARK    3  A    between atoms: O_3  and  C_4
REMARK    4  A    between atoms: C_9  and  S_14
REMARK    5  A    between atoms: S_14  and  C_15
REMARK    6  A    between atoms: C_15  and  C_16
REMARK    7  A    between atoms: C_16  and  C_20
REMARK    8  A    between atoms: C_20  and  S_21
REMARK    9  A    between atoms: S_21  and  C_22
REMARK   10  A    between atoms: C_28  and  O_32
REMARK   11  A    between atoms: O_32  and  C_33
REMARK   12  A    between atoms: C_33  and  C_34
REMARK                            x       y       z     vdW  Elec       q    Type
REMARK                         _______ _______ _______ _____ _____    ______ ____
ROOT
ATOM      1  C   UNL     1       5.732  -6.328   1.316  0.00  0.00    +0.036 C 
ATOM      2  C   UNL     1       6.495  -5.764   2.530  0.00  0.00    +0.170 C 
ATOM      3  O   UNL     1       7.638  -5.731   1.653  0.00  0.00    -0.378 OA
ATOM      4  C   UNL     1       6.829  -5.665   0.462  0.00  0.00    +0.170 C 
ENDROOT
BRANCH   1   5
ATOM      5  C   UNL     1       4.343  -5.717   1.121  0.00  0.00    +0.085 C 
BRANCH   5   6
ATOM      6  S   UNL     1       3.788  -6.008  -0.582  0.00  0.00    -0.114 S 
BRANCH   6  12
ATOM      7  C   UNL     1      -0.174  -3.722   3.031  0.00  0.00    +0.123 A 
ATOM      8  C   UNL     1       0.439  -2.467   2.614  0.00  0.00    +0.048 A 
ATOM      9  C   UNL     1       1.245  -2.393   1.538  0.00  0.00    +0.031 A 
ATOM     10  C   UNL     1       1.526  -3.603   0.751  0.00  0.00    +0.061 A 
ATOM     11  N   UNL     1       2.252  -3.809  -0.310  0.00  0.00    -0.355 N 
ATOM     12  C   UNL     1       2.149  -5.234  -0.647  0.00  0.00    +0.235 C 
ATOM     13  N   UNL     1       1.266  -5.835   0.359  0.00  0.00    -0.355 N 
ATOM     14  C   UNL     1       0.901  -4.885   1.176  0.00  0.00    +0.064 A 
ATOM     15  C   UNL     1       0.040  -4.880   2.361  0.00  0.00    +0.073 A 
ATOM     16  H   UNL     1       2.766  -3.142  -0.791  0.00  0.00    +0.162 HD
ATOM     17  H   UNL     1       1.002  -6.767   0.407  0.00  0.00    +0.162 HD
BRANCH   7  18
ATOM     18  O   UNL     1      -0.977  -3.731   4.124  0.00  0.00    -0.492 OA
BRANCH  18  20
ATOM     19  C   UNL     1      -2.100  -2.693   5.995  0.00  0.00    +0.048 C 
ATOM     20  C   UNL     1      -1.173  -2.486   4.796  0.00  0.00    +0.225 C 
ENDBRANCH  18  20
ENDBRANCH   7  18
ENDBRANCH   6  12
ENDBRANCH   5   6
ENDBRANCH   1   5
BRANCH   1  21
ATOM     21  C   UNL     1       5.729  -7.856   1.240  0.00  0.00    +0.089 C 
BRANCH  21  22
ATOM     22  S   UNL     1       4.770  -8.529   2.624  0.00  0.00    -0.087 S 
BRANCH  22  23
ATOM     23  C   UNL     1       4.861 -10.274   2.398  0.00  0.00    +0.167 A 
ATOM     24  H   UNL     1       3.756 -11.022   4.011  0.00  0.00    +0.168 HD
ATOM     25  N   UNL     1       5.498 -10.874   1.425  0.00  0.00    -0.222 NA
ATOM     26  C   UNL     1       5.364 -12.222   1.553  0.00  0.00    +0.090 A 
ATOM     27  C   UNL     1       5.830 -13.307   0.807  0.00  0.00    +0.033 A 
ATOM     28  C   UNL     1       5.521 -14.591   1.198  0.00  0.00    +0.048 A 
ATOM     29  C   UNL     1       4.745 -14.815   2.331  0.00  0.00    +0.123 A 
ATOM     30  C   UNL     1       4.276 -13.749   3.079  0.00  0.00    +0.073 A 
ATOM     31  C   UNL     1       4.581 -12.452   2.697  0.00  0.00    +0.070 A 
ATOM     32  N   UNL     1       4.281 -11.203   3.216  0.00  0.00    -0.333 N 
BRANCH  29  33
ATOM     33  O   UNL     1       4.447 -16.088   2.705  0.00  0.00    -0.492 OA
BRANCH  33  34
ATOM     34  C   UNL     1       4.962 -17.142   1.889  0.00  0.00    +0.225 C 
ATOM     35  C   UNL     1       4.526 -18.491   2.463  0.00  0.00    +0.048 C 
ENDBRANCH  33  34
ENDBRANCH  29  33
ENDBRANCH  22  23
ENDBRANCH  21  22
ENDBRANCH   1  21
TORSDOF 10
