REMARK  Name = ZINC37135455
REMARK  8 active torsions:
REMARK  status: ('A' for Active; 'I' for Inactive)
REMARK    1  A    between atoms: C_1  and  C_2
REMARK    2  A    between atoms: C_5  and  S_19
REMARK    3  A    between atoms: C_7  and  N_8
REMARK    4  A    between atoms: N_8  and  C_9
REMARK    5  A    between atoms: C_9  and  C_11
REMARK    6  A    between atoms: C_9  and  C_12
REMARK    7  A    between atoms: C_17  and  O_18
REMARK    8  A    between atoms: S_19  and  N_22
REMARK                            x       y       z     vdW  Elec       q    Type
REMARK                         _______ _______ _______ _____ _____    ______ ____
ROOT
ATOM      1  C   UNL     1      -0.798   1.179  -0.077  0.00  0.00    +0.045 C 
ATOM      2  C   UNL     1      -0.662  -0.319   0.019  0.00  0.00    -0.029 A 
ATOM      3  C   UNL     1      -0.803  -1.099  -1.111  0.00  0.00    +0.007 A 
ATOM      4  C   UNL     1      -0.678  -2.474  -1.024  0.00  0.00    +0.029 A 
ATOM      5  C   UNL     1      -0.412  -3.071   0.195  0.00  0.00    +0.107 A 
ATOM      6  C   UNL     1      -0.270  -2.296   1.329  0.00  0.00    +0.051 A 
ATOM      7  C   UNL     1      -0.389  -0.915   1.244  0.00  0.00    +0.032 A 
ENDROOT
BRANCH   5   8
ATOM      8  S   UNL     1      -0.255  -4.823   0.300  0.00  0.00    +0.056 S 
ATOM      9  O   UNL     1      -0.547  -5.176   1.645  0.00  0.00    -0.153 OA
ATOM     10  O   UNL     1      -0.972  -5.362  -0.802  0.00  0.00    -0.153 OA
BRANCH   8  11
ATOM     11  N   UNL     1       1.341  -5.187   0.051  0.00  0.00    -0.204 NA
ATOM     12  H   UNL     1       1.731  -5.970   0.470  0.00  0.00    +0.144 HD
ATOM     13  H   UNL     1       1.886  -4.618  -0.515  0.00  0.00    +0.144 HD
ENDBRANCH   8  11
ENDBRANCH   5   8
BRANCH   7  14
ATOM     14  N   UNL     1      -0.241  -0.127   2.388  0.00  0.00    -0.337 N 
ATOM     15  H   UNL     1      -0.328   0.837   2.328  0.00  0.00    +0.147 HD
BRANCH  14  16
ATOM     16  C   UNL     1       0.047  -0.758   3.678  0.00  0.00    +0.101 C 
ATOM     17  C   UNL     1       1.556  -0.969   3.818  0.00  0.00    +0.033 C 
BRANCH  16  18
ATOM     18  C   UNL     1      -0.440   0.132   4.792  0.00  0.00    +0.014 A 
ATOM     19  C   UNL     1      -0.525   1.498   4.599  0.00  0.00    +0.009 A 
ATOM     20  C   UNL     1      -0.971   2.315   5.621  0.00  0.00    +0.001 A 
ATOM     21  C   UNL     1      -1.335   1.768   6.838  0.00  0.00    +0.004 A 
ATOM     22  C   UNL     1      -1.254   0.404   7.036  0.00  0.00    +0.046 A 
ATOM     23  C   UNL     1      -0.810  -0.419   6.010  0.00  0.00    +0.122 A 
BRANCH  23  24
ATOM     24  O   UNL     1      -0.734  -1.762   6.200  0.00  0.00    -0.506 OA
ATOM     25  H   UNL     1       0.117  -2.063   6.547  0.00  0.00    +0.292 HD
ENDBRANCH  23  24
ENDBRANCH  16  18
ENDBRANCH  14  16
ENDBRANCH   7  14
TORSDOF 6
