REMARK  Name = ZINC36806201
REMARK  10 active torsions:
REMARK  status: ('A' for Active; 'I' for Inactive)
REMARK    1  A    between atoms: C_1  and  C_2
REMARK    2  A    between atoms: C_3  and  C_31
REMARK    3  A    between atoms: C_4  and  C_30
REMARK    4  A    between atoms: C_7  and  C_8
REMARK    5  A    between atoms: C_8  and  C_10
REMARK    6  A    between atoms: C_10  and  N_11
REMARK    7  A    between atoms: C_14  and  C_19
REMARK    8  A    between atoms: C_19  and  C_20
REMARK    9  A    between atoms: C_31  and  O_33
REMARK   10  A    between atoms: O_33  and  C_34
REMARK                            x       y       z     vdW  Elec       q    Type
REMARK                         _______ _______ _______ _____ _____    ______ ____
ROOT
ATOM      1  N   UNL     1       0.059  -0.760   4.859  0.00  0.00    -0.217 N 
ATOM      2  C   UNL     1       1.176  -0.389   5.516  0.00  0.00    +0.244 C 
ATOM      3  O   UNL     1       2.323  -0.549   5.159  0.00  0.00    -0.273 OA
ATOM      4  C   UNL     1       0.698   0.270   6.795  0.00  0.00    +0.165 C 
ATOM      5  N   UNL     1      -0.769   0.186   6.700  0.00  0.00    -0.287 N 
ATOM      6  C   UNL     1      -1.046  -0.426   5.535  0.00  0.00    +0.310 C 
ATOM      7  O   UNL     1      -2.173  -0.653   5.142  0.00  0.00    -0.252 OA
ATOM      8  H   UNL     1      -1.411   0.512   7.351  0.00  0.00    +0.151 HD
ENDROOT
BRANCH   1   9
ATOM      9  C   UNL     1       0.056  -1.440   3.561  0.00  0.00    +0.199 C 
BRANCH   9  10
ATOM     10  C   UNL     1       0.031  -0.415   2.457  0.00  0.00    +0.197 C 
ATOM     11  O   UNL     1       0.018   0.769   2.728  0.00  0.00    -0.289 OA
BRANCH  10  18
ATOM     12  C   UNL     1      -0.018   1.503   0.010  0.00  0.00    +0.047 C 
ATOM     13  C   UNL     1       0.002  -0.004   0.002  0.00  0.00    -0.008 A 
ATOM     14  C   UNL     1       0.009  -0.839  -1.136  0.00  0.00    +0.083 A 
ATOM     15  C   UNL     1       0.028  -2.147  -0.683  0.00  0.00    +0.028 A 
ATOM     16  N   UNL     1       0.034  -2.137   0.658  0.00  0.00    -0.355 N 
ATOM     17  H   UNL     1       0.047  -2.924   1.225  0.00  0.00    +0.166 HD
ATOM     18  C   UNL     1       0.024  -0.832   1.104  0.00  0.00    +0.088 A 
ATOM     19  C   UNL     1       0.041  -3.377  -1.553  0.00  0.00    +0.064 C 
BRANCH  14  20
ATOM     20  C   UNL     1      -0.003  -0.401  -2.542  0.00  0.00    +0.341 C 
ATOM     21  O   UNL     1       1.044  -0.205  -3.126  0.00  0.00    -0.245 OA
BRANCH  20  22
ATOM     22  O   UNL     1      -1.176  -0.216  -3.180  0.00  0.00    -0.464 OA
ATOM     23  C   UNL     1      -1.113   0.209  -4.543  0.00  0.00    +0.280 C 
ENDBRANCH  20  22
ENDBRANCH  14  20
ENDBRANCH  10  18
ENDBRANCH   9  10
ENDBRANCH   1   9
BRANCH   4  24
ATOM     24  C   UNL     1       1.155   1.729   6.851  0.00  0.00    +0.069 C 
BRANCH  24  25
ATOM     25  C   UNL     1       0.774   2.324   8.182  0.00  0.00    -0.020 A 
ATOM     26  C   UNL     1      -0.336   3.028   8.454  0.00  0.00    +0.087 A 
ATOM     27  N   UNL     1      -0.339   3.405   9.769  0.00  0.00    -0.360 N 
ATOM     28  H   UNL     1      -1.038   3.922  10.199  0.00  0.00    +0.165 HD
ATOM     29  C   UNL     1       0.799   2.942  10.392  0.00  0.00    +0.047 A 
ATOM     30  C   UNL     1       1.543   2.239   9.426  0.00  0.00    +0.003 A 
ATOM     31  C   UNL     1       2.757   1.647   9.778  0.00  0.00    +0.010 A 
ATOM     32  C   UNL     1       3.216   1.750  11.061  0.00  0.00    +0.001 A 
ATOM     33  C   UNL     1       2.484   2.439  12.018  0.00  0.00    +0.002 A 
ATOM     34  C   UNL     1       1.287   3.038  11.690  0.00  0.00    +0.026 A 
ENDBRANCH  24  25
ENDBRANCH   4  24
TORSDOF 7
