REMARK  Name = ZINC28836672
REMARK  11 active torsions:
REMARK  status: ('A' for Active; 'I' for Inactive)
REMARK    1  A    between atoms: C_1  and  C_2
REMARK    2  A    between atoms: C_2  and  N_3
REMARK    3  A    between atoms: N_3  and  C_4
REMARK    4  A    between atoms: N_3  and  S_6
REMARK    5  A    between atoms: C_4  and  C_5
REMARK    6  A    between atoms: S_6  and  C_9
REMARK    7  A    between atoms: C_12  and  O_33
REMARK    8  A    between atoms: C_13  and  N_15
REMARK    9  A    between atoms: C_16  and  C_18
REMARK   10  A    between atoms: C_18  and  N_19
REMARK   11  A    between atoms: C_27  and  C_29
REMARK                            x       y       z     vdW  Elec       q    Type
REMARK                         _______ _______ _______ _____ _____    ______ ____
ROOT
ATOM      1  N   UNL     1      -4.867  -3.797   2.768  0.00  0.00    -0.281 N 
ATOM      2  C   UNL     1      -4.418  -2.568   2.445  0.00  0.00    +0.235 C 
ATOM      3  O   UNL     1      -5.083  -1.848   1.731  0.00  0.00    -0.274 OA
ATOM      4  H   UNL     1      -4.232  -4.478   3.354  0.00  0.00    +0.155 HD
ENDROOT
BRANCH   1   9
ATOM      5  C   UNL     1      -7.906  -4.194   0.732  0.00  0.00    +0.107 A 
ATOM      6  C   UNL     1      -8.662  -5.020   1.543  0.00  0.00    +0.032 A 
ATOM      7  C   UNL     1      -8.164  -5.443   2.762  0.00  0.00    +0.049 A 
ATOM      8  C   UNL     1      -6.902  -5.044   3.171  0.00  0.00    +0.138 A 
ATOM      9  C   UNL     1      -6.142  -4.208   2.357  0.00  0.00    +0.077 A 
ATOM     10  C   UNL     1      -6.648  -3.788   1.135  0.00  0.00    +0.055 A 
BRANCH   5  11
ATOM     11  S   UNL     1      -8.547  -3.659  -0.819  0.00  0.00    +0.061 S 
ATOM     12  O   UNL     1      -9.963  -3.734  -0.721  0.00  0.00    -0.153 OA
ATOM     13  O   UNL     1      -7.869  -2.453  -1.144  0.00  0.00    -0.153 OA
BRANCH  11  14
ATOM     14  N   UNL     1      -8.091  -4.778  -1.950  0.00  0.00    -0.177 NA
BRANCH  14  16
ATOM     15  C   UNL     1      -9.844  -5.609  -3.440  0.00  0.00    +0.022 C 
ATOM     16  C   UNL     1      -8.955  -5.926  -2.235  0.00  0.00    +0.106 C 
ENDBRANCH  14  16
BRANCH  14  17
ATOM     17  C   UNL     1      -6.823  -4.621  -2.667  0.00  0.00    +0.106 C 
ATOM     18  C   UNL     1      -5.734  -5.430  -1.959  0.00  0.00    +0.022 C 
ENDBRANCH  14  17
ENDBRANCH  11  14
ENDBRANCH   5  11
BRANCH   8  19
ATOM     19  O   UNL     1      -6.409  -5.464   4.367  0.00  0.00    -0.505 OA
ATOM     20  H   UNL     1      -5.407  -5.146   4.690  0.00  0.00    +0.292 HD
ENDBRANCH   8  19
ENDBRANCH   1   9
BRANCH   2  21
ATOM     21  C   UNL     1      -3.089  -2.089   2.970  0.00  0.00    +0.214 C 
BRANCH  21  22
ATOM     22  N   UNL     1      -2.831  -0.733   2.480  0.00  0.00    -0.215 N 
ATOM     23  C   UNL     1      -2.189  -0.453   1.327  0.00  0.00    +0.247 C 
ATOM     24  O   UNL     1      -1.734  -1.244   0.529  0.00  0.00    -0.273 OA
ATOM     25  C   UNL     1      -2.158   1.056   1.238  0.00  0.00    +0.115 C 
ATOM     26  C   UNL     1      -2.908   1.532  -0.000  0.00  0.00    +0.035 C 
ATOM     27  C   UNL     1      -2.193   1.032  -1.258  0.00  0.00    +0.003 C 
ATOM     28  C   UNL     1      -0.758   1.565  -1.273  0.00  0.00    +0.000 C 
ATOM     29  C   UNL     1      -0.012   1.059  -0.038  0.00  0.00    +0.006 C 
ATOM     30  C   UNL     1      -0.718   1.559   1.225  0.00  0.00    +0.018 C 
ATOM     31  C   UNL     1       0.017   1.035   2.461  0.00  0.00    +0.010 C 
ATOM     32  N   UNL     1      -2.845   1.499   2.458  0.00  0.00    -0.285 N 
ATOM     33  C   UNL     1      -3.203   0.382   3.121  0.00  0.00    +0.310 C 
ATOM     34  O   UNL     1      -3.796   0.387   4.181  0.00  0.00    -0.252 OA
ATOM     35  H   UNL     1      -2.970   2.573   2.659  0.00  0.00    +0.151 HD
ENDBRANCH  21  22
ENDBRANCH   2  21
TORSDOF 8
