REMARK  Name = ZINC32861138
REMARK  9 active torsions:
REMARK  status: ('A' for Active; 'I' for Inactive)
REMARK    1  A    between atoms: C_1  and  C_2
REMARK    2  A    between atoms: C_2  and  C_4
REMARK    3  A    between atoms: C_2  and  S_17
REMARK    4  A    between atoms: C_4  and  C_6
REMARK    5  A    between atoms: C_9  and  N_12
REMARK    6  A    between atoms: N_12  and  S_13
REMARK    7  A    between atoms: S_13  and  C_16
REMARK    8  A    between atoms: S_17  and  C_18
REMARK    9  A    between atoms: N_27  and  C_28
REMARK                            x       y       z     vdW  Elec       q    Type
REMARK                         _______ _______ _______ _____ _____    ______ ____
ROOT
ATOM      1  C   UNL     1       0.772   6.322  -1.366  0.00  0.00    +0.028 C 
ATOM      2  C   UNL     1       1.495   5.951  -0.069  0.00  0.00    +0.122 C 
ENDROOT
BRANCH   2   3
ATOM      3  C   UNL     1       2.747   6.779   0.063  0.00  0.00    +0.176 C 
ATOM      4  O   UNL     1       3.811   6.336  -0.316  0.00  0.00    -0.291 OA
BRANCH   3   5
ATOM      5  C   UNL     1       2.679   8.122   0.651  0.00  0.00    +0.019 A 
ATOM      6  C   UNL     1       1.451   8.639   1.084  0.00  0.00    +0.013 A 
ATOM      7  C   UNL     1       1.394   9.886   1.636  0.00  0.00    +0.025 A 
ATOM      8  C   UNL     1       2.552  10.650   1.757  0.00  0.00    +0.048 A 
ATOM      9  C   UNL     1       3.775  10.143   1.322  0.00  0.00    +0.025 A 
ATOM     10  C   UNL     1       3.842   8.894   0.774  0.00  0.00    +0.013 A 
BRANCH   8  11
ATOM     11  N   UNL     1       2.488  11.921   2.314  0.00  0.00    -0.221 N 
ATOM     12  H   UNL     1       2.372  12.040   3.401  0.00  0.00    +0.173 HD
BRANCH  11  13
ATOM     13  S   UNL     1       2.587  13.258   1.341  0.00  0.00    +0.040 S 
ATOM     14  O   UNL     1       2.495  14.361   2.231  0.00  0.00    -0.155 OA
ATOM     15  O   UNL     1       3.756  13.052   0.560  0.00  0.00    -0.155 OA
ATOM     16  C   UNL     1       1.111  13.178   0.289  0.00  0.00    +0.218 C 
ENDBRANCH  11  13
ENDBRANCH   8  11
ENDBRANCH   3   5
ENDBRANCH   2   3
BRANCH   2  17
ATOM     17  S   UNL     1       1.935   4.195  -0.104  0.00  0.00    -0.076 S 
BRANCH  17  18
ATOM     18  C   UNL     1       0.326   3.477  -0.109  0.00  0.00    +0.173 A 
ATOM     19  N   UNL     1      -0.735   4.259  -0.087  0.00  0.00    -0.216 NA
ATOM     20  C   UNL     1      -1.960   3.746  -0.090  0.00  0.00    +0.116 A 
ATOM     21  C   UNL     1      -2.188   2.357  -0.120  0.00  0.00    +0.072 A 
ATOM     22  C   UNL     1      -3.587   1.966  -0.126  0.00  0.00    +0.023 A 
ATOM     23  C   UNL     1      -4.533   2.917  -0.107  0.00  0.00    +0.048 A 
ATOM     24  S   UNL     1      -3.596   4.433  -0.067  0.00  0.00    -0.077 S 
ATOM     25  C   UNL     1      -1.018   1.534  -0.137  0.00  0.00    +0.263 A 
ATOM     26  O   UNL     1      -1.117   0.320  -0.160  0.00  0.00    -0.267 OA
ATOM     27  N   UNL     1       0.194   2.119  -0.133  0.00  0.00    -0.290 N 
ATOM     28  C   UNL     1       1.396   1.281  -0.156  0.00  0.00    +0.154 C 
ENDBRANCH  17  18
ENDBRANCH   2  17
TORSDOF 6
