REMARK  Name = ZINC02492981
REMARK  7 active torsions:
REMARK  status: ('A' for Active; 'I' for Inactive)
REMARK    1  A    between atoms: C_1  and  O_2
REMARK    2  A    between atoms: O_2  and  C_3
REMARK    3  A    between atoms: C_6  and  C_11
REMARK    4  A    between atoms: C_7  and  O_9
REMARK    5  A    between atoms: O_9  and  C_10
REMARK    6  A    between atoms: C_22  and  C_23
REMARK    7  A    between atoms: C_22  and  N_56
REMARK                            x       y       z     vdW  Elec       q    Type
REMARK                         _______ _______ _______ _____ _____    ______ ____
ROOT
ATOM      1  C   UNL     1       4.163   6.184  -7.972  0.00  0.00    +0.194 C 
ATOM      2  N   UNL     1       3.069   6.742  -7.156  0.00  0.00    -0.316 N 
ATOM      3  C   UNL     1       2.957   6.274  -5.873  0.00  0.00    +0.080 A 
ATOM      4  C   UNL     1       4.033   5.713  -5.168  0.00  0.00    +0.068 A 
ATOM      5  C   UNL     1       3.742   5.277  -3.813  0.00  0.00    -0.027 A 
ATOM      6  C   UNL     1       2.467   5.461  -3.399  0.00  0.00    -0.021 A 
ATOM      7  S   UNL     1       1.642   6.209  -4.777  0.00  0.00    -0.080 S 
ATOM      8  C   UNL     1       1.906   5.099  -2.060  0.00  0.00    -0.035 C 
ATOM      9  C   UNL     1       4.221   4.740  -1.445  0.00  0.00    -0.073 C 
ATOM     10  C   UNL     1       4.766   4.650  -2.873  0.00  0.00    +0.018 C 
ATOM     11  C   UNL     1       5.336   5.623  -5.866  0.00  0.00    +0.248 C 
ATOM     12  O   UNL     1       6.341   5.254  -5.287  0.00  0.00    -0.270 OA
ATOM     13  N   UNL     1       5.364   5.968  -7.170  0.00  0.00    -0.289 N 
ATOM     14  H   UNL     1       2.458   7.407  -7.511  0.00  0.00    +0.149 HD
ATOM     15  H   UNL     1       6.227   6.078  -7.598  0.00  0.00    +0.151 HD
ATOM     16  N   UNL     1       2.859   4.171  -1.403  0.00  0.00    +0.386 N 
ATOM     17  H   UNL     1       2.854   3.276  -1.906  0.00  0.00    -0.081 HD
ENDROOT
BRANCH   1  21
ATOM     18  C   UNL     1       2.903   2.453  -9.641  0.00  0.00    +0.124 A 
ATOM     19  C   UNL     1       1.962   3.397  -9.252  0.00  0.00    +0.046 A 
ATOM     20  C   UNL     1       2.372   4.599  -8.708  0.00  0.00    +0.014 A 
ATOM     21  C   UNL     1       3.719   4.869  -8.560  0.00  0.00    +0.032 A 
ATOM     22  C   UNL     1       4.663   3.929  -8.947  0.00  0.00    +0.130 A 
ATOM     23  C   UNL     1       4.254   2.719  -9.488  0.00  0.00    +0.091 A 
BRANCH  18  25
ATOM     24  C   UNL     1       1.090   1.062 -10.299  0.00  0.00    +0.277 C 
ATOM     25  O   UNL     1       2.499   1.268 -10.171  0.00  0.00    -0.495 OA
ENDBRANCH  18  25
BRANCH  22  26
ATOM     26  O   UNL     1       5.988   4.192  -8.795  0.00  0.00    -0.495 OA
ATOM     27  C   UNL     1       6.903   3.179  -9.215  0.00  0.00    +0.277 C 
ENDBRANCH  22  26
ENDBRANCH   1  21
BRANCH  16  28
ATOM     28  C   UNL     1       2.451   3.937  -0.001  0.00  0.00    -0.043 C 
BRANCH  28  29
ATOM     29  C   UNL     1       1.156   3.165   0.008  0.00  0.00    -0.064 A 
ATOM     30  C   UNL     1       1.175   1.783   0.000  0.00  0.00    +0.002 A 
ATOM     31  C   UNL     1      -0.013   1.076   0.008  0.00  0.00    +0.000 A 
ATOM     32  C   UNL     1      -1.219   1.751   0.017  0.00  0.00    +0.000 A 
ATOM     33  C   UNL     1      -1.238   3.133   0.030  0.00  0.00    +0.000 A 
ATOM     34  C   UNL     1      -0.050   3.840   0.022  0.00  0.00    +0.002 A 
ENDBRANCH  28  29
ENDBRANCH  16  28
TORSDOF 5
