REMARK  Name = ZINC03139978
REMARK  7 active torsions:
REMARK  status: ('A' for Active; 'I' for Inactive)
REMARK    1  A    between atoms: C_1  and  C_2
REMARK    2  A    between atoms: C_4  and  O_10
REMARK    3  A    between atoms: C_6  and  C_9
REMARK    4  A    between atoms: O_10  and  C_11
REMARK    5  A    between atoms: C_11  and  C_12
REMARK    6  A    between atoms: N_14  and  N_15
REMARK    7  A    between atoms: C_16  and  C_17
REMARK                            x       y       z     vdW  Elec       q    Type
REMARK                         _______ _______ _______ _____ _____    ______ ____
ROOT
ATOM      1  C   UNL     1       1.447   7.794   0.031  0.00  0.00    +0.270 C 
ATOM      2  O   UNL     1       0.243   7.950   0.044  0.00  0.00    -0.270 OA
ATOM      3  N   UNL     1       1.966   6.551   0.019  0.00  0.00    -0.204 N 
ATOM      4  H   UNL     1       2.928   6.426   0.009  0.00  0.00    +0.177 HD
ENDROOT
BRANCH   3   5
ATOM      5  N   UNL     1       1.116   5.437   0.021  0.00  0.00    -0.188 NA
ATOM      6  C   UNL     1       1.616   4.238   0.009  0.00  0.00    +0.140 C 
BRANCH   6   7
ATOM      7  C   UNL     1       0.723   3.068   0.012  0.00  0.00    +0.020 A 
ATOM      8  C   UNL     1       1.096   1.760   0.001  0.00  0.00    +0.093 A 
ATOM      9  N   UNL     1      -0.011   0.966   0.007  0.00  0.00    -0.360 N 
ATOM     10  H   UNL     1       0.002  -0.004   0.002  0.00  0.00    +0.165 HD
ATOM     11  C   UNL     1      -1.153   1.738   0.016  0.00  0.00    +0.047 A 
ATOM     12  C   UNL     1      -0.751   3.085   0.026  0.00  0.00    +0.008 A 
ATOM     13  C   UNL     1      -1.706   4.098   0.040  0.00  0.00    +0.010 A 
ATOM     14  C   UNL     1      -3.045   3.774   0.051  0.00  0.00    +0.001 A 
ATOM     15  C   UNL     1      -3.443   2.445   0.048  0.00  0.00    +0.002 A 
ATOM     16  C   UNL     1      -2.510   1.432   0.033  0.00  0.00    +0.026 A 
ENDBRANCH   6   7
ENDBRANCH   3   5
BRANCH   1  17
ATOM     17  C   UNL     1       2.361   8.992   0.029  0.00  0.00    +0.326 C 
BRANCH  17  18
ATOM     18  O   UNL     1       1.579  10.188   0.043  0.00  0.00    -0.483 OA
BRANCH  18  22
ATOM     19  C   UNL     1       1.491  15.068   0.073  0.00  0.00    +0.045 C 
ATOM     20  C   UNL     1       2.247  13.765   0.057  0.00  0.00    -0.028 A 
ATOM     21  C   UNL     1       1.559  12.567   0.057  0.00  0.00    +0.050 A 
ATOM     22  C   UNL     1       2.255  11.368   0.043  0.00  0.00    +0.122 A 
ATOM     23  C   UNL     1       3.642  11.373   0.035  0.00  0.00    +0.050 A 
ATOM     24  C   UNL     1       4.327  12.572   0.030  0.00  0.00    -0.028 A 
ATOM     25  C   UNL     1       3.631  13.768   0.044  0.00  0.00    +0.047 A 
ATOM     26 CL   UNL     1       4.494  15.274   0.044  0.00  0.00    -0.083 Cl
ATOM     27  C   UNL     1       5.834  12.579   0.016  0.00  0.00    +0.045 C 
ENDBRANCH  18  22
ENDBRANCH  17  18
ENDBRANCH   1  17
TORSDOF 5
