REMARK  Name = ZINC13550191
REMARK  5 active torsions:
REMARK  status: ('A' for Active; 'I' for Inactive)
REMARK    1  A    between atoms: C_7  and  C_11
REMARK    2  A    between atoms: C_11  and  C_12
REMARK    3  A    between atoms: C_12  and  N_13
REMARK    4  A    between atoms: C_14  and  C_16
REMARK    5  A    between atoms: C_16  and  N_17
REMARK                            x       y       z     vdW  Elec       q    Type
REMARK                         _______ _______ _______ _____ _____    ______ ____
ROOT
ATOM      1  N   UNL     1      -0.675  -4.736  -1.452  0.00  0.00    -0.314 N 
ATOM      2  C   UNL     1      -1.186  -5.195  -2.612  0.00  0.00    +0.230 C 
ATOM      3  O   UNL     1      -0.891  -4.657  -3.659  0.00  0.00    -0.274 OA
ATOM      4  H   UNL     1      -0.911  -5.166  -0.615  0.00  0.00    +0.149 HD
ENDROOT
BRANCH   1   5
ATOM      5  C   UNL     1       0.236  -3.589  -1.455  0.00  0.00    +0.109 C 
BRANCH   5   6
ATOM      6  C   UNL     1       0.666  -3.275  -0.021  0.00  0.00    +0.056 C 
BRANCH   6  13
ATOM      7  C   UNL     1      -0.017   1.362   0.009  0.00  0.00    +0.001 A 
ATOM      8  C   UNL     1       1.170   2.083   0.002  0.00  0.00    +0.002 A 
ATOM      9  C   UNL     1       2.386   1.436  -0.013  0.00  0.00    +0.026 A 
ATOM     10  C   UNL     1       2.428   0.046  -0.021  0.00  0.00    +0.047 A 
ATOM     11  C   UNL     1       1.223  -0.681  -0.013  0.00  0.00    +0.003 A 
ATOM     12  C   UNL     1       0.002  -0.004   0.002  0.00  0.00    +0.010 A 
ATOM     13  C   UNL     1       1.604  -2.095  -0.025  0.00  0.00    -0.021 A 
ATOM     14  C   UNL     1       2.945  -2.141  -0.038  0.00  0.00    +0.087 A 
ATOM     15  N   UNL     1       3.455  -0.871  -0.036  0.00  0.00    -0.360 N 
ATOM     16  H   UNL     1       4.399  -0.650  -0.044  0.00  0.00    +0.165 HD
ENDBRANCH   6  13
ENDBRANCH   5   6
ENDBRANCH   1   5
BRANCH   2  17
ATOM     17  C   UNL     1      -2.123  -6.375  -2.609  0.00  0.00    +0.198 C 
BRANCH  17  18
ATOM     18  N   UNL     1      -2.535  -6.675  -3.982  0.00  0.00    -0.319 N 
ATOM     19  C   UNL     1      -3.401  -7.726  -4.231  0.00  0.00    +0.152 A 
ATOM     20  C   UNL     1      -3.802  -8.032  -5.542  0.00  0.00    +0.147 A 
ATOM     21  C   UNL     1      -4.683  -9.109  -5.733  0.00  0.00    +0.164 A 
ATOM     22  N   UNL     1      -4.904  -9.183  -7.085  0.00  0.00    -0.329 N 
ATOM     23  H   UNL     1      -5.470  -9.825  -7.540  0.00  0.00    +0.168 HD
ATOM     24  C   UNL     1      -4.181  -8.187  -7.672  0.00  0.00    +0.198 A 
ATOM     25  N   UNL     1      -3.536  -7.512  -6.765  0.00  0.00    -0.231 NA
ATOM     26  N   UNL     1      -5.102  -9.796  -4.675  0.00  0.00    -0.198 NA
ATOM     27  C   UNL     1      -4.700  -9.473  -3.462  0.00  0.00    +0.226 A 
ATOM     28  N   UNL     1      -3.868  -8.472  -3.235  0.00  0.00    -0.200 NA
ATOM     29 CL   UNL     1      -5.279 -10.402  -2.115  0.00  0.00    -0.041 Cl
ATOM     30  H   UNL     1      -2.201  -6.138  -4.717  0.00  0.00    +0.148 HD
ENDBRANCH  17  18
ENDBRANCH   2  17
TORSDOF 5
