REMARK  Name = ZINC43597396
REMARK  5 active torsions:
REMARK  status: ('A' for Active; 'I' for Inactive)
REMARK    1  A    between atoms: C_1  and  C_2
REMARK    2  A    between atoms: C_8  and  N_10
REMARK    3  A    between atoms: N_10  and  C_11
REMARK    4  A    between atoms: N_10  and  C_12
REMARK    5  A    between atoms: C_15  and  N_19
REMARK                            x       y       z     vdW  Elec       q    Type
REMARK                         _______ _______ _______ _____ _____    ______ ____
ROOT
ATOM      1  C   UNL     1       2.940  -0.235  -0.134  0.00  0.00    +0.044 A 
ATOM      2  C   UNL     1       2.962   0.724  -1.137  0.00  0.00    +0.026 A 
ATOM      3  C   UNL     1       3.676   0.494  -2.297  0.00  0.00    +0.024 A 
ATOM      4  C   UNL     1       4.372  -0.697  -2.459  0.00  0.00    +0.026 A 
ATOM      5  C   UNL     1       4.350  -1.657  -1.456  0.00  0.00    +0.039 A 
ATOM      6  C   UNL     1       3.640  -1.424  -0.293  0.00  0.00    +0.041 A 
ATOM      7 BR   UNL     1       3.617  -2.727   1.077  0.00  0.00    -0.048 Br
ENDROOT
BRANCH   4   8
ATOM      8  N   UNL     1       5.095  -0.930  -3.635  0.00  0.00    -0.358 N 
ATOM      9  H   UNL     1       5.110  -0.260  -4.336  0.00  0.00    +0.142 HD
ATOM     10  H   UNL     1       5.581  -1.762  -3.748  0.00  0.00    +0.142 HD
ENDBRANCH   4   8
BRANCH   1  11
ATOM     11  N   UNL     1       2.216  -0.001   1.042  0.00  0.00    -0.329 N 
ATOM     12  C   UNL     1       2.903   0.484   2.241  0.00  0.00    +0.129 C 
BRANCH  11  19
ATOM     13  C   UNL     1       0.357   2.175   0.598  0.00  0.00    +0.009 C 
ATOM     14  C   UNL     1       0.069   0.745   0.138  0.00  0.00    +0.006 C 
ATOM     15  C   UNL     1      -1.440   0.493   0.170  0.00  0.00    +0.005 C 
ATOM     16  C   UNL     1      -1.728  -0.938  -0.290  0.00  0.00    +0.000 C 
ATOM     17  C   UNL     1      -1.026  -1.925   0.645  0.00  0.00    +0.002 C 
ATOM     18  C   UNL     1       0.483  -1.673   0.613  0.00  0.00    +0.023 C 
ATOM     19  C   UNL     1       0.771  -0.243   1.073  0.00  0.00    +0.076 C 
ENDBRANCH  11  19
ENDBRANCH   1  11
TORSDOF 3
