REMARK  Name = ZINC63270910
REMARK  7 active torsions:
REMARK  status: ('A' for Active; 'I' for Inactive)
REMARK    1  A    between atoms: N_17  and  C_18
REMARK    2  A    between atoms: C_18  and  C_19
REMARK    3  A    between atoms: C_19  and  C_20
REMARK    4  A    between atoms: C_20  and  C_21
REMARK    5  A    between atoms: N_23  and  C_24
REMARK    6  A    between atoms: C_24  and  C_25
REMARK    7  A    between atoms: C_25  and  C_26
REMARK                            x       y       z     vdW  Elec       q    Type
REMARK                         _______ _______ _______ _____ _____    ______ ____
ROOT
ATOM      1  C   UNL     1       3.473  -7.751   1.094  0.00  0.00    +0.106 C 
ENDROOT
BRANCH   1  17
ATOM      2  C   UNL     1      -0.010   1.351   0.010  0.00  0.00    +0.001 A 
ATOM      3  C   UNL     1       1.172   2.104   0.008  0.00  0.00    +0.002 A 
ATOM      4  C   UNL     1       2.396   1.536  -0.007  0.00  0.00    +0.026 A 
ATOM      5  C   UNL     1       2.535   0.122  -0.021  0.00  0.00    +0.043 A 
ATOM      6  N   UNL     1       3.597  -0.651  -0.017  0.00  0.00    -0.376 N 
ATOM      7  C   UNL     1       3.160  -2.042  -0.115  0.00  0.00    +0.124 C 
ATOM      8  C   UNL     1       3.674  -2.887   1.056  0.00  0.00    +0.138 C 
ATOM      9  N   UNL     1       2.879  -4.124   1.104  0.00  0.00    -0.283 N 
ATOM     10  C   UNL     1       1.425  -4.071   1.288  0.00  0.00    +0.114 C 
ATOM     11  C   UNL     1       0.798  -3.236   0.155  0.00  0.00    +0.052 C 
ATOM     12  C   UNL     1       1.644  -1.995  -0.018  0.00  0.00    -0.036 C 
ATOM     13  C   UNL     1       1.299  -0.699  -0.013  0.00  0.00    -0.001 A 
ATOM     14  C   UNL     1       0.008  -0.001  -0.000  0.00  0.00    +0.010 A 
ATOM     15  C   UNL     1       3.492  -5.317   0.976  0.00  0.00    +0.302 C 
ATOM     16  O   UNL     1       4.682  -5.366   0.728  0.00  0.00    -0.253 OA
ATOM     17  N   UNL     1       2.788  -6.456   1.124  0.00  0.00    -0.299 N 
ATOM     18  H   UNL     1       1.827  -6.419   1.249  0.00  0.00    +0.150 HD
ATOM     19  H   UNL     1       4.517  -0.350   0.042  0.00  0.00    +0.160 HD
ENDBRANCH   1  17
BRANCH   1  20
ATOM     20  C   UNL     1       2.451  -8.874   1.283  0.00  0.00    +0.028 C 
BRANCH  20  21
ATOM     21  C   UNL     1       3.167 -10.225   1.252  0.00  0.00    +0.097 C 
BRANCH  21  22
ATOM     22  C   UNL     1       2.161 -11.331   1.438  0.00  0.00    +0.213 C 
ATOM     23  O   UNL     1       0.986 -11.065   1.581  0.00  0.00    -0.276 OA
ATOM     24  N   UNL     1       2.566 -12.617   1.446  0.00  0.00    -0.315 N 
ATOM     25  H   UNL     1       3.505 -12.830   1.332  0.00  0.00    +0.149 HD
BRANCH  24  26
ATOM     26  C   UNL     1       1.587 -13.692   1.627  0.00  0.00    +0.108 C 
BRANCH  26  27
ATOM     27  C   UNL     1       2.303 -15.044   1.596  0.00  0.00    +0.052 C 
BRANCH  27  28
ATOM     28  C   UNL     1       1.296 -16.150   1.782  0.00  0.00    -0.040 C 
ATOM     29  C   UNL     1       0.685 -16.865   0.810  0.00  0.00    -0.001 A 
ATOM     30  C   UNL     1       0.770 -16.827  -0.655  0.00  0.00    +0.010 A 
ATOM     31  C   UNL     1       0.018 -17.688  -1.378  0.00  0.00    +0.001 A 
ATOM     32  C   UNL     1      -0.839 -18.612  -0.765  0.00  0.00    +0.002 A 
ATOM     33  C   UNL     1      -0.972 -18.706   0.575  0.00  0.00    +0.026 A 
ATOM     34  C   UNL     1      -0.227 -17.850   1.433  0.00  0.00    +0.043 A 
ATOM     35  N   UNL     1      -0.182 -17.748   2.739  0.00  0.00    -0.380 N 
ATOM     36  C   UNL     1       0.770 -16.689   3.093  0.00  0.00    +0.144 C 
ATOM     37  H   UNL     1      -0.690 -18.285   3.367  0.00  0.00    +0.160 HD
ENDBRANCH  27  28
ENDBRANCH  26  27
ENDBRANCH  24  26
ENDBRANCH  21  22
ENDBRANCH  20  21
ENDBRANCH   1  20
TORSDOF 7
