REMARK  Name = ZINC39610995
REMARK  5 active torsions:
REMARK  status: ('A' for Active; 'I' for Inactive)
REMARK    1  A    between atoms: C_9  and  C_12
REMARK    2  A    between atoms: C_12  and  O_14
REMARK    3  A    between atoms: O_14  and  C_15
REMARK    4  A    between atoms: C_15  and  C_16
REMARK    5  A    between atoms: N_18  and  C_19
REMARK                            x       y       z     vdW  Elec       q    Type
REMARK                         _______ _______ _______ _____ _____    ______ ____
ROOT
ATOM      1  C   UNL     1       0.145  -2.908   0.058  0.00  0.00    +0.337 C 
ATOM      2  O   UNL     1      -0.949  -2.389   0.159  0.00  0.00    -0.245 OA
ENDROOT
BRANCH   1  11
ATOM      3  C   UNL     1       4.056  -4.594   0.092  0.00  0.00    +0.001 A 
ATOM      4  C   UNL     1       5.180  -3.759   0.107  0.00  0.00    +0.002 A 
ATOM      5  C   UNL     1       5.088  -2.407   0.112  0.00  0.00    +0.024 A 
ATOM      6  C   UNL     1       3.824  -1.776   0.101  0.00  0.00    +0.041 A 
ATOM      7  N   UNL     1       3.741  -0.454   0.105  0.00  0.00    -0.285 N 
ATOM      8  C   UNL     1       2.588   0.205   0.096  0.00  0.00    +0.222 C 
ATOM      9  O   UNL     1       2.582   1.420   0.100  0.00  0.00    -0.275 OA
ATOM     10  C   UNL     1       1.283  -0.558   0.079  0.00  0.00    +0.139 C 
ATOM     11  C   UNL     1       1.362  -2.073   0.074  0.00  0.00    +0.054 C 
ATOM     12  C   UNL     1       2.621  -2.636   0.085  0.00  0.00    +0.007 A 
ATOM     13  C   UNL     1       2.798  -4.089   0.081  0.00  0.00    +0.010 A 
ATOM     14  H   UNL     1       4.565   0.059   0.116  0.00  0.00    +0.155 HD
ENDBRANCH   1  11
BRANCH   1  15
ATOM     15  O   UNL     1       0.247  -4.246  -0.068  0.00  0.00    -0.452 OA
BRANCH  15  16
ATOM     16  C   UNL     1      -0.972  -4.992  -0.076  0.00  0.00    +0.328 C 
BRANCH  16  17
ATOM     17  C   UNL     1      -0.663  -6.459  -0.224  0.00  0.00    +0.255 C 
ATOM     18  O   UNL     1       0.489  -6.830  -0.314  0.00  0.00    -0.272 OA
ATOM     19  N   UNL     1      -1.665  -7.359  -0.256  0.00  0.00    -0.280 N 
ATOM     20  H   UNL     1      -2.587  -7.058  -0.267  0.00  0.00    +0.155 HD
BRANCH  19  21
ATOM     21  C   UNL     1      -1.375  -8.730  -0.274  0.00  0.00    +0.069 A 
ATOM     22  C   UNL     1      -0.268  -9.216   0.408  0.00  0.00    +0.027 A 
ATOM     23  C   UNL     1       0.015 -10.567   0.389  0.00  0.00    +0.022 A 
ATOM     24  C   UNL     1      -0.802 -11.438  -0.309  0.00  0.00    +0.044 A 
ATOM     25  C   UNL     1      -1.907 -10.959  -0.990  0.00  0.00    +0.060 A 
ATOM     26  C   UNL     1      -2.199  -9.607  -0.970  0.00  0.00    +0.146 A 
ATOM     27  F   UNL     1      -3.281  -9.139  -1.631  0.00  0.00    -0.203 F 
ATOM     28 CL   UNL     1      -0.442 -13.136  -0.330  0.00  0.00    -0.083 Cl
ENDBRANCH  19  21
ENDBRANCH  16  17
ENDBRANCH  15  16
ENDBRANCH   1  15
TORSDOF 5
