REMARK  Name = ZINC07962697
REMARK  7 active torsions:
REMARK  status: ('A' for Active; 'I' for Inactive)
REMARK    1  A    between atoms: C_1  and  C_2
REMARK    2  A    between atoms: C_2  and  C_3
REMARK    3  A    between atoms: C_2  and  C_4
REMARK    4  A    between atoms: C_2  and  C_5
REMARK    5  A    between atoms: C_12  and  C_14
REMARK    6  A    between atoms: N_16  and  N_17
REMARK    7  A    between atoms: C_18  and  C_20
REMARK                            x       y       z     vdW  Elec       q    Type
REMARK                         _______ _______ _______ _____ _____    ______ ____
ROOT
ATOM      1  C   UNL     1      -3.798   1.540   0.049  0.00  0.00    +0.267 C 
ATOM      2  O   UNL     1      -4.112   2.716   0.058  0.00  0.00    -0.268 OA
ATOM      3  N   UNL     1      -4.752   0.588   0.053  0.00  0.00    -0.230 N 
ATOM      4  H   UNL     1      -4.502  -0.349   0.045  0.00  0.00    +0.173 HD
ENDROOT
BRANCH   1  11
ATOM      5  C   UNL     1       2.426   1.235   0.446  0.00  0.00    -0.001 C 
ATOM      6  C   UNL     1       2.428  -0.041  -0.401  0.00  0.00    +0.009 C 
ATOM      7  C   UNL     1       1.209  -0.891  -0.016  0.00  0.00    +0.043 C 
ATOM      8  C   UNL     1       0.002  -0.004   0.002  0.00  0.00    -0.006 A 
ATOM      9  C   UNL     1      -0.016   1.362   0.009  0.00  0.00    -0.036 A 
ATOM     10  C   UNL     1      -1.262   1.968   0.030  0.00  0.00    +0.024 A 
ATOM     11  C   UNL     1      -2.383   1.159   0.032  0.00  0.00    +0.076 A 
ATOM     12  S   UNL     1      -1.656  -0.471   0.017  0.00  0.00    -0.088 S 
ATOM     13  C   UNL     1       1.288   2.154   0.001  0.00  0.00    +0.040 C 
BRANCH   5  15
ATOM     14  C   UNL     1       3.959   2.326  -1.199  0.00  0.00    +0.011 C 
ATOM     15  C   UNL     1       3.762   1.961   0.274  0.00  0.00    -0.035 C 
ATOM     16  C   UNL     1       3.762   3.236   1.119  0.00  0.00    +0.011 C 
ATOM     17  C   UNL     1       4.901   1.047   0.729  0.00  0.00    +0.011 C 
ENDBRANCH   5  15
ENDBRANCH   1  11
BRANCH   3  18
ATOM     18  N   UNL     1      -6.105   0.952   0.069  0.00  0.00    -0.234 N 
ATOM     19  C   UNL     1      -7.059   0.000   0.073  0.00  0.00    +0.234 C 
ATOM     20  O   UNL     1      -6.746  -1.172   0.063  0.00  0.00    -0.274 OA
ATOM     21  H   UNL     1      -6.355   1.889   0.076  0.00  0.00    +0.173 HD
BRANCH  19  22
ATOM     22  C   UNL     1      -8.514   0.392   0.089  0.00  0.00    +0.099 C 
ATOM     23  C   UNL     1      -9.392  -0.871   0.091  0.00  0.00    +0.037 C 
ATOM     24  C   UNL     1     -10.855  -0.496   0.429  0.00  0.00    +0.166 C 
ATOM     25  S   UNL     1     -10.657   1.012   1.463  0.00  0.00    -0.030 S 
ATOM     26  O   UNL     1     -11.264   2.111   0.798  0.00  0.00    -0.174 OA
ATOM     27  O   UNL     1     -11.031   0.709   2.800  0.00  0.00    -0.174 OA
ATOM     28  C   UNL     1      -8.826   1.200   1.381  0.00  0.00    +0.178 C 
ENDBRANCH  19  22
ENDBRANCH   3  18
TORSDOF 4
