REMARK  Name = ZINC27583739
REMARK  8 active torsions:
REMARK  status: ('A' for Active; 'I' for Inactive)
REMARK    1  A    between atoms: C_1  and  C_2
REMARK    2  A    between atoms: C_4  and  C_30
REMARK    3  A    between atoms: C_5  and  C_9
REMARK    4  A    between atoms: C_6  and  O_8
REMARK    5  A    between atoms: N_17  and  C_27
REMARK    6  A    between atoms: C_18  and  C_20
REMARK    7  A    between atoms: C_27  and  C_28
REMARK    8  A    between atoms: C_28  and  O_29
REMARK                            x       y       z     vdW  Elec       q    Type
REMARK                         _______ _______ _______ _____ _____    ______ ____
ROOT
ATOM      1  C   UNL     1       0.528  -4.235   0.040  0.00  0.00    +0.102 A 
ATOM      2  C   UNL     1       0.350  -5.103   1.123  0.00  0.00    +0.035 A 
ATOM      3  C   UNL     1       0.614  -6.369   0.639  0.00  0.00    +0.126 A 
ATOM      4  N   UNL     1       0.932  -6.213  -0.680  0.00  0.00    -0.272 N 
ATOM      5  H   UNL     1       1.166  -6.933  -1.286  0.00  0.00    +0.189 HD
ATOM      6  N   UNL     1       0.869  -4.969  -1.001  0.00  0.00    -0.173 NA
ATOM      7  C   UNL     1       0.443  -7.332   1.733  0.00  0.00    +0.266 C 
ATOM      8  O   UNL     1       0.603  -8.534   1.632  0.00  0.00    -0.268 OA
ATOM      9  N   UNL     1       0.085  -6.698   2.864  0.00  0.00    -0.283 N 
ATOM     10  C   UNL     1      -0.002  -5.260   2.577  0.00  0.00    +0.141 C 
ENDROOT
BRANCH   1  15
ATOM     11  C   UNL     1      -0.124   1.490   0.105  0.00  0.00    +0.044 C 
ATOM     12  C   UNL     1       0.044  -0.007   0.090  0.00  0.00    -0.047 A 
ATOM     13  C   UNL     1       1.193  -0.566  -0.441  0.00  0.00    +0.007 A 
ATOM     14  C   UNL     1       1.355  -1.937  -0.459  0.00  0.00    -0.037 A 
ATOM     15  C   UNL     1       0.359  -2.761   0.058  0.00  0.00    +0.047 A 
ATOM     16  C   UNL     1      -0.800  -2.194   0.594  0.00  0.00    +0.127 A 
ATOM     17  C   UNL     1      -0.948  -0.816   0.611  0.00  0.00    +0.049 A 
ATOM     18  C   UNL     1       2.608  -2.540  -1.039  0.00  0.00    +0.044 C 
BRANCH  16  19
ATOM     19  O   UNL     1      -1.777  -2.991   1.100  0.00  0.00    -0.506 OA
ATOM     20  H   UNL     1      -1.724  -3.118   2.057  0.00  0.00    +0.292 HD
ENDBRANCH  16  19
ENDBRANCH   1  15
BRANCH  10  21
ATOM     21  C   UNL     1       0.978  -4.500   3.433  0.00  0.00    -0.022 A 
ATOM     22  C   UNL     1       2.330  -4.775   3.346  0.00  0.00    +0.008 A 
ATOM     23  C   UNL     1       3.230  -4.079   4.130  0.00  0.00    +0.038 A 
ATOM     24  C   UNL     1       2.777  -3.104   5.003  0.00  0.00    +0.123 A 
ATOM     25  C   UNL     1       1.423  -2.829   5.089  0.00  0.00    +0.038 A 
ATOM     26  C   UNL     1       0.525  -3.523   4.301  0.00  0.00    +0.008 A 
ATOM     27  F   UNL     1       3.656  -2.422   5.770  0.00  0.00    -0.205 F 
ENDBRANCH  10  21
BRANCH   9  28
ATOM     28  C   UNL     1      -0.175  -7.332   4.158  0.00  0.00    +0.137 C 
BRANCH  28  29
ATOM     29  C   UNL     1       1.150  -7.565   4.887  0.00  0.00    +0.175 C 
BRANCH  29  30
ATOM     30  O   UNL     1       1.696  -6.309   5.295  0.00  0.00    -0.393 OA
ATOM     31  H   UNL     1       2.539  -6.380   5.765  0.00  0.00    +0.209 HD
ENDBRANCH  29  30
ENDBRANCH  28  29
ENDBRANCH   9  28
TORSDOF 6
