REMARK  Name = ZINC37674438
REMARK  3 active torsions:
REMARK  status: ('A' for Active; 'I' for Inactive)
REMARK    1  A    between atoms: C_8  and  O_10
REMARK    2  A    between atoms: O_10  and  C_11
REMARK    3  A    between atoms: C_14  and  O_17
REMARK                            x       y       z     vdW  Elec       q    Type
REMARK                         _______ _______ _______ _____ _____    ______ ____
ROOT
ATOM      1  C   UNL     1      -0.031   1.358  -0.123  0.00  0.00    +0.002 A 
ATOM      2  C   UNL     1       1.139   2.101  -0.168  0.00  0.00    +0.001 A 
ATOM      3  C   UNL     1       2.357   1.446  -0.177  0.00  0.00    +0.017 A 
ATOM      4  C   UNL     1       2.390   0.075  -0.141  0.00  0.00    +0.043 A 
ATOM      5  C   UNL     1       1.218  -0.715  -0.094  0.00  0.00    +0.082 A 
ATOM      6  C   UNL     1      -0.009  -0.012  -0.086  0.00  0.00    +0.029 A 
ATOM      7  N   UNL     1       1.415  -2.051  -0.063  0.00  0.00    -0.206 NA
ATOM      8  C   UNL     1       2.611  -2.589  -0.075  0.00  0.00    +0.263 A 
ATOM      9  S   UNL     1       3.674  -1.153  -0.137  0.00  0.00    -0.029 S 
ENDROOT
BRANCH   8  10
ATOM     10  O   UNL     1       2.954  -3.898  -0.048  0.00  0.00    -0.433 OA
BRANCH  10  11
ATOM     11  C   UNL     1       4.270  -4.215  -0.167  0.00  0.00    +0.131 A 
ATOM     12  C   UNL     1       5.122  -4.061   0.917  0.00  0.00    +0.050 A 
ATOM     13  C   UNL     1       6.460  -4.384   0.796  0.00  0.00    +0.049 A 
ATOM     14  C   UNL     1       6.951  -4.862  -0.410  0.00  0.00    +0.117 A 
ATOM     15  C   UNL     1       6.100  -5.016  -1.494  0.00  0.00    +0.049 A 
ATOM     16  C   UNL     1       4.761  -4.699  -1.371  0.00  0.00    +0.050 A 
BRANCH  14  17
ATOM     17  O   UNL     1       8.268  -5.180  -0.529  0.00  0.00    -0.507 OA
ATOM     18  H   UNL     1       8.472  -6.099  -0.308  0.00  0.00    +0.292 HD
ENDBRANCH  14  17
ENDBRANCH  10  11
ENDBRANCH   8  10
TORSDOF 3
