REMARK  Name = ZINC39678932
REMARK  11 active torsions:
REMARK  status: ('A' for Active; 'I' for Inactive)
REMARK    1  A    between atoms: C_1  and  N_2
REMARK    2  A    between atoms: N_2  and  C_3
REMARK    3  A    between atoms: N_2  and  C_4
REMARK    4  A    between atoms: C_4  and  C_5
REMARK    5  A    between atoms: C_5  and  C_6
REMARK    6  A    between atoms: C_6  and  C_7
REMARK    7  A    between atoms: C_7  and  N_8
REMARK    8  A    between atoms: C_9  and  C_11
REMARK    9  A    between atoms: C_22  and  C_24
REMARK   10  A    between atoms: C_27  and  O_30
REMARK   11  A    between atoms: O_30  and  C_31
REMARK                            x       y       z     vdW  Elec       q    Type
REMARK                         _______ _______ _______ _____ _____    ______ ____
ROOT
ATOM      1  C   UNL     1      -5.402  -6.503   0.237  0.00  0.00    +0.100 C 
ATOM      2  C   UNL     1      -6.336  -6.225   1.436  0.00  0.00    +0.121 C 
ATOM      3  N   UNL     1      -7.169  -7.444   1.552  0.00  0.00    -0.296 N 
ATOM      4  C   UNL     1      -6.232  -8.559   1.274  0.00  0.00    +0.115 C 
ATOM      5  C   UNL     1      -5.335  -8.036   0.135  0.00  0.00    -0.004 C 
ATOM      6  C   UNL     1      -3.901  -8.517   0.329  0.00  0.00    -0.010 C 
ATOM      7  C   UNL     1      -3.851 -10.039   0.165  0.00  0.00    -0.082 C 
ATOM      8  N   UNL     1      -4.334 -10.405  -1.172  0.00  0.00    +0.379 N 
ATOM      9  C   UNL     1      -5.744 -10.021  -1.317  0.00  0.00    -0.082 C 
ATOM     10  C   UNL     1      -5.873  -8.499  -1.216  0.00  0.00    -0.010 C 
ATOM     11  C   UNL     1      -8.483  -7.523   1.843  0.00  0.00    +0.247 C 
ATOM     12  O   UNL     1      -9.150  -6.509   1.919  0.00  0.00    -0.270 OA
ATOM     13  H   UNL     1      -3.783  -9.927  -1.870  0.00  0.00    -0.086 HD
ATOM     14  H   UNL     1      -4.243 -11.401  -1.300  0.00  0.00    -0.086 HD
ENDROOT
BRANCH  11  15
ATOM     15  C   UNL     1      -9.112  -8.839   2.069  0.00  0.00    +0.037 A 
ATOM     16  C   UNL     1      -8.325  -9.941   2.414  0.00  0.00    +0.016 A 
ATOM     17  C   UNL     1      -8.915 -11.167   2.624  0.00  0.00    +0.047 A 
ATOM     18  C   UNL     1     -10.292 -11.309   2.493  0.00  0.00    +0.130 A 
ATOM     19  C   UNL     1     -11.078 -10.216   2.150  0.00  0.00    +0.047 A 
ATOM     20  C   UNL     1     -10.496  -8.985   1.943  0.00  0.00    +0.016 A 
BRANCH  18  21
ATOM     21  O   UNL     1     -10.870 -12.520   2.700  0.00  0.00    -0.406 OA
BRANCH  21  22
ATOM     22  C   UNL     1     -12.289 -12.595   2.549  0.00  0.00    +0.575 C 
ATOM     23  F   UNL     1     -12.639 -12.230   1.244  0.00  0.00    -0.133 F 
ATOM     24  F   UNL     1     -12.715 -13.905   2.797  0.00  0.00    -0.133 F 
ATOM     25  F   UNL     1     -12.902 -11.726   3.457  0.00  0.00    -0.133 F 
ENDBRANCH  21  22
ENDBRANCH  18  21
ENDBRANCH  11  15
BRANCH   1  27
ATOM     26  N   UNL     1      -3.270  -5.511  -0.532  0.00  0.00    -0.315 N 
ATOM     27  C   UNL     1      -4.030  -5.934   0.497  0.00  0.00    +0.218 C 
ATOM     28  O   UNL     1      -3.611  -5.858   1.633  0.00  0.00    -0.275 OA
ATOM     29  H   UNL     1      -3.605  -5.572  -1.440  0.00  0.00    +0.149 HD
BRANCH  26  30
ATOM     30  C   UNL     1      -1.937  -4.959  -0.279  0.00  0.00    +0.104 C 
BRANCH  30  31
ATOM     31  C   UNL     1      -1.290  -4.558  -1.606  0.00  0.00    +0.017 C 
BRANCH  31  32
ATOM     32  C   UNL     1       0.102  -3.981  -1.342  0.00  0.00    -0.017 C 
BRANCH  32  33
ATOM     33  C   UNL     1       0.748  -3.580  -2.669  0.00  0.00    -0.080 C 
BRANCH  33  35
ATOM     34  C   UNL     1       2.752  -2.752  -3.695  0.00  0.00    -0.097 C 
ATOM     35  N   UNL     1       2.085  -3.026  -2.415  0.00  0.00    +0.376 N 
ATOM     36  C   UNL     1       1.961  -1.778  -1.650  0.00  0.00    -0.097 C 
ATOM     37  H   UNL     1       2.630  -3.691  -1.887  0.00  0.00    -0.083 HD
ENDBRANCH  33  35
ENDBRANCH  32  33
ENDBRANCH  31  32
ENDBRANCH  30  31
ENDBRANCH  26  30
ENDBRANCH   1  27
TORSDOF 9
