REMARK  Name = ZINC31174086
REMARK  7 active torsions:
REMARK  status: ('A' for Active; 'I' for Inactive)
REMARK    1  A    between atoms: C_1  and  C_2
REMARK    2  A    between atoms: C_2  and  N_3
REMARK    3  A    between atoms: N_3  and  C_4
REMARK    4  A    between atoms: N_3  and  C_21
REMARK    5  A    between atoms: C_4  and  C_5
REMARK    6  A    between atoms: C_11  and  C_16
REMARK    7  A    between atoms: C_21  and  C_22
REMARK                            x       y       z     vdW  Elec       q    Type
REMARK                         _______ _______ _______ _____ _____    ______ ____
ROOT
ATOM      1  C   UNL     1      -1.170  -2.127  -1.628  0.00  0.00    +0.125 A 
ATOM      2  N   UNL     1      -1.649  -3.385  -1.806  0.00  0.00    -0.309 N 
ATOM      3  H   UNL     1      -1.032  -4.133  -1.808  0.00  0.00    +0.170 HD
ATOM      4  C   UNL     1      -2.964  -3.615  -1.977  0.00  0.00    +0.260 A 
ATOM      5  O   UNL     1      -3.378  -4.750  -2.135  0.00  0.00    -0.267 OA
ATOM      6  C   UNL     1      -3.869  -2.506  -1.972  0.00  0.00    +0.083 A 
ATOM      7  C   UNL     1      -5.319  -2.497  -2.135  0.00  0.00    +0.039 A 
ATOM      8  C   UNL     1      -5.971  -1.308  -2.092  0.00  0.00    +0.059 A 
ATOM      9  S   UNL     1      -4.661  -0.128  -1.828  0.00  0.00    -0.076 S 
ATOM     10  C   UNL     1      -3.283  -1.244  -1.782  0.00  0.00    +0.116 A 
ATOM     11  N   UNL     1      -1.972  -1.096  -1.612  0.00  0.00    -0.225 NA
ENDROOT
BRANCH   7  12
ATOM     12  C   UNL     1      -6.061  -3.757  -2.343  0.00  0.00    +0.136 A 
ATOM     13  C   UNL     1      -7.167  -4.154  -1.658  0.00  0.00    +0.050 A 
ATOM     14  C   UNL     1      -7.540  -5.409  -2.181  0.00  0.00    +0.042 A 
ATOM     15  C   UNL     1      -6.654  -5.712  -3.148  0.00  0.00    +0.196 A 
ATOM     16  O   UNL     1      -5.764  -4.709  -3.248  0.00  0.00    -0.463 OA
ENDBRANCH   7  12
BRANCH   1  17
ATOM     17  C   UNL     1       0.310  -1.918  -1.438  0.00  0.00    +0.158 C 
BRANCH  17  18
ATOM     18  N   UNL     1       0.583  -0.485  -1.260  0.00  0.00    -0.292 NA
BRANCH  18  20
ATOM     19  C   UNL     1      -0.056   1.539  -0.040  0.00  0.00    +0.020 C 
ATOM     20  C   UNL     1      -0.003   0.010  -0.008  0.00  0.00    +0.081 C 
ENDBRANCH  18  20
BRANCH  18  21
ATOM     21  C   UNL     1       2.026  -0.215  -1.310  0.00  0.00    +0.132 C 
BRANCH  21  22
ATOM     22  C   UNL     1       2.525  -0.369  -2.748  0.00  0.00    +0.225 C 
ATOM     23  C   UNL     1       4.031  -0.079  -2.808  0.00  0.00    +0.275 C 
ATOM     24  O   UNL     1       4.460  -0.218  -4.166  0.00  0.00    -0.485 OA
ATOM     25  C   UNL     1       3.690   0.379  -5.116  0.00  0.00    +0.162 A 
ATOM     26  C   UNL     1       4.216   0.599  -6.380  0.00  0.00    +0.049 A 
ATOM     27  C   UNL     1       3.444   1.202  -7.356  0.00  0.00    +0.004 A 
ATOM     28  C   UNL     1       2.146   1.586  -7.074  0.00  0.00    +0.004 A 
ATOM     29  C   UNL     1       1.617   1.371  -5.816  0.00  0.00    +0.049 A 
ATOM     30  C   UNL     1       2.386   0.769  -4.832  0.00  0.00    +0.163 A 
ATOM     31  O   UNL     1       1.853   0.570  -3.595  0.00  0.00    -0.481 OA
ENDBRANCH  21  22
ENDBRANCH  18  21
ENDBRANCH  17  18
ENDBRANCH   1  17
TORSDOF 6
