REMARK  Name = ZINC12210150
REMARK  12 active torsions:
REMARK  status: ('A' for Active; 'I' for Inactive)
REMARK    1  A    between atoms: C_1  and  C_2
REMARK    2  A    between atoms: C_5  and  S_14
REMARK    3  A    between atoms: N_6  and  C_7
REMARK    4  A    between atoms: C_7  and  C_8
REMARK    5  A    between atoms: S_14  and  C_15
REMARK    6  A    between atoms: C_15  and  C_16
REMARK    7  A    between atoms: C_16  and  C_18
REMARK    8  A    between atoms: C_19  and  N_31
REMARK    9  A    between atoms: N_20  and  C_27
REMARK   10  A    between atoms: C_27  and  C_28
REMARK   11  A    between atoms: C_28  and  C_29
REMARK   12  A    between atoms: C_28  and  C_30
REMARK                            x       y       z     vdW  Elec       q    Type
REMARK                         _______ _______ _______ _____ _____    ______ ____
ROOT
ATOM      1  C   UNL     1       0.369  -4.438  -0.056  0.00  0.00    +0.182 C 
ATOM      2  O   UNL     1       1.495  -4.893  -0.052  0.00  0.00    -0.291 OA
ENDROOT
BRANCH   1   3
ATOM      3  C   UNL     1      -0.743  -5.307  -0.034  0.00  0.00    +0.120 A 
ATOM      4  C   UNL     1      -0.578  -6.699  -0.133  0.00  0.00    +0.116 A 
ATOM      5  N   UNL     1      -1.684  -7.499  -0.101  0.00  0.00    -0.281 N 
ATOM      6  C   UNL     1      -2.917  -6.981   0.010  0.00  0.00    +0.331 A 
ATOM      7  O   UNL     1      -3.870  -7.736   0.028  0.00  0.00    -0.246 OA
ATOM      8  N   UNL     1      -3.137  -5.660   0.101  0.00  0.00    -0.274 N 
ATOM      9  H   UNL     1      -4.074  -5.320   0.182  0.00  0.00    +0.173 HD
ATOM     10  C   UNL     1      -2.111  -4.785   0.085  0.00  0.00    +0.266 A 
ATOM     11  O   UNL     1      -2.313  -3.587   0.169  0.00  0.00    -0.267 OA
BRANCH   4  12
ATOM     12  N   UNL     1       0.664  -7.241  -0.251  0.00  0.00    -0.344 N 
ATOM     13  H   UNL     1       1.449  -6.675  -0.185  0.00  0.00    +0.144 HD
ATOM     14  H   UNL     1       0.765  -8.194  -0.402  0.00  0.00    +0.144 HD
ENDBRANCH   4  12
BRANCH   5  15
ATOM     15  C   UNL     1      -1.522  -8.952  -0.197  0.00  0.00    +0.131 C 
BRANCH  15  16
ATOM     16  C   UNL     1      -1.560  -9.374  -1.667  0.00  0.00    +0.003 C 
ATOM     17  C   UNL     1      -1.266 -10.872  -1.775  0.00  0.00    +0.009 C 
ATOM     18  C   UNL     1      -2.945  -9.082  -2.246  0.00  0.00    +0.009 C 
ENDBRANCH  15  16
ENDBRANCH   5  15
ENDBRANCH   1   3
BRANCH   1  19
ATOM     19  C   UNL     1       0.159  -2.946  -0.085  0.00  0.00    +0.157 C 
BRANCH  19  20
ATOM     20  S   UNL     1       1.765  -2.111  -0.108  0.00  0.00    -0.078 S 
BRANCH  20  25
ATOM     21  C   UNL     1       1.593   3.199  -0.211  0.00  0.00    +0.088 C 
ATOM     22  C   UNL     1       1.192   1.747  -0.181  0.00  0.00    +0.131 A 
ATOM     23  N   UNL     1      -0.025   1.282  -0.166  0.00  0.00    -0.134 NA
ATOM     24  N   UNL     1      -0.006  -0.003  -0.141  0.00  0.00    -0.122 NA
ATOM     25  C   UNL     1       1.236  -0.431  -0.139  0.00  0.00    +0.192 A 
ATOM     26  N   UNL     1       2.039   0.673  -0.164  0.00  0.00    -0.302 N 
BRANCH  26  27
ATOM     27  C   UNL     1       3.504   0.701  -0.171  0.00  0.00    +0.160 C 
BRANCH  27  28
ATOM     28  C   UNL     1       3.999   0.682  -1.594  0.00  0.00    -0.028 A 
ATOM     29  C   UNL     1       4.255  -0.523  -2.221  0.00  0.00    +0.005 A 
ATOM     30  C   UNL     1       4.706  -0.540  -3.528  0.00  0.00    +0.000 A 
ATOM     31  C   UNL     1       4.910   0.648  -4.204  0.00  0.00    +0.000 A 
ATOM     32  C   UNL     1       4.659   1.853  -3.575  0.00  0.00    +0.000 A 
ATOM     33  C   UNL     1       4.204   1.871  -2.270  0.00  0.00    +0.005 A 
ENDBRANCH  27  28
ENDBRANCH  26  27
ENDBRANCH  20  25
ENDBRANCH  19  20
ENDBRANCH   1  19
TORSDOF 9
