REMARK  Name = ZINC06407117
REMARK  7 active torsions:
REMARK  status: ('A' for Active; 'I' for Inactive)
REMARK    1  A    between atoms: C_1  and  C_2
REMARK    2  A    between atoms: C_4  and  C_15
REMARK    3  A    between atoms: C_5  and  C_14
REMARK    4  A    between atoms: N_6  and  C_7
REMARK    5  A    between atoms: N_16  and  N_17
REMARK    6  A    between atoms: C_18  and  C_20
REMARK    7  A    between atoms: C_24  and  C_25
REMARK                            x       y       z     vdW  Elec       q    Type
REMARK                         _______ _______ _______ _____ _____    ______ ____
ROOT
ATOM      1  C   UNL     1      -0.018   1.503   0.010  0.00  0.00    +0.064 C 
ATOM      2  C   UNL     1       0.002  -0.004   0.002  0.00  0.00    +0.022 A 
ATOM      3  C   UNL     1       0.008  -0.781  -1.097  0.00  0.00    +0.032 A 
ATOM      4  C   UNL     1       0.029  -2.170  -0.628  0.00  0.00    +0.016 A 
ATOM      5  C   UNL     1       0.034  -2.113   0.736  0.00  0.00    +0.030 A 
ATOM      6  N   UNL     1       0.024  -0.804   1.108  0.00  0.00    -0.317 N 
ATOM      7  C   UNL     1       0.054  -3.296   1.669  0.00  0.00    +0.064 C 
ENDROOT
BRANCH   6   8
ATOM      8  C   UNL     1       0.030  -0.345   2.433  0.00  0.00    +0.047 A 
ATOM      9  C   UNL     1       1.133  -0.577   3.244  0.00  0.00    +0.027 A 
ATOM     10  C   UNL     1       1.137  -0.123   4.548  0.00  0.00    +0.022 A 
ATOM     11  C   UNL     1       0.044   0.562   5.047  0.00  0.00    +0.041 A 
ATOM     12  C   UNL     1      -1.057   0.794   4.241  0.00  0.00    +0.022 A 
ATOM     13  C   UNL     1      -1.064   0.348   2.934  0.00  0.00    +0.027 A 
ATOM     14 CL   UNL     1       0.052   1.131   6.687  0.00  0.00    -0.084 Cl
ENDBRANCH   6   8
BRANCH   4  15
ATOM     15  C   UNL     1       0.041  -3.385  -1.463  0.00  0.00    +0.140 C 
ATOM     16  N   UNL     1       0.059  -4.556  -0.904  0.00  0.00    -0.187 NA
BRANCH  16  17
ATOM     17  N   UNL     1       0.071  -5.710  -1.698  0.00  0.00    -0.203 N 
ATOM     18  C   UNL     1       0.089  -6.927  -1.117  0.00  0.00    +0.267 C 
ATOM     19  O   UNL     1       0.096  -7.022   0.096  0.00  0.00    -0.268 OA
ATOM     20  H   UNL     1       0.066  -5.635  -2.664  0.00  0.00    +0.178 HD
BRANCH  18  21
ATOM     21  C   UNL     1       0.102  -8.141  -1.952  0.00  0.00    +0.079 A 
ATOM     22  C   UNL     1       0.102  -8.210  -3.420  0.00  0.00    +0.054 A 
ATOM     23  C   UNL     1       0.116  -9.517  -3.728  0.00  0.00    +0.196 A 
ATOM     24  O   UNL     1       0.123 -10.235  -2.595  0.00  0.00    -0.467 OA
ATOM     25  C   UNL     1       0.120  -9.436  -1.523  0.00  0.00    +0.114 A 
ATOM     26  C   UNL     1       0.133  -9.889  -0.086  0.00  0.00    +0.087 C 
ENDBRANCH  18  21
ENDBRANCH  16  17
ENDBRANCH   4  15
TORSDOF 4
