REMARK  Name = ZINC38065655
REMARK  8 active torsions:
REMARK  status: ('A' for Active; 'I' for Inactive)
REMARK    1  A    between atoms: C_1  and  C_2
REMARK    2  A    between atoms: C_2  and  C_3
REMARK    3  A    between atoms: C_3  and  C_5
REMARK    4  A    between atoms: C_3  and  N_6
REMARK    5  A    between atoms: N_6  and  C_7
REMARK    6  A    between atoms: C_7  and  C_8
REMARK    7  A    between atoms: C_7  and  C_9
REMARK    8  A    between atoms: C_7  and  C_16
REMARK                            x       y       z     vdW  Elec       q    Type
REMARK                         _______ _______ _______ _____ _____    ______ ____
ROOT
ATOM      1  C   UNL     1       0.469  -0.275   3.649  0.00  0.00    +0.034 C 
ATOM      2  C   UNL     1       0.944  -1.679   4.031  0.00  0.00    +0.004 C 
ENDROOT
BRANCH   1   3
ATOM      3  C   UNL     1      -0.569   0.190   4.637  0.00  0.00    -0.036 A 
ATOM      4  C   UNL     1      -1.841   0.513   4.203  0.00  0.00    +0.004 A 
ATOM      5  C   UNL     1      -2.794   0.939   5.110  0.00  0.00    +0.000 A 
ATOM      6  C   UNL     1      -2.475   1.042   6.451  0.00  0.00    +0.001 A 
ATOM      7  C   UNL     1      -1.203   0.719   6.886  0.00  0.00    +0.015 A 
ATOM      8  C   UNL     1      -0.251   0.287   5.980  0.00  0.00    +0.020 A 
ATOM      9 BR   UNL     1       1.487  -0.162   6.575  0.00  0.00    -0.050 Br
ENDBRANCH   1   3
BRANCH   1  10
ATOM     10  C   UNL     1       1.639   0.674   3.666  0.00  0.00    +0.204 C 
ATOM     11  O   UNL     1       2.607   0.431   4.356  0.00  0.00    -0.277 OA
ATOM     12  N   UNL     1       1.611   1.792   2.914  0.00  0.00    -0.330 N 
ATOM     13  H   UNL     1       0.838   1.986   2.362  0.00  0.00    +0.145 HD
ATOM     14  H   UNL     1       2.365   2.403   2.925  0.00  0.00    +0.145 HD
ENDBRANCH   1  10
BRANCH   1  15
ATOM     15  N   UNL     1      -0.117  -0.306   2.302  0.00  0.00    +0.393 N 
ATOM     16  H   UNL     1      -0.498   0.601   2.080  0.00  0.00    -0.084 HD
ATOM     17  H   UNL     1      -0.852  -0.997   2.271  0.00  0.00    -0.084 HD
BRANCH  15  18
ATOM     18  C   UNL     1       0.923  -0.654   1.324  0.00  0.00    -0.073 C 
ATOM     19  C   UNL     1       1.097  -2.174   1.283  0.00  0.00    -0.014 C 
BRANCH  18  21
ATOM     20  C   UNL     1       0.456   1.378  -0.052  0.00  0.00    +0.002 C 
ATOM     21  C   UNL     1       0.509  -0.151  -0.060  0.00  0.00    -0.019 C 
ENDBRANCH  18  21
ENDBRANCH  15  18
ENDBRANCH   1  15
TORSDOF 5
