REMARK  Name = ZINC39672561
REMARK  5 active torsions:
REMARK  status: ('A' for Active; 'I' for Inactive)
REMARK    1  A    between atoms: C_1  and  C_2
REMARK    2  A    between atoms: C_5  and  C_7
REMARK    3  A    between atoms: C_7  and  N_8
REMARK    4  A    between atoms: C_9  and  C_11
REMARK    5  A    between atoms: C_22  and  C_24
REMARK                            x       y       z     vdW  Elec       q    Type
REMARK                         _______ _______ _______ _____ _____    ______ ____
ROOT
ATOM      1  C   UNL     1      -2.964  -4.452   4.101  0.00  0.00    +0.100 C 
ATOM      2  C   UNL     1      -3.724  -5.076   2.909  0.00  0.00    +0.121 C 
ATOM      3  N   UNL     1      -3.587  -6.539   3.103  0.00  0.00    -0.297 N 
ATOM      4  C   UNL     1      -3.726  -6.732   4.567  0.00  0.00    +0.115 C 
ATOM      5  C   UNL     1      -2.970  -5.540   5.188  0.00  0.00    -0.004 C 
ATOM      6  C   UNL     1      -1.542  -5.947   5.537  0.00  0.00    -0.010 C 
ATOM      7  C   UNL     1      -1.573  -6.989   6.659  0.00  0.00    -0.082 C 
ATOM      8  N   UNL     1      -2.243  -6.423   7.836  0.00  0.00    +0.379 N 
ATOM      9  C   UNL     1      -3.644  -6.120   7.517  0.00  0.00    -0.082 C 
ATOM     10  C   UNL     1      -3.700  -5.042   6.431  0.00  0.00    -0.010 C 
ATOM     11  C   UNL     1      -3.383  -7.481   2.162  0.00  0.00    +0.260 C 
ATOM     12  O   UNL     1      -3.293  -8.648   2.481  0.00  0.00    -0.271 OA
ATOM     13  H   UNL     1      -2.208  -7.088   8.593  0.00  0.00    -0.086 HD
ATOM     14  H   UNL     1      -1.772  -5.575   8.114  0.00  0.00    -0.086 HD
ENDROOT
BRANCH  11  15
ATOM     15  C   UNL     1      -3.267  -7.086   0.712  0.00  0.00    +0.296 C 
ATOM     16  C   UNL     1      -4.606  -6.517   0.222  0.00  0.00    +0.283 C 
ATOM     17  O   UNL     1      -4.465  -6.165  -1.158  0.00  0.00    -0.484 OA
ATOM     18  C   UNL     1      -3.863  -7.082  -1.965  0.00  0.00    +0.162 A 
ATOM     19  C   UNL     1      -4.013  -6.981  -3.340  0.00  0.00    +0.049 A 
ATOM     20  C   UNL     1      -3.405  -7.903  -4.172  0.00  0.00    +0.004 A 
ATOM     21  C   UNL     1      -2.648  -8.928  -3.636  0.00  0.00    +0.004 A 
ATOM     22  C   UNL     1      -2.497  -9.035  -2.266  0.00  0.00    +0.049 A 
ATOM     23  C   UNL     1      -3.104  -8.114  -1.426  0.00  0.00    +0.163 A 
ATOM     24  O   UNL     1      -2.952  -8.237  -0.079  0.00  0.00    -0.473 OA
ENDBRANCH  11  15
BRANCH   1  26
ATOM     25  N   UNL     1      -0.899  -3.106   4.314  0.00  0.00    -0.309 N 
ATOM     26  C   UNL     1      -1.549  -4.116   3.703  0.00  0.00    +0.219 C 
ATOM     27  O   UNL     1      -0.996  -4.755   2.833  0.00  0.00    -0.275 OA
ATOM     28  H   UNL     1      -1.342  -2.595   5.009  0.00  0.00    +0.149 HD
BRANCH  25  29
ATOM     29  C   UNL     1       0.476  -2.780   3.927  0.00  0.00    +0.167 C 
BRANCH  29  34
ATOM     30  C   UNL     1       2.676  -0.568   7.840  0.00  0.00    +0.066 C 
ATOM     31  C   UNL     1       1.961  -0.540   6.513  0.00  0.00    +0.046 A 
ATOM     32  C   UNL     1       1.671   0.630   5.888  0.00  0.00    +0.070 A 
ATOM     33  S   UNL     1       0.855   0.025   4.420  0.00  0.00    -0.079 S 
ATOM     34  C   UNL     1       0.969  -1.620   4.754  0.00  0.00    +0.096 A 
ATOM     35  N   UNL     1       1.594  -1.649   5.904  0.00  0.00    -0.248 NA
ENDBRANCH  29  34
ENDBRANCH  25  29
ENDBRANCH   1  26
TORSDOF 4
