REMARK  Name = ZINC39657996
REMARK  7 active torsions:
REMARK  status: ('A' for Active; 'I' for Inactive)
REMARK    1  A    between atoms: C_1  and  C_2
REMARK    2  A    between atoms: C_2  and  C_4
REMARK    3  A    between atoms: C_2  and  O_29
REMARK    4  A    between atoms: C_8  and  C_17
REMARK    5  A    between atoms: N_19  and  C_20
REMARK    6  A    between atoms: C_23  and  C_26
REMARK    7  A    between atoms: O_29  and  C_30
REMARK                            x       y       z     vdW  Elec       q    Type
REMARK                         _______ _______ _______ _____ _____    ______ ____
ROOT
ATOM      1  C   UNL     1       0.735  -0.385   1.124  0.00  0.00    +0.256 C 
ATOM      2  O   UNL     1       1.857  -0.797   0.918  0.00  0.00    -0.272 OA
ATOM      3  N   UNL     1       0.347  -0.089   2.381  0.00  0.00    -0.297 N 
ATOM      4  C   UNL     1      -0.973   0.415   2.829  0.00  0.00    +0.121 C 
ATOM      5  C   UNL     1      -1.244  -0.327   4.157  0.00  0.00    +0.100 C 
ATOM      6  C   UNL     1       0.149  -0.723   4.676  0.00  0.00    -0.004 C 
ATOM      7  C   UNL     1       1.141  -0.201   3.627  0.00  0.00    +0.115 C 
ATOM      8  C   UNL     1       0.259  -2.240   4.789  0.00  0.00    -0.010 C 
ATOM      9  C   UNL     1       1.631  -2.606   5.361  0.00  0.00    -0.082 C 
ATOM     10  N   UNL     1       1.795  -1.984   6.681  0.00  0.00    +0.379 N 
ATOM     11  C   UNL     1       1.780  -0.522   6.551  0.00  0.00    -0.082 C 
ATOM     12  C   UNL     1       0.414  -0.068   6.028  0.00  0.00    -0.010 C 
ATOM     13  H   UNL     1       1.040  -2.274   7.284  0.00  0.00    -0.086 HD
ATOM     14  H   UNL     1       2.674  -2.276   7.082  0.00  0.00    -0.086 HD
ENDROOT
BRANCH   5  15
ATOM     15  C   UNL     1      -1.932   0.587   5.137  0.00  0.00    +0.218 C 
ATOM     16  O   UNL     1      -1.713   1.780   5.111  0.00  0.00    -0.275 OA
ATOM     17  N   UNL     1      -2.791   0.079   6.043  0.00  0.00    -0.312 N 
ATOM     18  H   UNL     1      -2.966  -0.874   6.064  0.00  0.00    +0.149 HD
BRANCH  17  19
ATOM     19  C   UNL     1      -3.460   0.968   6.997  0.00  0.00    +0.073 C 
ATOM     20  C   UNL     1      -2.550   1.197   8.205  0.00  0.00    +0.023 C 
ATOM     21  C   UNL     1      -3.249   2.126   9.201  0.00  0.00    +0.016 C 
ATOM     22  C   UNL     1      -4.559   1.484   9.663  0.00  0.00    +0.102 C 
ATOM     23  C   UNL     1      -5.469   1.255   8.454  0.00  0.00    +0.016 C 
ATOM     24  C   UNL     1      -4.770   0.327   7.459  0.00  0.00    +0.023 C 
BRANCH  22  25
ATOM     25  C   UNL     1      -5.247   2.398  10.643  0.00  0.00    +0.359 C 
ATOM     26  O   UNL     1      -6.464   2.400  10.725  0.00  0.00    -0.246 OA
ATOM     27  O   UNL     1      -4.588   3.136  11.356  0.00  0.00    -0.246 OA
ENDBRANCH  22  25
ENDBRANCH  17  19
ENDBRANCH   5  15
BRANCH   1  29
ATOM     28  C   UNL     1      -0.555   1.282  -0.182  0.00  0.00    +0.062 C 
ATOM     29  C   UNL     1      -0.224  -0.204  -0.023  0.00  0.00    +0.256 C 
BRANCH  29  30
ATOM     30  O   UNL     1       0.374  -0.690  -1.226  0.00  0.00    -0.480 OA
BRANCH  30  31
ATOM     31  C   UNL     1      -0.466  -1.092  -2.215  0.00  0.00    +0.122 A 
ATOM     32  C   UNL     1       0.043  -1.681  -3.364  0.00  0.00    +0.045 A 
ATOM     33  C   UNL     1      -0.814  -2.089  -4.367  0.00  0.00    +0.004 A 
ATOM     34  C   UNL     1      -2.178  -1.912  -4.228  0.00  0.00    +0.000 A 
ATOM     35  C   UNL     1      -2.688  -1.326  -3.084  0.00  0.00    +0.004 A 
ATOM     36  C   UNL     1      -1.836  -0.921  -2.075  0.00  0.00    +0.045 A 
ENDBRANCH  30  31
ENDBRANCH  29  30
ENDBRANCH   1  29
TORSDOF 6
