REMARK  Name = ZINC20912208
REMARK  7 active torsions:
REMARK  status: ('A' for Active; 'I' for Inactive)
REMARK    1  A    between atoms: C_10  and  C_11
REMARK    2  A    between atoms: N_12  and  N_13
REMARK    3  A    between atoms: C_17  and  S_20
REMARK    4  A    between atoms: N_18  and  N_19
REMARK    5  A    between atoms: S_20  and  C_21
REMARK    6  A    between atoms: C_21  and  C_22
REMARK    7  A    between atoms: N_24  and  C_25
REMARK                            x       y       z     vdW  Elec       q    Type
REMARK                         _______ _______ _______ _____ _____    ______ ____
ROOT
ATOM      1  N   UNL     1       0.769  -2.031  -5.539  0.00  0.00    -0.204 N 
ATOM      2  C   UNL     1       0.670  -1.517  -4.254  0.00  0.00    +0.254 A 
ATOM      3  N   UNL     1       1.673  -1.230  -3.459  0.00  0.00    -0.109 NA
ATOM      4  N   UNL     1       1.146  -0.732  -2.260  0.00  0.00    -0.119 NA
ATOM      5  C   UNL     1      -0.162  -0.739  -2.359  0.00  0.00    +0.210 A 
ATOM      6  N   UNL     1      -0.490  -1.221  -3.594  0.00  0.00    -0.211 N 
ATOM      7  H   UNL     1      -0.141  -2.235  -6.121  0.00  0.00    +0.177 HD
ENDROOT
BRANCH   6   8
ATOM      8  N   UNL     1      -1.755  -1.380  -4.084  0.00  0.00    -0.294 N 
ATOM      9  H   UNL     1      -2.623  -1.108  -3.465  0.00  0.00    +0.163 HD
ATOM     10  H   UNL     1      -1.906  -1.779  -5.098  0.00  0.00    +0.163 HD
ENDBRANCH   6   8
BRANCH   1  12
ATOM     11  C   UNL     1       2.122  -2.770  -7.299  0.00  0.00    +0.139 C 
ATOM     12  N   UNL     1       2.029  -2.289  -6.095  0.00  0.00    -0.187 NA
BRANCH  11  22
ATOM     13  C   UNL     1       7.017  -1.999  -5.867  0.00  0.00    +0.001 A 
ATOM     14  C   UNL     1       5.783  -1.725  -5.281  0.00  0.00    +0.001 A 
ATOM     15  C   UNL     1       4.620  -2.052  -5.914  0.00  0.00    +0.009 A 
ATOM     16  C   UNL     1       4.665  -2.672  -7.168  0.00  0.00    -0.009 A 
ATOM     17  C   UNL     1       5.919  -2.951  -7.766  0.00  0.00    -0.017 A 
ATOM     18  C   UNL     1       7.097  -2.600  -7.086  0.00  0.00    +0.008 A 
ATOM     19  C   UNL     1       5.960  -3.572  -9.026  0.00  0.00    +0.008 A 
ATOM     20  C   UNL     1       4.810  -3.905  -9.674  0.00  0.00    +0.001 A 
ATOM     21  C   UNL     1       3.560  -3.658  -9.123  0.00  0.00    +0.010 A 
ATOM     22  C   UNL     1       3.445  -3.041  -7.883  0.00  0.00    +0.002 A 
ENDBRANCH  11  22
ENDBRANCH   1  12
BRANCH   5  23
ATOM     23  S   UNL     1      -1.297  -0.212  -1.119  0.00  0.00    -0.075 S 
BRANCH  23  24
ATOM     24  C   UNL     1      -0.137   0.272   0.184  0.00  0.00    +0.173 C 
BRANCH  24  25
ATOM     25  C   UNL     1      -0.905   0.771   1.381  0.00  0.00    +0.228 C 
ATOM     26  O   UNL     1      -2.117   0.797   1.356  0.00  0.00    -0.275 OA
ATOM     27  N   UNL     1      -0.244   1.188   2.479  0.00  0.00    -0.282 N 
ATOM     28  H   UNL     1       0.854   1.249   2.470  0.00  0.00    +0.155 HD
BRANCH  27  29
ATOM     29  C   UNL     1      -0.956   1.545   3.631  0.00  0.00    +0.070 A 
ATOM     30  C   UNL     1      -2.031   2.421   3.542  0.00  0.00    +0.064 A 
ATOM     31  C   UNL     1      -2.734   2.768   4.680  0.00  0.00    +0.022 A 
ATOM     32  C   UNL     1      -2.363   2.252   5.908  0.00  0.00    +0.003 A 
ATOM     33  C   UNL     1      -1.291   1.383   6.001  0.00  0.00    +0.022 A 
ATOM     34  C   UNL     1      -0.586   1.028   4.866  0.00  0.00    +0.064 A 
ATOM     35 CL   UNL     1       0.760  -0.061   4.984  0.00  0.00    -0.082 Cl
ATOM     36 CL   UNL     1      -2.493   3.075   2.001  0.00  0.00    -0.082 Cl
ENDBRANCH  27  29
ENDBRANCH  24  25
ENDBRANCH  23  24
ENDBRANCH   5  23
TORSDOF 7
