REMARK  Name = ZINC10881788
REMARK  4 active torsions:
REMARK  status: ('A' for Active; 'I' for Inactive)
REMARK    1  A    between atoms: C_7  and  C_11
REMARK    2  A    between atoms: C_11  and  C_12
REMARK    3  A    between atoms: C_12  and  C_13
REMARK    4  A    between atoms: C_18  and  C_21
REMARK                            x       y       z     vdW  Elec       q    Type
REMARK                         _______ _______ _______ _____ _____    ______ ____
ROOT
ATOM      1  C   UNL     1      -1.279  10.481   0.067  0.00  0.00    +0.216 C 
ATOM      2  O   UNL     1      -1.189  11.077   1.119  0.00  0.00    -0.276 OA
ATOM      3  N   UNL     1      -1.457   9.145   0.062  0.00  0.00    -0.301 N 
ATOM      4  C   UNL     1      -1.543   8.397   1.324  0.00  0.00    +0.108 C 
ATOM      5  C   UNL     1      -0.517   7.260   1.294  0.00  0.00    +0.027 C 
ATOM      6  C   UNL     1      -0.741   6.409   0.042  0.00  0.00    +0.024 C 
ATOM      7  C   UNL     1      -0.542   7.272  -1.206  0.00  0.00    +0.027 C 
ATOM      8  C   UNL     1      -1.569   8.409  -1.204  0.00  0.00    +0.108 C 
ENDROOT
BRANCH   6   9
ATOM      9  C   UNL     1       0.245   5.269   0.027  0.00  0.00    -0.019 A 
ATOM     10  C   UNL     1       1.583   5.371   0.015  0.00  0.00    +0.087 A 
ATOM     11  N   UNL     1       2.147   4.124   0.003  0.00  0.00    -0.360 N 
ATOM     12  H   UNL     1       3.099   3.943  -0.007  0.00  0.00    +0.165 HD
ATOM     13  C   UNL     1       1.159   3.165   0.007  0.00  0.00    +0.047 A 
ATOM     14  C   UNL     1      -0.075   3.840   0.022  0.00  0.00    +0.003 A 
ATOM     15  C   UNL     1      -1.267   3.112   0.030  0.00  0.00    +0.010 A 
ATOM     16  C   UNL     1      -1.228   1.746   0.017  0.00  0.00    +0.001 A 
ATOM     17  C   UNL     1      -0.013   1.076   0.008  0.00  0.00    +0.002 A 
ATOM     18  C   UNL     1       1.175   1.774   0.000  0.00  0.00    +0.026 A 
ENDBRANCH   6   9
BRANCH   1  19
ATOM     19  C   UNL     1      -1.193  11.234  -1.236  0.00  0.00    +0.100 C 
BRANCH  19  20
ATOM     20  C   UNL     1      -0.992  12.724  -0.951  0.00  0.00    +0.046 C 
BRANCH  20  27
ATOM     21  C   UNL     1      -4.220  14.520  -3.837  0.00  0.00    +0.001 A 
ATOM     22  C   UNL     1      -3.666  15.144  -4.947  0.00  0.00    +0.002 A 
ATOM     23  C   UNL     1      -2.300  15.192  -5.117  0.00  0.00    +0.026 A 
ATOM     24  C   UNL     1      -1.465  14.610  -4.168  0.00  0.00    +0.047 A 
ATOM     25  C   UNL     1      -2.031  13.979  -3.046  0.00  0.00    +0.003 A 
ATOM     26  C   UNL     1      -3.418  13.941  -2.894  0.00  0.00    +0.010 A 
ATOM     27  C   UNL     1      -0.906  13.477  -2.254  0.00  0.00    -0.022 A 
ATOM     28  C   UNL     1       0.217  13.820  -2.905  0.00  0.00    +0.087 A 
ATOM     29  N   UNL     1      -0.098  14.493  -4.054  0.00  0.00    -0.360 N 
ATOM     30  H   UNL     1       0.547  14.840  -4.691  0.00  0.00    +0.165 HD
ENDBRANCH  20  27
ENDBRANCH  19  20
ENDBRANCH   1  19
TORSDOF 4
