REMARK  Name = ZINC08643700
REMARK  10 active torsions:
REMARK  status: ('A' for Active; 'I' for Inactive)
REMARK    1  A    between atoms: C_1  and  C_2
REMARK    2  A    between atoms: C_2  and  C_4
REMARK    3  A    between atoms: C_2  and  N_12
REMARK    4  A    between atoms: C_13  and  C_15
REMARK    5  A    between atoms: C_15  and  C_17
REMARK    6  A    between atoms: C_15  and  O_18
REMARK    7  A    between atoms: O_18  and  C_19
REMARK    8  A    between atoms: C_19  and  C_21
REMARK    9  A    between atoms: C_21  and  N_22
REMARK   10  A    between atoms: C_29  and  N_33
REMARK                            x       y       z     vdW  Elec       q    Type
REMARK                         _______ _______ _______ _____ _____    ______ ____
ROOT
ATOM      1  O   UNL     1      -3.192   5.817   2.534  0.00  0.00    -0.451 OA
ENDROOT
BRANCH   1   2
ATOM      2  C   UNL     1      -1.964   5.400   1.880  0.00  0.00    +0.258 C 
ATOM      3  C   UNL     1      -0.832   5.346   2.907  0.00  0.00    +0.062 C 
BRANCH   2   5
ATOM      4  N   UNL     1      -1.144   3.442   0.610  0.00  0.00    -0.306 N 
ATOM      5  C   UNL     1      -2.158   4.034   1.273  0.00  0.00    +0.254 C 
ATOM      6  O   UNL     1      -3.224   3.468   1.381  0.00  0.00    -0.272 OA
ATOM      7  H   UNL     1      -0.291   3.896   0.523  0.00  0.00    +0.149 HD
BRANCH   4   9
ATOM      8  C   UNL     1      -1.911   2.260  -1.389  0.00  0.00    +0.033 C 
ATOM      9  C   UNL     1      -1.332   2.115   0.020  0.00  0.00    +0.102 C 
BRANCH   9  10
ATOM     10  C   UNL     1      -0.004   1.405  -0.053  0.00  0.00    -0.009 A 
ATOM     11  C   UNL     1       1.165   2.136  -0.150  0.00  0.00    +0.008 A 
ATOM     12  C   UNL     1       2.383   1.486  -0.223  0.00  0.00    +0.020 A 
ATOM     13  C   UNL     1       2.432   0.103  -0.199  0.00  0.00    +0.042 A 
ATOM     14  C   UNL     1       1.262  -0.628  -0.103  0.00  0.00    +0.040 A 
ATOM     15  C   UNL     1       0.043   0.023  -0.030  0.00  0.00    +0.047 A 
ATOM     16 CL   UNL     1      -1.425  -0.894   0.091  0.00  0.00    -0.083 Cl
ATOM     17 CL   UNL     1       3.961  -0.713  -0.290  0.00  0.00    -0.083 Cl
ENDBRANCH   9  10
ENDBRANCH   4   9
ENDBRANCH   2   5
ENDBRANCH   1   2
BRANCH   1  18
ATOM     18  C   UNL     1      -3.443   7.135   2.577  0.00  0.00    +0.326 C 
ATOM     19  O   UNL     1      -2.662   7.915   2.084  0.00  0.00    -0.249 OA
BRANCH  18  20
ATOM     20  C   UNL     1      -4.697   7.642   3.240  0.00  0.00    +0.237 C 
BRANCH  20  21
ATOM     21  N   UNL     1      -4.738   9.104   3.155  0.00  0.00    -0.223 N 
ATOM     22  C   UNL     1      -5.299   9.793   2.144  0.00  0.00    +0.254 C 
ATOM     23  O   UNL     1      -5.842   9.308   1.173  0.00  0.00    -0.270 OA
ATOM     24  C   UNL     1      -5.142  11.237   2.415  0.00  0.00    +0.052 A 
ATOM     25  C   UNL     1      -5.511  12.393   1.745  0.00  0.00    +0.014 A 
ATOM     26  C   UNL     1      -5.204  13.630   2.288  0.00  0.00    +0.003 A 
ATOM     27  C   UNL     1      -4.531  13.719   3.493  0.00  0.00    +0.033 A 
ATOM     28  C   UNL     1      -4.155  12.572   4.174  0.00  0.00    +0.139 A 
ATOM     29  C   UNL     1      -4.456  11.328   3.643  0.00  0.00    +0.080 A 
ATOM     30  C   UNL     1      -4.224   9.935   4.080  0.00  0.00    +0.257 C 
ATOM     31  O   UNL     1      -3.661   9.597   5.102  0.00  0.00    -0.269 OA
BRANCH  28  32
ATOM     32  N   UNL     1      -3.435  12.675   5.463  0.00  0.00    +0.057 N 
ATOM     33  O   UNL     1      -3.172  13.770   5.928  0.00  0.00    -0.126 OA
ATOM     34  O   UNL     1      -3.106  11.665   6.059  0.00  0.00    -0.126 OA
ENDBRANCH  28  32
ENDBRANCH  20  21
ENDBRANCH  18  20
ENDBRANCH   1  18
TORSDOF 8
