REMARK  Name = ZINC32779803
REMARK  7 active torsions:
REMARK  status: ('A' for Active; 'I' for Inactive)
REMARK    1  A    between atoms: C_4  and  N_7
REMARK    2  A    between atoms: C_8  and  C_34
REMARK    3  A    between atoms: C_11  and  C_13
REMARK    4  A    between atoms: N_15  and  C_16
REMARK    5  A    between atoms: C_16  and  C_17
REMARK    6  A    between atoms: C_17  and  C_19
REMARK    7  A    between atoms: C_17  and  C_24
REMARK                            x       y       z     vdW  Elec       q    Type
REMARK                         _______ _______ _______ _____ _____    ______ ____
ROOT
ATOM      1  C   UNL     1       6.294   5.352   2.306  0.00  0.00    +0.260 C 
ATOM      2  O   UNL     1       6.662   4.578   3.170  0.00  0.00    -0.269 OA
ATOM      3  N   UNL     1       5.527   4.912   1.289  0.00  0.00    -0.309 N 
ATOM      4  H   UNL     1       5.194   5.612   0.509  0.00  0.00    +0.149 HD
ENDROOT
BRANCH   1   8
ATOM      5  N   UNL     1       6.851   8.937   1.806  0.00  0.00    -0.212 N 
ATOM      6  C   UNL     1       7.637   8.864   3.047  0.00  0.00    +0.189 C 
ATOM      7  C   UNL     1       7.536   7.381   3.456  0.00  0.00    +0.096 C 
ATOM      8  C   UNL     1       6.683   6.761   2.373  0.00  0.00    +0.123 C 
ATOM      9  N   UNL     1       6.354   7.669   1.510  0.00  0.00    -0.178 NA
BRANCH   5  13
ATOM     10  C   UNL     1       6.226  12.370  -0.465  0.00  0.00    +0.000 A 
ATOM     11  C   UNL     1       5.671  11.168  -0.865  0.00  0.00    +0.002 A 
ATOM     12  C   UNL     1       5.877  10.027  -0.114  0.00  0.00    +0.025 A 
ATOM     13  C   UNL     1       6.641  10.088   1.044  0.00  0.00    +0.052 A 
ATOM     14  C   UNL     1       7.193  11.299   1.446  0.00  0.00    +0.025 A 
ATOM     15  C   UNL     1       6.988  12.434   0.688  0.00  0.00    +0.002 A 
ENDBRANCH   5  13
BRANCH   6  16
ATOM     16  C   UNL     1       9.072   9.247   2.793  0.00  0.00    +0.233 C 
ATOM     17  O   UNL     1       9.492   9.305   1.657  0.00  0.00    -0.274 OA
ATOM     18  N   UNL     1       9.889   9.526   3.829  0.00  0.00    -0.328 N 
ATOM     19  H   UNL     1      10.936   9.806   3.643  0.00  0.00    +0.145 HD
ATOM     20  H   UNL     1       9.508   9.473   4.859  0.00  0.00    +0.145 HD
ENDBRANCH   6  16
ENDBRANCH   1   8
BRANCH   3  21
ATOM     21  C   UNL     1       5.137   3.502   1.222  0.00  0.00    +0.118 C 
BRANCH  21  22
ATOM     22  C   UNL     1       4.275   3.269  -0.020  0.00  0.00    +0.075 C 
BRANCH  22  23
ATOM     23  C   UNL     1       3.773   1.848  -0.024  0.00  0.00    -0.013 A 
ATOM     24  C   UNL     1       4.524   0.735  -0.037  0.00  0.00    +0.088 A 
ATOM     25  N   UNL     1       3.720  -0.371  -0.036  0.00  0.00    -0.360 N 
ATOM     26  H   UNL     1       4.166  -1.376  -0.046  0.00  0.00    +0.165 HD
ATOM     27  C   UNL     1       2.397   0.012  -0.021  0.00  0.00    +0.047 A 
ATOM     28  C   UNL     1       2.373   1.419  -0.013  0.00  0.00    +0.003 A 
ATOM     29  C   UNL     1       1.151   2.094   0.002  0.00  0.00    +0.010 A 
ATOM     30  C   UNL     1      -0.017   1.384   0.010  0.00  0.00    +0.001 A 
ATOM     31  C   UNL     1       0.002  -0.004   0.002  0.00  0.00    +0.002 A 
ATOM     32  C   UNL     1       1.197  -0.691  -0.014  0.00  0.00    +0.026 A 
ENDBRANCH  22  23
BRANCH  22  33
ATOM     33  C   UNL     1       5.101   3.513  -1.257  0.00  0.00    -0.001 A 
ATOM     34  C   UNL     1       4.904   4.414  -2.251  0.00  0.00    +0.012 A 
ATOM     35  C   UNL     1       5.801   4.461  -3.300  0.00  0.00    +0.008 A 
ATOM     36  C   UNL     1       6.852   3.605  -3.305  0.00  0.00    +0.045 A 
ATOM     37  S   UNL     1       6.596   2.697  -1.790  0.00  0.00    -0.101 S 
ENDBRANCH  22  33
ENDBRANCH  21  22
ENDBRANCH   3  21
TORSDOF 7
