REMARK  Name = ZINC22506321
REMARK  9 active torsions:
REMARK  status: ('A' for Active; 'I' for Inactive)
REMARK    1  A    between atoms: C_1  and  C_2
REMARK    2  A    between atoms: C_4  and  C_31
REMARK    3  A    between atoms: C_6  and  C_27
REMARK    4  A    between atoms: C_10  and  C_11
REMARK    5  A    between atoms: N_13  and  N_14
REMARK    6  A    between atoms: C_20  and  C_23
REMARK    7  A    between atoms: C_27  and  C_28
REMARK    8  A    between atoms: C_27  and  C_29
REMARK    9  A    between atoms: C_27  and  C_30
REMARK                            x       y       z     vdW  Elec       q    Type
REMARK                         _______ _______ _______ _____ _____    ______ ____
ROOT
ATOM      1  C   UNL     1       4.356  -2.937  -1.053  0.00  0.00    +0.268 C 
ATOM      2  O   UNL     1       5.518  -2.586  -1.137  0.00  0.00    -0.268 OA
ATOM      3  N   UNL     1       4.025  -4.226  -1.262  0.00  0.00    -0.219 N 
ATOM      4  H   UNL     1       2.974  -4.543  -1.185  0.00  0.00    +0.174 HD
ENDROOT
BRANCH   3   5
ATOM      5  N   UNL     1       5.018  -5.163  -1.576  0.00  0.00    -0.137 N 
ATOM      6  C   UNL     1       5.493  -6.083  -0.711  0.00  0.00    +0.263 C 
ATOM      7  O   UNL     1       5.156  -6.250   0.442  0.00  0.00    -0.271 OA
ATOM      8  C   UNL     1       6.535  -6.861  -1.481  0.00  0.00    +0.114 C 
ATOM      9  C   UNL     1       6.138  -8.331  -1.576  0.00  0.00    +0.035 C 
ATOM     10  C   UNL     1       7.190  -9.095  -2.383  0.00  0.00    +0.006 C 
ATOM     11  C   UNL     1       8.553  -8.961  -1.700  0.00  0.00    -0.014 C 
ATOM     12  C   UNL     1       8.948  -7.484  -1.635  0.00  0.00    +0.006 C 
ATOM     13  C   UNL     1       7.903  -6.713  -0.825  0.00  0.00    +0.035 C 
ATOM     14  C   UNL     1       9.603  -9.735  -2.499  0.00  0.00    +0.007 C 
ATOM     15  N   UNL     1       6.532  -6.240  -2.812  0.00  0.00    -0.284 N 
ATOM     16  C   UNL     1       5.609  -5.260  -2.773  0.00  0.00    +0.326 C 
ATOM     17  O   UNL     1       5.345  -4.543  -3.717  0.00  0.00    -0.251 OA
ATOM     18  H   UNL     1       7.211  -6.612  -3.594  0.00  0.00    +0.151 HD
ENDBRANCH   3   5
BRANCH   1  28
ATOM     19  C   UNL     1       4.815   0.017  -0.536  0.00  0.00    +0.046 C 
ATOM     20  C   UNL     1       3.452  -0.623  -0.481  0.00  0.00    -0.020 A 
ATOM     21  C   UNL     1       2.321   0.153  -0.180  0.00  0.00    +0.032 A 
ATOM     22  C   UNL     1       2.233   1.539   0.102  0.00  0.00    +0.050 A 
ATOM     23  N   UNL     1       1.058   2.070   0.361  0.00  0.00    -0.236 NA
ATOM     24  C   UNL     1      -0.056   1.358   0.368  0.00  0.00    +0.136 A 
ATOM     25  N   UNL     1      -0.045   0.064   0.114  0.00  0.00    -0.224 NA
ATOM     26  C   UNL     1       1.087  -0.549  -0.155  0.00  0.00    +0.113 A 
ATOM     27  S   UNL     1       1.558  -2.215  -0.542  0.00  0.00    -0.064 S 
ATOM     28  C   UNL     1       3.314  -1.954  -0.723  0.00  0.00    +0.081 A 
ATOM     29  C   UNL     1       3.473   2.395   0.106  0.00  0.00    +0.066 C 
BRANCH  24  30
ATOM     30  C   UNL     1      -1.366   2.040   0.667  0.00  0.00    +0.022 C 
ATOM     31  C   UNL     1      -2.500   1.014   0.611  0.00  0.00    +0.019 C 
ATOM     32  C   UNL     1      -1.310   2.661   2.064  0.00  0.00    +0.019 C 
ATOM     33  C   UNL     1      -1.618   3.137  -0.369  0.00  0.00    +0.019 C 
ENDBRANCH  24  30
ENDBRANCH   1  28
TORSDOF 3
