REMARK  Name = ZINC06197710
REMARK  9 active torsions:
REMARK  status: ('A' for Active; 'I' for Inactive)
REMARK    1  A    between atoms: C_1  and  C_2
REMARK    2  A    between atoms: C_2  and  C_3
REMARK    3  A    between atoms: C_10  and  C_15
REMARK    4  A    between atoms: C_15  and  N_16
REMARK    5  A    between atoms: N_16  and  C_17
REMARK    6  A    between atoms: C_17  and  C_18
REMARK    7  A    between atoms: C_18  and  C_19
REMARK    8  A    between atoms: C_19  and  O_20
REMARK    9  A    between atoms: N_23  and  C_24
REMARK                            x       y       z     vdW  Elec       q    Type
REMARK                         _______ _______ _______ _____ _____    ______ ____
ROOT
ATOM      1  N   UNL     1       6.481  -3.501  -3.289  0.00  0.00    -0.281 N 
ATOM      2  C   UNL     1       6.668  -3.930  -2.025  0.00  0.00    +0.303 C 
ATOM      3  O   UNL     1       6.623  -3.140  -1.102  0.00  0.00    -0.253 OA
ATOM      4  N   UNL     1       6.907  -5.235  -1.785  0.00  0.00    -0.296 N 
ATOM      5  H   UNL     1       6.944  -5.865  -2.521  0.00  0.00    +0.151 HD
ENDROOT
BRANCH   4   6
ATOM      6  C   UNL     1       7.111  -5.701  -0.411  0.00  0.00    +0.074 C 
ATOM      7  C   UNL     1       8.578  -5.512  -0.021  0.00  0.00    +0.022 C 
ATOM      8  C   UNL     1       8.791  -5.999   1.414  0.00  0.00    +0.002 C 
ATOM      9  C   UNL     1       8.425  -7.482   1.508  0.00  0.00    +0.000 C 
ATOM     10  C   UNL     1       6.958  -7.671   1.118  0.00  0.00    +0.002 C 
ATOM     11  C   UNL     1       6.745  -7.184  -0.316  0.00  0.00    +0.022 C 
ENDBRANCH   4   6
BRANCH   1  12
ATOM     12  C   UNL     1       6.221  -2.083  -3.550  0.00  0.00    +0.149 C 
BRANCH  12  20
ATOM     13  C   UNL     1       0.707  -0.490  -1.238  0.00  0.00    -0.047 A 
ATOM     14  C   UNL     1      -0.020  -0.718  -2.399  0.00  0.00    +0.005 A 
ATOM     15  C   UNL     1       0.605  -1.162  -3.544  0.00  0.00    +0.026 A 
ATOM     16  C   UNL     1       1.978  -1.385  -3.539  0.00  0.00    +0.049 A 
ATOM     17  C   UNL     1       2.712  -1.153  -2.361  0.00  0.00    -0.001 A 
ATOM     18  C   UNL     1       2.057  -0.698  -1.211  0.00  0.00    +0.013 A 
ATOM     19  C   UNL     1       4.156  -1.391  -2.366  0.00  0.00    +0.020 A 
ATOM     20  C   UNL     1       4.737  -1.828  -3.511  0.00  0.00    +0.035 A 
ATOM     21  C   UNL     1       3.955  -2.045  -4.666  0.00  0.00    +0.254 A 
ATOM     22  O   UNL     1       4.497  -2.438  -5.684  0.00  0.00    -0.268 OA
ATOM     23  N   UNL     1       2.628  -1.829  -4.671  0.00  0.00    -0.322 N 
ATOM     24  H   UNL     1       2.121  -1.989  -5.482  0.00  0.00    +0.169 HD
BRANCH  13  26
ATOM     25  C   UNL     1      -0.019   1.526   0.010  0.00  0.00    +0.009 C 
ATOM     26  C   UNL     1       0.002  -0.004   0.002  0.00  0.00    +0.032 C 
ENDBRANCH  13  26
ENDBRANCH  12  20
ENDBRANCH   1  12
BRANCH   1  27
ATOM     27  C   UNL     1       6.536  -4.452  -4.401  0.00  0.00    +0.112 C 
BRANCH  27  28
ATOM     28  C   UNL     1       7.972  -4.549  -4.919  0.00  0.00    +0.047 C 
BRANCH  28  29
ATOM     29  C   UNL     1       8.030  -5.542  -6.081  0.00  0.00    +0.157 C 
BRANCH  29  30
ATOM     30  O   UNL     1       9.372  -5.632  -6.565  0.00  0.00    -0.395 OA
ATOM     31  H   UNL     1       9.483  -6.246  -7.304  0.00  0.00    +0.209 HD
ENDBRANCH  29  30
ENDBRANCH  28  29
ENDBRANCH  27  28
ENDBRANCH   1  27
TORSDOF 8
