REMARK  Name = ZINC41586368
REMARK  12 active torsions:
REMARK  status: ('A' for Active; 'I' for Inactive)
REMARK    1  A    between atoms: C_1  and  C_2
REMARK    2  A    between atoms: C_2  and  O_3
REMARK    3  A    between atoms: O_3  and  C_4
REMARK    4  A    between atoms: C_9  and  C_10
REMARK    5  A    between atoms: C_15  and  C_35
REMARK    6  A    between atoms: C_17  and  O_34
REMARK    7  A    between atoms: C_18  and  C_21
REMARK    8  A    between atoms: C_21  and  N_22
REMARK    9  A    between atoms: C_26  and  C_29
REMARK   10  A    between atoms: C_29  and  O_31
REMARK   11  A    between atoms: O_31  and  C_32
REMARK   12  A    between atoms: C_32  and  C_33
REMARK                            x       y       z     vdW  Elec       q    Type
REMARK                         _______ _______ _______ _____ _____    ______ ____
ROOT
ATOM      1  C   UNL     1       1.985  -1.435  -3.481  0.00  0.00    +0.061 C 
ATOM      2  C   UNL     1       2.695  -1.943  -4.521  0.00  0.00    +0.176 C 
ATOM      3  C   UNL     1       3.408  -1.169  -5.547  0.00  0.00    +0.232 C 
ATOM      4  O   UNL     1       3.488   0.043  -5.646  0.00  0.00    -0.283 OA
ATOM      5  C   UNL     1       4.006  -2.187  -6.430  0.00  0.00    +0.071 A 
ATOM      6  C   UNL     1       4.796  -2.110  -7.578  0.00  0.00    -0.033 A 
ATOM      7  C   UNL     1       5.210  -3.255  -8.197  0.00  0.00    +0.050 A 
ATOM      8  C   UNL     1       4.846  -4.498  -7.685  0.00  0.00    +0.122 A 
ATOM      9  C   UNL     1       4.062  -4.590  -6.547  0.00  0.00    +0.020 A 
ATOM     10  C   UNL     1       3.633  -3.435  -5.904  0.00  0.00    +0.145 A 
ATOM     11  O   UNL     1       2.880  -3.256  -4.797  0.00  0.00    -0.451 OA
ATOM     12  C   UNL     1       5.190  -0.766  -8.133  0.00  0.00    +0.045 C 
ENDROOT
BRANCH   1  18
ATOM     13  C   UNL     1       1.022  -1.826  -1.218  0.00  0.00    +0.128 A 
ATOM     14  C   UNL     1       0.493  -2.684  -0.267  0.00  0.00    +0.046 A 
ATOM     15  C   UNL     1       0.371  -4.032  -0.542  0.00  0.00    +0.004 A 
ATOM     16  C   UNL     1       0.775  -4.539  -1.767  0.00  0.00    +0.001 A 
ATOM     17  C   UNL     1       1.304  -3.703  -2.725  0.00  0.00    +0.011 A 
ATOM     18  C   UNL     1       1.428  -2.333  -2.464  0.00  0.00    +0.020 A 
BRANCH  13  19
ATOM     19  O   UNL     1       1.142  -0.501  -0.950  0.00  0.00    -0.492 OA
BRANCH  19  21
ATOM     20  C   UNL     1       0.919   1.452   0.456  0.00  0.00    +0.048 C 
ATOM     21  C   UNL     1       0.708  -0.058   0.338  0.00  0.00    +0.226 C 
ENDBRANCH  19  21
ENDBRANCH  13  19
ENDBRANCH   1  18
BRANCH   8  22
ATOM     22  O   UNL     1       5.262  -5.630  -8.308  0.00  0.00    -0.506 OA
ATOM     23  H   UNL     1       6.111  -5.966  -7.988  0.00  0.00    +0.292 HD
ENDBRANCH   8  22
BRANCH   9  24
ATOM     24  C   UNL     1       3.675  -5.941  -6.005  0.00  0.00    -0.036 C 
BRANCH  24  25
ATOM     25  N   UNL     1       4.690  -6.393  -5.045  0.00  0.00    +0.383 N 
ATOM     26  C   UNL     1       4.702  -5.491  -3.887  0.00  0.00    -0.078 C 
ATOM     27  C   UNL     1       5.812  -5.909  -2.921  0.00  0.00    -0.018 C 
ATOM     28  C   UNL     1       5.557  -7.343  -2.449  0.00  0.00    +0.011 C 
ATOM     29  C   UNL     1       5.473  -8.264  -3.670  0.00  0.00    +0.081 C 
ATOM     30  C   UNL     1       4.375  -7.759  -4.608  0.00  0.00    -0.064 C 
ATOM     31  H   UNL     1       5.597  -6.383  -5.486  0.00  0.00    -0.081 HD
BRANCH  29  32
ATOM     32  C   UNL     1       5.147  -9.666  -3.221  0.00  0.00    +0.308 C 
ATOM     33  O   UNL     1       4.141 -10.207  -3.615  0.00  0.00    -0.251 OA
BRANCH  32  34
ATOM     34  O   UNL     1       5.974 -10.312  -2.385  0.00  0.00    -0.465 OA
BRANCH  34  35
ATOM     35  C   UNL     1       5.603 -11.638  -2.001  0.00  0.00    +0.229 C 
ATOM     36  C   UNL     1       6.658 -12.209  -1.052  0.00  0.00    +0.048 C 
ENDBRANCH  34  35
ENDBRANCH  32  34
ENDBRANCH  29  32
ENDBRANCH  24  25
ENDBRANCH   9  24
TORSDOF 9
