REMARK  Name = ZINC39933327
REMARK  7 active torsions:
REMARK  status: ('A' for Active; 'I' for Inactive)
REMARK    1  A    between atoms: C_1  and  C_2
REMARK    2  A    between atoms: C_5  and  C_8
REMARK    3  A    between atoms: C_8  and  N_9
REMARK    4  A    between atoms: C_10  and  C_35
REMARK    5  A    between atoms: C_12  and  C_16
REMARK    6  A    between atoms: C_13  and  C_15
REMARK    7  A    between atoms: C_21  and  N_24
REMARK                            x       y       z     vdW  Elec       q    Type
REMARK                         _______ _______ _______ _____ _____    ______ ____
ROOT
ATOM      1  C   UNL     1       2.348  -7.997  -2.076  0.00  0.00    +0.246 C 
ATOM      2  O   UNL     1       2.925  -8.076  -3.145  0.00  0.00    -0.270 OA
ATOM      3  N   UNL     1       1.861  -9.108  -1.489  0.00  0.00    -0.298 N 
ATOM      4  C   UNL     1       1.058  -9.017  -0.262  0.00  0.00    +0.110 C 
ATOM      5  C   UNL     1      -0.266  -9.755  -0.482  0.00  0.00    +0.044 C 
ATOM      6  C   UNL     1       0.023 -11.187  -0.939  0.00  0.00    +0.095 C 
ATOM      7  C   UNL     1       0.786 -11.157  -2.265  0.00  0.00    +0.044 C 
ATOM      8  C   UNL     1       2.117 -10.434  -2.069  0.00  0.00    +0.110 C 
ENDROOT
BRANCH   6   9
ATOM      9  N   UNL     1      -1.240 -11.906  -1.119  0.00  0.00    -0.289 N 
ATOM     10  C   UNL     1      -1.627 -13.057  -0.436  0.00  0.00    +0.070 A 
ATOM     11  C   UNL     1      -1.022 -13.834   0.540  0.00  0.00    +0.028 A 
ATOM     12  C   UNL     1      -1.673 -14.946   1.036  0.00  0.00    +0.002 A 
ATOM     13  C   UNL     1      -2.928 -15.289   0.562  0.00  0.00    +0.002 A 
ATOM     14  C   UNL     1      -3.539 -14.522  -0.410  0.00  0.00    +0.028 A 
ATOM     15  C   UNL     1      -2.893 -13.403  -0.913  0.00  0.00    +0.067 A 
ATOM     16  N   UNL     1      -3.236 -12.452  -1.871  0.00  0.00    -0.306 N 
ATOM     17  H   UNL     1      -4.062 -12.430  -2.379  0.00  0.00    +0.170 HD
ATOM     18  C   UNL     1      -2.228 -11.565  -1.968  0.00  0.00    +0.328 A 
ATOM     19  O   UNL     1      -2.210 -10.602  -2.712  0.00  0.00    -0.247 OA
ENDBRANCH   6   9
BRANCH   1  22
ATOM     20  N   UNL     1       1.451  -4.585  -0.837  0.00  0.00    -0.218 NA
ATOM     21  C   UNL     1       1.169  -5.673  -1.794  0.00  0.00    +0.110 C 
ATOM     22  C   UNL     1       2.189  -6.739  -1.449  0.00  0.00    +0.050 C 
ATOM     23  C   UNL     1       2.914  -6.248  -0.424  0.00  0.00    +0.026 C 
ATOM     24  N   UNL     1       2.495  -5.008  -0.066  0.00  0.00    -0.281 N 
ATOM     25  C   UNL     1       4.049  -6.985   0.240  0.00  0.00    +0.062 C 
ATOM     26  C   UNL     1      -0.252  -6.204  -1.600  0.00  0.00    +0.031 C 
ATOM     27  H   UNL     1       2.889  -4.485   0.650  0.00  0.00    +0.166 HD
BRANCH  20  28
ATOM     28  C   UNL     1       1.785  -3.339  -1.539  0.00  0.00    +0.141 C 
BRANCH  28  33
ATOM     29  C   UNL     1       2.573   0.895   2.314  0.00  0.00    +0.044 C 
ATOM     30  C   UNL     1       2.368  -0.209   1.309  0.00  0.00    -0.050 A 
ATOM     31  C   UNL     1       3.436  -0.992   0.914  0.00  0.00    +0.003 A 
ATOM     32  C   UNL     1       3.248  -2.005  -0.007  0.00  0.00    +0.005 A 
ATOM     33  C   UNL     1       1.991  -2.236  -0.533  0.00  0.00    -0.032 A 
ATOM     34  C   UNL     1       0.922  -1.454  -0.138  0.00  0.00    +0.005 A 
ATOM     35  C   UNL     1       1.109  -0.443   0.787  0.00  0.00    +0.003 A 
ENDBRANCH  28  33
ENDBRANCH  20  28
ENDBRANCH   1  22
TORSDOF 4
