REMARK  Name = ZINC04177803
REMARK  9 active torsions:
REMARK  status: ('A' for Active; 'I' for Inactive)
REMARK    1  A    between atoms: C_1  and  C_2
REMARK    2  A    between atoms: C_2  and  C_32
REMARK    3  A    between atoms: C_5  and  C_29
REMARK    4  A    between atoms: C_6  and  N_12
REMARK    5  A    between atoms: C_9  and  C_10
REMARK    6  A    between atoms: C_9  and  C_11
REMARK    7  A    between atoms: C_13  and  C_15
REMARK    8  A    between atoms: C_18  and  S_21
REMARK    9  A    between atoms: S_21  and  N_24
REMARK                            x       y       z     vdW  Elec       q    Type
REMARK                         _______ _______ _______ _____ _____    ______ ____
ROOT
ATOM      1  C   UNL     1      -3.704  -0.573   0.719  0.00  0.00    -0.010 C 
ATOM      2  C   UNL     1      -2.329   0.117   0.794  0.00  0.00    -0.069 C 
ATOM      3  C   UNL     1      -1.326  -0.748   0.022  0.00  0.00    +0.024 C 
ATOM      4  C   UNL     1       0.002  -0.004   0.002  0.00  0.00    -0.026 A 
ATOM      5  C   UNL     1       1.316  -0.610  -0.020  0.00  0.00    +0.068 A 
ATOM      6  C   UNL     1       2.413   0.244  -0.025  0.00  0.00    +0.085 A 
ATOM      7  S   UNL     1       1.690   1.819  -0.004  0.00  0.00    -0.079 S 
ATOM      8  C   UNL     1      -0.016   1.349   0.009  0.00  0.00    -0.016 A 
ATOM      9  C   UNL     1      -1.229   2.222   0.018  0.00  0.00    -0.041 C 
ATOM     10  C   UNL     1      -1.077   3.291   1.110  0.00  0.00    -0.005 C 
ATOM     11  C   UNL     1      -1.319   2.940  -1.341  0.00  0.00    -0.005 C 
ATOM     12  C   UNL     1      -1.913   0.179   2.267  0.00  0.00    -0.010 C 
ATOM     13  N   UNL     1      -2.504   1.475   0.216  0.00  0.00    +0.389 N 
ATOM     14  H   UNL     1      -3.103   2.020   0.848  0.00  0.00    -0.084 HD
ATOM     15  H   UNL     1      -2.967   1.379  -0.696  0.00  0.00    -0.084 HD
ENDROOT
BRANCH   5  16
ATOM     16  C   UNL     1       1.497  -2.065  -0.038  0.00  0.00    +0.244 C 
ATOM     17  O   UNL     1       1.560  -2.657  -1.100  0.00  0.00    -0.270 OA
ATOM     18  N   UNL     1       1.593  -2.747   1.120  0.00  0.00    -0.325 N 
ATOM     19  H   UNL     1       1.543  -2.275   1.966  0.00  0.00    +0.145 HD
ATOM     20  H   UNL     1       1.713  -3.709   1.108  0.00  0.00    +0.145 HD
ENDBRANCH   5  16
BRANCH   6  21
ATOM     21  N   UNL     1       3.758  -0.086  -0.043  0.00  0.00    -0.275 N 
ATOM     22  C   UNL     1       4.691   0.887  -0.046  0.00  0.00    +0.249 C 
ATOM     23  O   UNL     1       4.351   2.055  -0.032  0.00  0.00    -0.270 OA
ATOM     24  H   UNL     1       4.029  -1.017  -0.055  0.00  0.00    +0.156 HD
BRANCH  22  25
ATOM     25  C   UNL     1       6.126   0.536  -0.065  0.00  0.00    +0.037 A 
ATOM     26  C   UNL     1       6.519  -0.804  -0.075  0.00  0.00    +0.015 A 
ATOM     27  C   UNL     1       7.861  -1.125  -0.098  0.00  0.00    +0.029 A 
ATOM     28  C   UNL     1       8.816  -0.124  -0.101  0.00  0.00    +0.106 A 
ATOM     29  C   UNL     1       8.432   1.206  -0.085  0.00  0.00    +0.029 A 
ATOM     30  C   UNL     1       7.095   1.541  -0.067  0.00  0.00    +0.015 A 
BRANCH  28  31
ATOM     31  S   UNL     1      10.527  -0.543  -0.123  0.00  0.00    +0.061 S 
ATOM     32  O   UNL     1      10.618  -1.845  -0.686  0.00  0.00    -0.153 OA
ATOM     33  O   UNL     1      11.212   0.574  -0.673  0.00  0.00    -0.153 OA
BRANCH  31  34
ATOM     34  N   UNL     1      11.020  -0.673   1.452  0.00  0.00    -0.177 NA
ATOM     35  C   UNL     1      11.566   0.418   2.272  0.00  0.00    +0.109 C 
ATOM     36  C   UNL     1      11.906  -0.174   3.655  0.00  0.00    +0.018 C 
ATOM     37  C   UNL     1      12.069  -1.687   3.353  0.00  0.00    +0.018 C 
ATOM     38  C   UNL     1      10.990  -1.904   2.263  0.00  0.00    +0.109 C 
ENDBRANCH  31  34
ENDBRANCH  28  31
ENDBRANCH  22  25
ENDBRANCH   6  21
TORSDOF 5
