REMARK  Name = ZINC27376995
REMARK  7 active torsions:
REMARK  status: ('A' for Active; 'I' for Inactive)
REMARK    1  A    between atoms: C_7  and  C_9
REMARK    2  A    between atoms: C_9  and  N_10
REMARK    3  A    between atoms: N_13  and  C_16
REMARK    4  A    between atoms: C_16  and  C_17
REMARK    5  A    between atoms: N_22  and  C_23
REMARK    6  A    between atoms: C_23  and  C_24
REMARK    7  A    between atoms: C_24  and  C_25
REMARK                            x       y       z     vdW  Elec       q    Type
REMARK                         _______ _______ _______ _____ _____    ______ ____
ROOT
ATOM      1  C   UNL     1      -0.947  -6.327  -0.968  0.00  0.00    +0.180 C 
ENDROOT
BRANCH   1   2
ATOM      2  C   UNL     1      -0.529  -6.746  -2.354  0.00  0.00    +0.234 C 
ATOM      3  O   UNL     1      -0.476  -5.926  -3.245  0.00  0.00    -0.274 OA
ATOM      4  N   UNL     1      -0.214  -8.033  -2.604  0.00  0.00    -0.239 N 
ATOM      5  C   UNL     1       0.160  -8.407  -3.843  0.00  0.00    +0.306 C 
ATOM      6  O   UNL     1       0.212  -7.585  -4.737  0.00  0.00    -0.252 OA
ATOM      7  N   UNL     1       0.475  -9.694  -4.092  0.00  0.00    -0.299 N 
ATOM      8  H   UNL     1      -0.262  -8.777  -1.795  0.00  0.00    +0.159 HD
ATOM      9  H   UNL     1       0.427 -10.438  -3.284  0.00  0.00    +0.150 HD
BRANCH   7  10
ATOM     10  C   UNL     1       0.881 -10.101  -5.440  0.00  0.00    +0.110 C 
BRANCH  10  11
ATOM     11  C   UNL     1       1.181 -11.601  -5.451  0.00  0.00    +0.049 C 
BRANCH  11  12
ATOM     12  C   UNL     1       1.598 -12.020  -6.837  0.00  0.00    -0.072 C 
ATOM     13  C   UNL     1       2.865 -12.067  -7.101  0.00  0.00    -0.028 C 
ATOM     14  C   UNL     1       3.431 -12.455  -8.435  0.00  0.00    +0.027 C 
ATOM     15  C   UNL     1       2.370 -13.176  -9.269  0.00  0.00    +0.004 C 
ATOM     16  C   UNL     1       1.085 -12.340  -9.247  0.00  0.00    +0.005 C 
ATOM     17  C   UNL     1       0.520 -12.362  -7.823  0.00  0.00    +0.030 C 
ENDBRANCH  11  12
ENDBRANCH  10  11
ENDBRANCH   7  10
ENDBRANCH   1   2
BRANCH   1  21
ATOM     18  N   UNL     1      -1.005  -2.216  -0.000  0.00  0.00    +0.387 N 
ATOM     19  C   UNL     1      -0.370  -2.617  -1.264  0.00  0.00    -0.063 C 
ATOM     20  C   UNL     1      -0.015  -4.104  -1.204  0.00  0.00    +0.066 C 
ATOM     21  N   UNL     1      -1.235  -4.887  -0.958  0.00  0.00    -0.298 NA
ATOM     22  C   UNL     1      -1.869  -4.486   0.306  0.00  0.00    +0.066 C 
ATOM     23  C   UNL     1      -2.224  -2.998   0.245  0.00  0.00    -0.063 C 
ATOM     24  H   UNL     1      -0.297  -2.424   0.816  0.00  0.00    -0.081 HD
BRANCH  18  25
ATOM     25  C   UNL     1      -1.293  -0.775   0.010  0.00  0.00    +0.019 C 
BRANCH  25  32
ATOM     26  C   UNL     1      -0.042   3.956   1.094  0.00  0.00    +0.003 C 
ATOM     27  C   UNL     1       1.221   3.095   1.174  0.00  0.00    +0.019 C 
ATOM     28  C   UNL     1       1.238   2.109   0.002  0.00  0.00    +0.107 C 
ATOM     29  N   UNL     1      -0.016   1.344   0.009  0.00  0.00    -0.303 N 
ATOM     30  C   UNL     1      -1.290   2.075   0.019  0.00  0.00    +0.107 C 
ATOM     31  C   UNL     1      -1.279   3.061   1.198  0.00  0.00    +0.019 C 
ATOM     32  C   UNL     1       0.002  -0.004   0.002  0.00  0.00    +0.199 C 
ATOM     33  O   UNL     1       1.060  -0.596  -0.011  0.00  0.00    -0.278 OA
ENDBRANCH  25  32
ENDBRANCH  18  25
ENDBRANCH   1  21
TORSDOF 7
