REMARK  Name = ZINC17907663
REMARK  7 active torsions:
REMARK  status: ('A' for Active; 'I' for Inactive)
REMARK    1  A    between atoms: C_1  and  C_2
REMARK    2  A    between atoms: C_2  and  C_4
REMARK    3  A    between atoms: C_2  and  N_11
REMARK    4  A    between atoms: C_12  and  C_14
REMARK    5  A    between atoms: C_17  and  N_20
REMARK    6  A    between atoms: N_20  and  S_21
REMARK    7  A    between atoms: S_21  and  C_24
REMARK                            x       y       z     vdW  Elec       q    Type
REMARK                         _______ _______ _______ _____ _____    ______ ____
ROOT
ATOM      1  C   UNL     1      -0.122   4.152  -0.045  0.00  0.00    +0.037 A 
ATOM      2  C   UNL     1       1.107   3.488  -0.110  0.00  0.00    +0.015 A 
ATOM      3  C   UNL     1       1.145   2.113  -0.095  0.00  0.00    +0.025 A 
ATOM      4  C   UNL     1      -0.037   1.383  -0.014  0.00  0.00    +0.048 A 
ATOM      5  C   UNL     1      -1.263   2.041   0.045  0.00  0.00    +0.025 A 
ATOM      6  C   UNL     1      -1.308   3.416   0.035  0.00  0.00    +0.015 A 
ENDROOT
BRANCH   1   8
ATOM      7  N   UNL     1      -1.352   6.266   0.001  0.00  0.00    -0.305 N 
ATOM      8  C   UNL     1      -0.167   5.627  -0.061  0.00  0.00    +0.245 C 
ATOM      9  O   UNL     1       0.865   6.266  -0.131  0.00  0.00    -0.270 OA
ATOM     10  H   UNL     1      -2.175   5.756   0.057  0.00  0.00    +0.150 HD
BRANCH   7  12
ATOM     11  C   UNL     1      -1.201   8.261   1.407  0.00  0.00    +0.033 C 
ATOM     12  C   UNL     1      -1.397   7.730  -0.015  0.00  0.00    +0.102 C 
BRANCH  12  13
ATOM     13  C   UNL     1      -2.732   8.186  -0.543  0.00  0.00    -0.009 A 
ATOM     14  C   UNL     1      -3.836   7.361  -0.436  0.00  0.00    +0.007 A 
ATOM     15  C   UNL     1      -5.061   7.779  -0.921  0.00  0.00    +0.000 A 
ATOM     16  C   UNL     1      -5.184   9.023  -1.511  0.00  0.00    +0.001 A 
ATOM     17  C   UNL     1      -4.081   9.849  -1.618  0.00  0.00    +0.020 A 
ATOM     18  C   UNL     1      -2.855   9.433  -1.129  0.00  0.00    +0.046 A 
ATOM     19 CL   UNL     1      -1.471  10.473  -1.256  0.00  0.00    -0.083 Cl
ENDBRANCH  12  13
ENDBRANCH   7  12
ENDBRANCH   1   8
BRANCH   4  20
ATOM     20  N   UNL     1       0.005  -0.007   0.002  0.00  0.00    -0.216 N 
ATOM     21  H   UNL     1       0.563  -0.483  -0.633  0.00  0.00    +0.174 HD
BRANCH  20  22
ATOM     22  S   UNL     1      -0.898  -0.850   1.105  0.00  0.00    +0.072 S 
ATOM     23  O   UNL     1      -2.231  -0.372   0.989  0.00  0.00    -0.150 OA
ATOM     24  O   UNL     1      -0.563  -2.222   0.940  0.00  0.00    -0.150 OA
BRANCH  22  25
ATOM     25  C   UNL     1      -0.333  -0.383   2.707  0.00  0.00    +0.111 A 
ATOM     26  C   UNL     1      -0.985   0.621   3.402  0.00  0.00    +0.031 A 
ATOM     27  C   UNL     1      -0.549   0.994   4.658  0.00  0.00    +0.030 A 
ATOM     28  C   UNL     1       0.545   0.360   5.226  0.00  0.00    +0.067 A 
ATOM     29  C   UNL     1       1.202  -0.653   4.525  0.00  0.00    +0.069 A 
ATOM     30  C   UNL     1       0.755  -1.024   3.266  0.00  0.00    +0.056 A 
ATOM     31  N   UNL     1       2.245  -1.093   5.337  0.00  0.00    -0.306 N 
ATOM     32  H   UNL     1       2.880  -1.793   5.117  0.00  0.00    +0.170 HD
ATOM     33  C   UNL     1       2.223  -0.380   6.479  0.00  0.00    +0.325 A 
ATOM     34  O   UNL     1       3.002  -0.515   7.405  0.00  0.00    -0.247 OA
ATOM     35  N   UNL     1       1.209   0.504   6.442  0.00  0.00    -0.306 N 
ATOM     36  H   UNL     1       0.980   1.135   7.143  0.00  0.00    +0.170 HD
ENDBRANCH  22  25
ENDBRANCH  20  22
ENDBRANCH   4  20
TORSDOF 6
