REMARK  Name = ZINC66893202
REMARK  5 active torsions:
REMARK  status: ('A' for Active; 'I' for Inactive)
REMARK    1  A    between atoms: C_1  and  C_2
REMARK    2  A    between atoms: C_8  and  N_10
REMARK    3  A    between atoms: C_14  and  C_16
REMARK    4  A    between atoms: C_16  and  N_17
REMARK    5  A    between atoms: C_22  and  C_24
REMARK                            x       y       z     vdW  Elec       q    Type
REMARK                         _______ _______ _______ _____ _____    ______ ____
ROOT
ATOM      1  C   UNL     1       0.077   1.153   7.105  0.00  0.00    +0.020 C 
ENDROOT
BRANCH   1   6
ATOM      2  N   UNL     1      -0.067  -0.377   2.550  0.00  0.00    -0.296 N 
ATOM      3  C   UNL     1       0.625  -0.222   3.696  0.00  0.00    +0.306 C 
ATOM      4  O   UNL     1       1.778  -0.600   3.765  0.00  0.00    -0.252 OA
ATOM      5  N   UNL     1       0.040   0.354   4.764  0.00  0.00    -0.242 N 
ATOM      6  C   UNL     1       0.732   0.509   5.910  0.00  0.00    +0.204 C 
ATOM      7  O   UNL     1       1.882   0.132   5.979  0.00  0.00    -0.277 OA
ATOM      8  H   UNL     1      -0.988  -0.075   2.494  0.00  0.00    +0.151 HD
ATOM      9  H   UNL     1      -0.881   0.656   4.709  0.00  0.00    +0.159 HD
BRANCH   2  16
ATOM     10  C   UNL     1       0.001   0.996   0.001  0.00  0.00    +0.009 C 
ATOM     11  C   UNL     1      -0.122  -0.525   0.109  0.00  0.00    +0.006 C 
ATOM     12  C   UNL     1      -1.601  -0.916   0.152  0.00  0.00    +0.005 C 
ATOM     13  C   UNL     1      -1.723  -2.437   0.261  0.00  0.00    +0.000 C 
ATOM     14  C   UNL     1      -1.032  -2.914   1.540  0.00  0.00    +0.002 C 
ATOM     15  C   UNL     1       0.447  -2.524   1.497  0.00  0.00    +0.022 C 
ATOM     16  C   UNL     1       0.569  -1.002   1.388  0.00  0.00    +0.077 C 
ENDBRANCH   2  16
ENDBRANCH   1   6
BRANCH   1  17
ATOM     17  N   UNL     1       1.034   1.205   8.219  0.00  0.00    +0.393 N 
ATOM     18  C   UNL     1       2.129   2.121   7.878  0.00  0.00    -0.077 C 
ATOM     19  C   UNL     1       3.169   2.117   9.001  0.00  0.00    -0.019 C 
ATOM     20  C   UNL     1       2.507   2.572  10.304  0.00  0.00    -0.003 C 
ATOM     21  C   UNL     1       1.321   1.654  10.610  0.00  0.00    -0.006 C 
ATOM     22  C   UNL     1       0.349   1.675   9.429  0.00  0.00    +0.020 C 
ATOM     23  H   UNL     1       1.408   0.282   8.383  0.00  0.00    -0.080 HD
BRANCH  22  24
ATOM     24  C   UNL     1      -0.821   0.773   9.725  0.00  0.00    +0.202 C 
ATOM     25  O   UNL     1      -0.818  -0.374   9.331  0.00  0.00    -0.277 OA
ATOM     26  N   UNL     1      -1.871   1.241  10.429  0.00  0.00    -0.298 N 
ATOM     27  C   UNL     1      -1.951   2.658  10.819  0.00  0.00    +0.136 C 
ATOM     28  C   UNL     1      -3.325   3.196  10.405  0.00  0.00    +0.179 C 
ATOM     29  O   UNL     1      -4.344   2.337  10.922  0.00  0.00    -0.377 OA
ATOM     30  C   UNL     1      -4.296   1.001  10.415  0.00  0.00    +0.179 C 
ATOM     31  C   UNL     1      -2.975   0.351  10.825  0.00  0.00    +0.136 C 
ENDBRANCH  22  24
ENDBRANCH   1  17
TORSDOF 4
