REMARK  Name = ZINC48430552
REMARK  4 active torsions:
REMARK  status: ('A' for Active; 'I' for Inactive)
REMARK    1  A    between atoms: C_2  and  C_11
REMARK    2  A    between atoms: N_13  and  C_14
REMARK    3  A    between atoms: C_14  and  C_15
REMARK    4  A    between atoms: C_14  and  C_18
REMARK                            x       y       z     vdW  Elec       q    Type
REMARK                         _______ _______ _______ _____ _____    ______ ____
ROOT
ATOM      1  C   UNL     1       0.215   4.581   0.119  0.00  0.00    +0.245 C 
ATOM      2  O   UNL     1      -0.339   5.657   0.002  0.00  0.00    -0.270 OA
ATOM      3  N   UNL     1       1.561   4.519   0.169  0.00  0.00    -0.293 N 
ATOM      4  H   UNL     1       2.003   3.660   0.263  0.00  0.00    +0.150 HD
ENDROOT
BRANCH   1   6
ATOM      5  C   UNL     1      -1.980   3.408   0.154  0.00  0.00    +0.062 A 
ATOM      6  C   UNL     1      -0.585   3.344   0.206  0.00  0.00    +0.042 A 
ATOM      7  C   UNL     1       0.050   2.107   0.340  0.00  0.00    +0.037 A 
ATOM      8  C   UNL     1      -0.700   0.953   0.420  0.00  0.00    +0.087 A 
ATOM      9  C   UNL     1      -2.086   1.015   0.368  0.00  0.00    +0.184 A 
ATOM     10  C   UNL     1      -2.726   2.248   0.235  0.00  0.00    +0.168 A 
ATOM     11  O   UNL     1      -4.075   2.038   0.208  0.00  0.00    -0.453 OA
ATOM     12  C   UNL     1      -4.240   0.638  -0.084  0.00  0.00    +0.466 C 
ATOM     13  O   UNL     1      -3.035   0.037   0.426  0.00  0.00    -0.451 OA
ATOM     14 CL   UNL     1       0.092  -0.583   0.586  0.00  0.00    -0.080 Cl
ENDBRANCH   1   6
BRANCH   3  15
ATOM     15  C   UNL     1       2.355   5.746   0.083  0.00  0.00    +0.245 C 
BRANCH  15  16
ATOM     16  C   UNL     1       3.689   5.530   0.751  0.00  0.00    +0.240 C 
ATOM     17  O   UNL     1       4.156   4.413   0.823  0.00  0.00    -0.273 OA
ATOM     18  N   UNL     1       4.362   6.577   1.267  0.00  0.00    -0.327 N 
ATOM     19  H   UNL     1       3.957   7.458   1.274  0.00  0.00    +0.145 HD
ATOM     20  H   UNL     1       5.252   6.449   1.632  0.00  0.00    +0.145 HD
ENDBRANCH  15  16
BRANCH  15  21
ATOM     21  C   UNL     1       2.570   6.105  -1.365  0.00  0.00    +0.240 C 
ATOM     22  O   UNL     1       2.512   5.245  -2.217  0.00  0.00    -0.273 OA
ATOM     23  N   UNL     1       2.827   7.382  -1.711  0.00  0.00    -0.327 N 
ATOM     24  H   UNL     1       2.803   8.081  -1.040  0.00  0.00    +0.145 HD
ATOM     25  H   UNL     1       3.035   7.602  -2.633  0.00  0.00    +0.145 HD
ENDBRANCH  15  21
ENDBRANCH   3  15
TORSDOF 4
