REMARK  Name = ZINC00720218
REMARK  8 active torsions:
REMARK  status: ('A' for Active; 'I' for Inactive)
REMARK    1  A    between atoms: C_1  and  O_2
REMARK    2  A    between atoms: O_2  and  C_3
REMARK    3  A    between atoms: C_6  and  C_11
REMARK    4  A    between atoms: C_8  and  O_9
REMARK    5  A    between atoms: O_9  and  C_10
REMARK    6  A    between atoms: C_13  and  C_32
REMARK    7  A    between atoms: C_14  and  N_31
REMARK    8  A    between atoms: N_15  and  C_23
REMARK                            x       y       z     vdW  Elec       q    Type
REMARK                         _______ _______ _______ _____ _____    ______ ____
ROOT
ATOM      1  C   UNL     1       0.287   6.176   0.029  0.00  0.00    +0.097 C 
ATOM      2  C   UNL     1       0.759   5.461   1.260  0.00  0.00    +0.077 C 
ATOM      3  C   UNL     1       1.168   4.167   1.208  0.00  0.00    +0.107 C 
ATOM      4  N   UNL     1       1.164   3.490   0.009  0.00  0.00    -0.255 N 
ATOM      5  C   UNL     1       1.151   4.176  -1.177  0.00  0.00    +0.025 C 
ATOM      6  C   UNL     1       0.735   5.461  -1.222  0.00  0.00    +0.025 C 
ATOM      7  C   UNL     1       0.709   6.172  -2.434  0.00  0.00    +0.162 C 
ATOM      8  O   UNL     1       0.345   7.331  -2.438  0.00  0.00    -0.292 OA
ATOM      9  C   UNL     1       1.122   5.523  -3.727  0.00  0.00    +0.080 C 
ATOM     10  C   UNL     1       0.852   4.017  -3.638  0.00  0.00    +0.014 C 
ATOM     11  C   UNL     1       1.601   3.462  -2.425  0.00  0.00    +0.052 C 
ENDROOT
BRANCH   4  12
ATOM     12  C   UNL     1       1.179   2.089   0.002  0.00  0.00    +0.110 A 
ATOM     13  C   UNL     1      -0.017   1.379   0.010  0.00  0.00    +0.148 A 
ATOM     14  C   UNL     1       0.002  -0.004   0.002  0.00  0.00    +0.040 A 
ATOM     15  C   UNL     1       1.208  -0.681  -0.014  0.00  0.00    +0.006 A 
ATOM     16  C   UNL     1       2.399   0.021  -0.021  0.00  0.00    +0.040 A 
ATOM     17  C   UNL     1       2.389   1.405  -0.012  0.00  0.00    +0.148 A 
ATOM     18  F   UNL     1       3.553   2.090  -0.018  0.00  0.00    -0.203 F 
ATOM     19  F   UNL     1      -1.195   2.040   0.019  0.00  0.00    -0.203 F 
ENDBRANCH   4  12
BRANCH   1  23
ATOM     20  C   UNL     1      -3.985   6.367   0.072  0.00  0.00    +0.162 A 
ATOM     21  C   UNL     1      -3.344   5.139   0.081  0.00  0.00    +0.050 A 
ATOM     22  C   UNL     1      -1.963   5.080   0.061  0.00  0.00    +0.008 A 
ATOM     23  C   UNL     1      -1.219   6.245   0.044  0.00  0.00    -0.031 A 
ATOM     24  C   UNL     1      -1.852   7.474   0.035  0.00  0.00    +0.054 A 
ATOM     25  C   UNL     1      -3.236   7.540   0.049  0.00  0.00    +0.162 A 
BRANCH  20  27
ATOM     26  C   UNL     1      -6.047   5.183   0.110  0.00  0.00    +0.277 C 
ATOM     27  O   UNL     1      -5.344   6.426   0.086  0.00  0.00    -0.491 OA
ENDBRANCH  20  27
BRANCH  25  28
ATOM     28  O   UNL     1      -3.861   8.747   0.040  0.00  0.00    -0.491 OA
ATOM     29  C   UNL     1      -3.029   9.909   0.015  0.00  0.00    +0.277 C 
ENDBRANCH  25  28
ENDBRANCH   1  23
BRANCH   3  30
ATOM     30  N   UNL     1       1.587   3.533   2.353  0.00  0.00    -0.345 N 
ATOM     31  H   UNL     1       1.879   2.608   2.316  0.00  0.00    +0.144 HD
ATOM     32  H   UNL     1       1.590   4.009   3.198  0.00  0.00    +0.144 HD
ENDBRANCH   3  30
BRANCH   2  33
ATOM     33  C   UNL     1       0.777   6.155   2.513  0.00  0.00    +0.099 C 
ATOM     34  N   UNL     1       0.792   6.705   3.507  0.00  0.00    -0.191 NA
ENDBRANCH   2  33
TORSDOF 6
