REMARK  Name = ZINC36024520
REMARK  10 active torsions:
REMARK  status: ('A' for Active; 'I' for Inactive)
REMARK    1  A    between atoms: C_1  and  C_2
REMARK    2  A    between atoms: C_2  and  C_3
REMARK    3  A    between atoms: C_2  and  C_4
REMARK    4  A    between atoms: N_8  and  C_27
REMARK    5  A    between atoms: N_13  and  S_16
REMARK    6  A    between atoms: S_16  and  C_19
REMARK    7  A    between atoms: C_27  and  C_28
REMARK    8  A    between atoms: C_28  and  C_29
REMARK    9  A    between atoms: C_29  and  O_30
REMARK   10  A    between atoms: O_30  and  C_31
REMARK                            x       y       z     vdW  Elec       q    Type
REMARK                         _______ _______ _______ _____ _____    ______ ____
ROOT
ATOM      1  C   UNL     1      -1.511  -1.163   0.134  0.00  0.00    +0.022 C 
ATOM      2  C   UNL     1      -2.142  -0.498  -1.069  0.00  0.00    +0.201 C 
ATOM      3  O   UNL     1      -1.990   0.658  -1.401  0.00  0.00    -0.277 OA
ATOM      4  N   UNL     1      -2.904  -1.409  -1.711  0.00  0.00    -0.314 N 
ATOM      5  C   UNL     1      -2.837  -2.689  -1.002  0.00  0.00    +0.006 C 
ATOM      6  N   UNL     1      -1.654  -2.618  -0.116  0.00  0.00    +0.401 N 
ATOM      7  C   UNL     1      -4.096  -2.893  -0.162  0.00  0.00    +0.023 C 
ATOM      8  C   UNL     1      -5.321  -2.925  -1.082  0.00  0.00    +0.109 C 
ATOM      9  N   UNL     1      -5.106  -3.943  -2.119  0.00  0.00    -0.177 NA
ATOM     10  C   UNL     1      -3.884  -3.877  -2.932  0.00  0.00    +0.109 C 
ATOM     11  C   UNL     1      -2.671  -3.836  -1.996  0.00  0.00    +0.023 C 
ATOM     12  H   UNL     1      -0.837  -2.981  -0.583  0.00  0.00    -0.082 HD
ATOM     13  H   UNL     1      -1.823  -3.113   0.747  0.00  0.00    -0.082 HD
ENDROOT
BRANCH   1  15
ATOM     14  C   UNL     1       0.092   0.725   0.457  0.00  0.00    +0.006 C 
ATOM     15  C   UNL     1      -0.032  -0.784   0.238  0.00  0.00    -0.023 C 
ATOM     16  C   UNL     1       0.603  -1.524   1.417  0.00  0.00    +0.006 C 
ENDBRANCH   1  15
BRANCH   9  17
ATOM     17  S   UNL     1      -6.219  -5.143  -2.368  0.00  0.00    +0.062 S 
ATOM     18  O   UNL     1      -5.524  -6.224  -2.974  0.00  0.00    -0.153 OA
ATOM     19  O   UNL     1      -6.939  -5.287  -1.151  0.00  0.00    -0.153 OA
BRANCH  17  20
ATOM     20  C   UNL     1      -7.367  -4.549  -3.565  0.00  0.00    +0.125 A 
ATOM     21  C   UNL     1      -7.459  -5.164  -4.800  0.00  0.00    +0.030 A 
ATOM     22  C   UNL     1      -8.360  -4.698  -5.740  0.00  0.00    +0.003 A 
ATOM     23  C   UNL     1      -9.169  -3.616  -5.446  0.00  0.00    +0.021 A 
ATOM     24  C   UNL     1      -9.078  -3.000  -4.211  0.00  0.00    +0.061 A 
ATOM     25  C   UNL     1      -8.181  -3.470  -3.268  0.00  0.00    +0.086 A 
ATOM     26 CL   UNL     1      -8.071  -2.702  -1.714  0.00  0.00    -0.080 Cl
ATOM     27 CL   UNL     1     -10.094  -1.642  -3.842  0.00  0.00    -0.082 Cl
ENDBRANCH  17  20
ENDBRANCH   9  17
BRANCH   4  28
ATOM     28  C   UNL     1      -3.677  -1.156  -2.929  0.00  0.00    +0.108 C 
BRANCH  28  29
ATOM     29  C   UNL     1      -2.798  -1.413  -4.155  0.00  0.00    +0.047 C 
BRANCH  29  30
ATOM     30  C   UNL     1      -3.641  -1.282  -5.425  0.00  0.00    +0.161 C 
BRANCH  30  31
ATOM     31  O   UNL     1      -2.820  -1.522  -6.569  0.00  0.00    -0.383 OA
ATOM     32  C   UNL     1      -3.514  -1.423  -7.814  0.00  0.00    +0.193 C 
ENDBRANCH  30  31
ENDBRANCH  29  30
ENDBRANCH  28  29
ENDBRANCH   4  28
TORSDOF 7
