REMARK  Name = ZINC22809826
REMARK  18 active torsions:
REMARK  status: ('A' for Active; 'I' for Inactive)
REMARK    1  A    between atoms: C_1  and  N_2
REMARK    2  A    between atoms: N_2  and  C_3
REMARK    3  A    between atoms: N_2  and  C_4
REMARK    4  A    between atoms: C_4  and  C_6
REMARK    5  A    between atoms: C_4  and  C_31
REMARK    6  A    between atoms: C_6  and  N_7
REMARK    7  A    between atoms: N_7  and  C_8
REMARK    8  A    between atoms: C_8  and  C_9
REMARK    9  A    between atoms: C_9  and  C_11
REMARK   10  A    between atoms: C_9  and  O_30
REMARK   11  A    between atoms: C_11  and  O_12
REMARK   12  A    between atoms: O_12  and  C_13
REMARK   13  A    between atoms: C_13  and  C_14
REMARK   14  A    between atoms: C_13  and  C_22
REMARK   15  A    between atoms: C_17  and  O_20
REMARK   16  A    between atoms: O_20  and  C_21
REMARK   17  A    between atoms: C_25  and  O_28
REMARK   18  A    between atoms: O_28  and  C_29
REMARK                            x       y       z     vdW  Elec       q    Type
REMARK                         _______ _______ _______ _____ _____    ______ ____
ROOT
ATOM      1  C   UNL     1      -2.120   3.600  -2.438  0.00  0.00    +0.123 C 
ENDROOT
BRANCH   1   2
ATOM      2  O   UNL     1      -0.719   3.805  -2.632  0.00  0.00    -0.391 OA
ATOM      3  H   UNL     1      -0.372   3.406  -3.442  0.00  0.00    +0.210 HD
ENDBRANCH   1   2
BRANCH   1   4
ATOM      4  C   UNL     1      -2.410   2.100  -2.363  0.00  0.00    -0.049 C 
BRANCH   4   5
ATOM      5  N   UNL     1      -1.765   1.535  -1.170  0.00  0.00    +0.380 N 
ATOM      6  H   UNL     1      -2.128   1.989  -0.345  0.00  0.00    -0.086 HD
ATOM      7  H   UNL     1      -0.769   1.682  -1.224  0.00  0.00    -0.086 HD
BRANCH   5   8
ATOM      8  C   UNL     1      -2.044   0.095  -1.098  0.00  0.00    -0.094 C 
BRANCH   8   9
ATOM      9  C   UNL     1      -1.264  -0.518   0.067  0.00  0.00    -0.056 C 
BRANCH   9  10
ATOM     10  C   UNL     1      -1.757   0.068   1.365  0.00  0.00    -0.063 A 
ATOM     11  C   UNL     1      -2.918  -0.410   1.943  0.00  0.00    +0.002 A 
ATOM     12  C   UNL     1      -3.370   0.128   3.134  0.00  0.00    +0.000 A 
ATOM     13  C   UNL     1      -2.661   1.143   3.747  0.00  0.00    +0.000 A 
ATOM     14  C   UNL     1      -1.499   1.621   3.169  0.00  0.00    +0.000 A 
ATOM     15  C   UNL     1      -1.045   1.080   1.981  0.00  0.00    +0.002 A 
ENDBRANCH   9  10
BRANCH   9  17
ATOM     16  C   UNL     1      -0.980  -2.546  -1.183  0.00  0.00    -0.096 C 
ATOM     17  N   UNL     1      -1.465  -1.973   0.080  0.00  0.00    +0.379 N 
ATOM     18  C   UNL     1      -0.721  -2.561   1.202  0.00  0.00    -0.096 C 
ATOM     19  H   UNL     1      -2.448  -2.176   0.185  0.00  0.00    -0.082 HD
ENDBRANCH   9  17
ENDBRANCH   8   9
ENDBRANCH   5   8
ENDBRANCH   4   5
ENDBRANCH   1   4
BRANCH   1  20
ATOM     20  C   UNL     1      -2.892   4.211  -3.609  0.00  0.00    +0.190 C 
BRANCH  20  21
ATOM     21  O   UNL     1      -2.714   5.629  -3.609  0.00  0.00    -0.365 OA
BRANCH  21  22
ATOM     22  C   UNL     1      -3.398   6.300  -4.668  0.00  0.00    +0.178 C 
BRANCH  22  23
ATOM     23  C   UNL     1      -3.780   7.687  -4.220  0.00  0.00    -0.014 A 
ATOM     24  C   UNL     1      -2.898   8.436  -3.463  0.00  0.00    +0.010 A 
ATOM     25  C   UNL     1      -3.246   9.707  -3.050  0.00  0.00    +0.046 A 
ATOM     26  C   UNL     1      -4.482  10.233  -3.396  0.00  0.00    +0.120 A 
ATOM     27  C   UNL     1      -5.366   9.480  -4.156  0.00  0.00    +0.046 A 
ATOM     28  C   UNL     1      -5.011   8.211  -4.570  0.00  0.00    +0.010 A 
BRANCH  26  29
ATOM     29  O   UNL     1      -4.828  11.484  -2.991  0.00  0.00    -0.495 OA
ATOM     30  C   UNL     1      -6.116  11.960  -3.384  0.00  0.00    +0.277 C 
ENDBRANCH  26  29
ENDBRANCH  22  23
BRANCH  22  31
ATOM     31  C   UNL     1      -2.494   6.393  -5.871  0.00  0.00    -0.014 A 
ATOM     32  C   UNL     1      -1.133   6.564  -5.700  0.00  0.00    +0.010 A 
ATOM     33  C   UNL     1      -0.303   6.649  -6.800  0.00  0.00    +0.046 A 
ATOM     34  C   UNL     1      -0.835   6.562  -8.078  0.00  0.00    +0.120 A 
ATOM     35  C   UNL     1      -2.202   6.390  -8.247  0.00  0.00    +0.046 A 
ATOM     36  C   UNL     1      -3.027   6.300  -7.143  0.00  0.00    +0.010 A 
BRANCH  34  37
ATOM     37  O   UNL     1      -0.021   6.646  -9.162  0.00  0.00    -0.495 OA
ATOM     38  C   UNL     1      -0.638   6.549 -10.447  0.00  0.00    +0.277 C 
ENDBRANCH  34  37
ENDBRANCH  22  31
ENDBRANCH  21  22
ENDBRANCH  20  21
ENDBRANCH   1  20
TORSDOF 14
