REMARK  Name = ZINC63530630
REMARK  7 active torsions:
REMARK  status: ('A' for Active; 'I' for Inactive)
REMARK    1  A    between atoms: C_1  and  C_2
REMARK    2  A    between atoms: C_6  and  C_22
REMARK    3  A    between atoms: C_8  and  S_14
REMARK    4  A    between atoms: S_14  and  C_15
REMARK    5  A    between atoms: N_24  and  C_25
REMARK    6  A    between atoms: C_25  and  C_26
REMARK    7  A    between atoms: C_26  and  C_27
REMARK                            x       y       z     vdW  Elec       q    Type
REMARK                         _______ _______ _______ _____ _____    ______ ____
ROOT
ATOM      1  C   UNL     1       1.364   1.579  -0.114  0.00  0.00    +0.044 C 
ATOM      2  C   UNL     1       1.065   0.102  -0.106  0.00  0.00    -0.049 C 
ATOM      3  C   UNL     1      -0.222  -0.293  -0.221  0.00  0.00    +0.027 C 
ATOM      4  C   UNL     1      -0.509  -1.686  -0.234  0.00  0.00    +0.045 C 
ATOM      5  N   UNL     1      -1.538  -2.403   0.063  0.00  0.00    -0.274 NA
ATOM      6  C   UNL     1      -1.253  -3.844  -0.009  0.00  0.00    +0.205 C 
ATOM      7  C   UNL     1       0.297  -3.945  -0.009  0.00  0.00    +0.097 C 
ATOM      8  C   UNL     1       0.650  -2.588  -0.629  0.00  0.00    +0.076 C 
ATOM      9  C   UNL     1       2.025  -2.142  -0.215  0.00  0.00    -0.016 C 
ATOM     10  C   UNL     1       2.180  -0.831   0.020  0.00  0.00    -0.000 C 
ENDROOT
BRANCH   6  11
ATOM     11  C   UNL     1      -1.827  -4.552   1.191  0.00  0.00    +0.239 C 
ATOM     12  O   UNL     1      -2.029  -3.939   2.218  0.00  0.00    -0.273 OA
ATOM     13  N   UNL     1      -2.116  -5.867   1.123  0.00  0.00    -0.313 N 
ATOM     14  H   UNL     1      -2.025  -6.341   0.281  0.00  0.00    +0.149 HD
BRANCH  13  15
ATOM     15  C   UNL     1      -2.566  -6.581   2.320  0.00  0.00    +0.108 C 
BRANCH  15  16
ATOM     16  C   UNL     1      -2.705  -8.071   2.004  0.00  0.00    +0.052 C 
BRANCH  16  17
ATOM     17  C   UNL     1      -3.283  -8.787   3.197  0.00  0.00    -0.040 C 
ATOM     18  C   UNL     1      -4.584  -9.086   3.414  0.00  0.00    -0.001 A 
ATOM     19  C   UNL     1      -5.804  -8.844   2.634  0.00  0.00    +0.010 A 
ATOM     20  C   UNL     1      -6.990  -9.271   3.122  0.00  0.00    +0.001 A 
ATOM     21  C   UNL     1      -7.085  -9.937   4.351  0.00  0.00    +0.002 A 
ATOM     22  C   UNL     1      -6.010 -10.196   5.125  0.00  0.00    +0.026 A 
ATOM     23  C   UNL     1      -4.711  -9.792   4.709  0.00  0.00    +0.043 A 
ATOM     24  N   UNL     1      -3.534  -9.923   5.271  0.00  0.00    -0.380 N 
ATOM     25  C   UNL     1      -2.526  -9.320   4.393  0.00  0.00    +0.144 C 
ATOM     26  H   UNL     1      -3.359 -10.351   6.124  0.00  0.00    +0.160 HD
ENDBRANCH  16  17
ENDBRANCH  15  16
ENDBRANCH  13  15
ENDBRANCH   6  11
BRANCH   7  27
ATOM     27  S   UNL     1       0.868  -5.316  -1.050  0.00  0.00    -0.118 S 
BRANCH  27  28
ATOM     28  C   UNL     1       0.154  -4.981  -2.626  0.00  0.00    +0.008 A 
ATOM     29  C   UNL     1      -0.685  -3.886  -2.791  0.00  0.00    +0.016 A 
ATOM     30  C   UNL     1      -1.243  -3.626  -4.027  0.00  0.00    +0.021 A 
ATOM     31  C   UNL     1      -0.967  -4.454  -5.101  0.00  0.00    +0.041 A 
ATOM     32  C   UNL     1      -0.132  -5.545  -4.940  0.00  0.00    +0.021 A 
ATOM     33  C   UNL     1       0.434  -5.807  -3.708  0.00  0.00    +0.016 A 
ATOM     34 CL   UNL     1      -1.671  -4.124  -6.653  0.00  0.00    -0.084 Cl
ENDBRANCH  27  28
ENDBRANCH   7  27
TORSDOF 6
