REMARK  Name = ZINC23077656
REMARK  13 active torsions:
REMARK  status: ('A' for Active; 'I' for Inactive)
REMARK    1  A    between atoms: C_1  and  N_2
REMARK    2  A    between atoms: N_2  and  C_3
REMARK    3  A    between atoms: N_2  and  C_4
REMARK    4  A    between atoms: C_4  and  C_6
REMARK    5  A    between atoms: C_4  and  C_23
REMARK    6  A    between atoms: C_6  and  N_7
REMARK    7  A    between atoms: C_8  and  C_10
REMARK    8  A    between atoms: C_14  and  S_16
REMARK    9  A    between atoms: S_16  and  N_19
REMARK   10  A    between atoms: N_19  and  C_20
REMARK   11  A    between atoms: N_19  and  C_21
REMARK   12  A    between atoms: C_28  and  O_29
REMARK   13  A    between atoms: O_29  and  C_30
REMARK                            x       y       z     vdW  Elec       q    Type
REMARK                         _______ _______ _______ _____ _____    ______ ____
ROOT
ATOM      1  N   UNL     1       5.527  -4.304  -2.539  0.00  0.00    -0.313 N 
ATOM      2  C   UNL     1       4.215  -4.207  -2.248  0.00  0.00    +0.244 C 
ATOM      3  O   UNL     1       3.485  -5.167  -2.403  0.00  0.00    -0.270 OA
ATOM      4  H   UNL     1       6.187  -3.435  -2.398  0.00  0.00    +0.149 HD
ENDROOT
BRANCH   2   5
ATOM      5  C   UNL     1       3.662  -2.934  -1.739  0.00  0.00    +0.039 A 
ATOM      6  C   UNL     1       4.497  -1.830  -1.560  0.00  0.00    +0.014 A 
ATOM      7  C   UNL     1       3.976  -0.645  -1.085  0.00  0.00    +0.018 A 
ATOM      8  C   UNL     1       2.627  -0.548  -0.787  0.00  0.00    +0.044 A 
ATOM      9  C   UNL     1       1.794  -1.640  -0.963  0.00  0.00    +0.120 A 
ATOM     10  C   UNL     1       2.304  -2.833  -1.431  0.00  0.00    +0.042 A 
ATOM     11 BR   UNL     1       1.920   1.081  -0.137  0.00  0.00    -0.048 Br
BRANCH   9  12
ATOM     12  S   UNL     1       0.079  -1.508  -0.581  0.00  0.00    +0.061 S 
ATOM     13  O   UNL     1      -0.494  -2.783  -0.837  0.00  0.00    -0.153 OA
ATOM     14  O   UNL     1      -0.388  -0.323  -1.211  0.00  0.00    -0.153 OA
BRANCH  12  15
ATOM     15  N   UNL     1      -0.041  -1.255   1.052  0.00  0.00    -0.183 NA
ATOM     16  C   UNL     1      -0.039   0.111   1.583  0.00  0.00    +0.131 C 
ATOM     17  C   UNL     1      -0.148  -2.396   1.964  0.00  0.00    +0.131 C 
ENDBRANCH  12  15
ENDBRANCH   9  12
ENDBRANCH   2   5
BRANCH   1  18
ATOM     18  C   UNL     1       6.074  -5.566  -3.043  0.00  0.00    +0.094 C 
BRANCH  18  19
ATOM     19  C   UNL     1       7.523  -5.352  -3.486  0.00  0.00    -0.017 C 
BRANCH  19  20
ATOM     20  C   UNL     1       8.134  -6.678  -3.862  0.00  0.00    -0.018 A 
ATOM     21  C   UNL     1       8.209  -7.052  -5.190  0.00  0.00    +0.005 A 
ATOM     22  C   UNL     1       8.773  -8.266  -5.536  0.00  0.00    +0.000 A 
ATOM     23  C   UNL     1       9.255  -9.112  -4.555  0.00  0.00    +0.004 A 
ATOM     24  C   UNL     1       9.178  -8.745  -3.225  0.00  0.00    +0.046 A 
ATOM     25  C   UNL     1       8.616  -7.525  -2.876  0.00  0.00    +0.122 A 
BRANCH  25  26
ATOM     26  O   UNL     1       8.540  -7.161  -1.569  0.00  0.00    -0.495 OA
ATOM     27  C   UNL     1       9.056  -8.083  -0.607  0.00  0.00    +0.277 C 
ENDBRANCH  25  26
ENDBRANCH  19  20
BRANCH  19  29
ATOM     28  C   UNL     1       6.333  -4.593  -5.453  0.00  0.00    -0.096 C 
ATOM     29  N   UNL     1       7.553  -4.452  -4.646  0.00  0.00    +0.382 N 
ATOM     30  C   UNL     1       7.749  -3.058  -4.227  0.00  0.00    -0.096 C 
ATOM     31  H   UNL     1       8.408  -4.740  -5.275  0.00  0.00    -0.082 HD
ENDBRANCH  19  29
ENDBRANCH  18  19
ENDBRANCH   1  18
TORSDOF 8
