REMARK  Name = ZINC32759544
REMARK  10 active torsions:
REMARK  status: ('A' for Active; 'I' for Inactive)
REMARK    1  A    between atoms: C_1  and  C_2
REMARK    2  A    between atoms: C_2  and  C_3
REMARK    3  A    between atoms: C_6  and  C_15
REMARK    4  A    between atoms: C_13  and  O_14
REMARK    5  A    between atoms: C_15  and  N_16
REMARK    6  A    between atoms: N_16  and  C_17
REMARK    7  A    between atoms: C_17  and  C_19
REMARK    8  A    between atoms: C_17  and  C_29
REMARK    9  A    between atoms: C_29  and  C_30
REMARK   10  A    between atoms: C_29  and  C_31
REMARK                            x       y       z     vdW  Elec       q    Type
REMARK                         _______ _______ _______ _____ _____    ______ ____
ROOT
ATOM      1  N   UNL     1      -4.567  -0.124   0.960  0.00  0.00    +0.386 N 
ATOM      2  H   UNL     1      -4.968   0.739   0.407  0.00  0.00    -0.085 HD
ATOM      3  H   UNL     1      -4.015   0.231   1.843  0.00  0.00    -0.085 HD
ENDROOT
BRANCH   1   4
ATOM      4  C   UNL     1      -5.675  -0.988   1.390  0.00  0.00    -0.045 C 
BRANCH   4   8
ATOM      5  C   UNL     1      -5.408   0.813   5.314  0.00  0.00    -0.005 A 
ATOM      6  C   UNL     1      -5.489   0.236   4.079  0.00  0.00    +0.019 A 
ATOM      7  C   UNL     1      -5.181  -1.120   3.924  0.00  0.00    +0.019 A 
ATOM      8  C   UNL     1      -5.260  -1.766   2.612  0.00  0.00    -0.047 A 
ATOM      9  C   UNL     1      -4.954  -3.087   2.528  0.00  0.00    +0.094 A 
ATOM     10  C   UNL     1      -4.564  -3.792   3.685  0.00  0.00    +0.337 A 
ATOM     11  O   UNL     1      -4.288  -4.974   3.594  0.00  0.00    -0.245 OA
ATOM     12  O   UNL     1      -4.494  -3.194   4.885  0.00  0.00    -0.422 OA
ATOM     13  C   UNL     1      -4.790  -1.886   5.038  0.00  0.00    +0.143 A 
ATOM     14  C   UNL     1      -4.712  -1.284   6.285  0.00  0.00    +0.092 A 
ATOM     15  C   UNL     1      -5.021   0.060   6.420  0.00  0.00    +0.124 A 
BRANCH   5  17
ATOM     16  C   UNL     1      -7.162   2.414   6.029  0.00  0.00    +0.009 C 
ATOM     17  C   UNL     1      -5.740   2.273   5.481  0.00  0.00    +0.035 C 
ENDBRANCH   5  17
BRANCH  15  18
ATOM     18  O   UNL     1      -4.945   0.648   7.642  0.00  0.00    -0.506 OA
ATOM     19  H   UNL     1      -4.640   0.058   8.518  0.00  0.00    +0.292 HD
ENDBRANCH  15  18
ENDBRANCH   4   8
ENDBRANCH   1   4
BRANCH   1  20
ATOM     20  C   UNL     1      -3.639  -0.854   0.086  0.00  0.00    -0.038 C 
BRANCH  20  21
ATOM     21  C   UNL     1      -2.257  -0.828   0.688  0.00  0.00    -0.057 A 
ATOM     22  C   UNL     1      -1.788   0.324   1.291  0.00  0.00    +0.006 A 
ATOM     23  C   UNL     1      -0.520   0.352   1.840  0.00  0.00    +0.049 A 
ATOM     24  C   UNL     1       0.283  -0.777   1.793  0.00  0.00    +0.162 A 
ATOM     25  C   UNL     1      -0.189  -1.936   1.188  0.00  0.00    +0.162 A 
ATOM     26  C   UNL     1      -1.461  -1.957   0.635  0.00  0.00    +0.051 A 
ATOM     27  O   UNL     1       0.582  -3.056   1.131  0.00  0.00    -0.485 OA
ATOM     28  C   UNL     1       1.985  -2.884   1.360  0.00  0.00    +0.270 C 
ATOM     29  C   UNL     1       2.163  -1.992   2.596  0.00  0.00    +0.270 C 
ATOM     30  O   UNL     1       1.530  -0.734   2.337  0.00  0.00    -0.485 OA
ENDBRANCH  20  21
BRANCH  20  31
ATOM     31  C   UNL     1      -3.607  -0.189  -1.292  0.00  0.00    -0.027 C 
ATOM     32  C   UNL     1      -2.640  -0.949  -2.202  0.00  0.00    +0.006 C 
ATOM     33  C   UNL     1      -5.009  -0.215  -1.903  0.00  0.00    +0.006 C 
ENDBRANCH  20  31
ENDBRANCH   1  20
TORSDOF 7
