REMARK  Name = ZINC09673694
REMARK  7 active torsions:
REMARK  status: ('A' for Active; 'I' for Inactive)
REMARK    1  A    between atoms: C_1  and  C_2
REMARK    2  A    between atoms: N_17  and  C_18
REMARK    3  A    between atoms: C_22  and  C_24
REMARK    4  A    between atoms: N_26  and  C_27
REMARK    5  A    between atoms: C_27  and  C_28
REMARK    6  A    between atoms: C_31  and  O_34
REMARK    7  A    between atoms: O_34  and  C_35
REMARK                            x       y       z     vdW  Elec       q    Type
REMARK                         _______ _______ _______ _____ _____    ______ ____
ROOT
ATOM      1  C   UNL     1      -0.465   4.016  -0.028  0.00  0.00    +0.042 A 
ATOM      2  C   UNL     1       0.421   3.179   0.640  0.00  0.00    +0.024 A 
ATOM      3  C   UNL     1       0.214   1.813   0.650  0.00  0.00    +0.003 A 
ATOM      4  C   UNL     1      -0.874   1.270  -0.002  0.00  0.00    +0.013 A 
ATOM      5  C   UNL     1      -1.767   2.101  -0.680  0.00  0.00    +0.038 A 
ATOM      6  C   UNL     1      -1.561   3.481  -0.686  0.00  0.00    +0.036 A 
ENDROOT
BRANCH   1  22
ATOM      7  C   UNL     1       0.522   5.211  -2.342  0.00  0.00    +0.079 C 
ATOM      8  C   UNL     1       0.663   5.969  -1.020  0.00  0.00    +0.185 C 
ATOM      9  C   UNL     1       0.310   7.446  -1.247  0.00  0.00    +0.096 C 
ATOM     10  C   UNL     1       0.343   8.129   0.130  0.00  0.00    +0.114 C 
ATOM     11  C   UNL     1       1.687   7.851   0.765  0.00  0.00    +0.016 A 
ATOM     12  C   UNL     1       2.159   8.713   1.738  0.00  0.00    +0.024 A 
ATOM     13  C   UNL     1       3.376   8.472   2.348  0.00  0.00    +0.018 A 
ATOM     14  C   UNL     1       4.124   7.367   1.983  0.00  0.00    +0.019 A 
ATOM     15  C   UNL     1       3.658   6.508   1.010  0.00  0.00    +0.047 A 
ATOM     16  C   UNL     1       2.434   6.748   0.391  0.00  0.00    +0.128 A 
ATOM     17  O   UNL     1       2.012   5.886  -0.569  0.00  0.00    -0.468 OA
ATOM     18 BR   UNL     1       4.018   9.652   3.680  0.00  0.00    -0.050 Br
ATOM     19  N   UNL     1      -0.681   7.484   0.970  0.00  0.00    -0.292 N 
ATOM     20  C   UNL     1      -0.898   6.162   0.861  0.00  0.00    +0.310 C 
ATOM     21  O   UNL     1      -1.705   5.637   1.603  0.00  0.00    -0.252 OA
ATOM     22  N   UNL     1      -0.252   5.399  -0.035  0.00  0.00    -0.216 N 
ATOM     23  H   UNL     1      -1.199   8.012   1.597  0.00  0.00    +0.151 HD
ENDBRANCH   1  22
BRANCH   5  24
ATOM     24  C   UNL     1      -2.930   1.522  -1.385  0.00  0.00    +0.244 C 
ATOM     25  O   UNL     1      -3.707   2.247  -1.975  0.00  0.00    -0.270 OA
ATOM     26  N   UNL     1      -3.130   0.189  -1.374  0.00  0.00    -0.307 N 
ATOM     27  H   UNL     1      -2.510  -0.391  -0.903  0.00  0.00    +0.149 HD
BRANCH  26  28
ATOM     28  C   UNL     1      -4.282  -0.386  -2.072  0.00  0.00    +0.139 C 
BRANCH  28  29
ATOM     29  C   UNL     1      -4.275  -1.883  -1.907  0.00  0.00    -0.030 A 
ATOM     30  C   UNL     1      -3.619  -2.676  -2.831  0.00  0.00    +0.009 A 
ATOM     31  C   UNL     1      -3.606  -4.049  -2.679  0.00  0.00    +0.046 A 
ATOM     32  C   UNL     1      -4.260  -4.633  -1.604  0.00  0.00    +0.120 A 
ATOM     33  C   UNL     1      -4.922  -3.836  -0.681  0.00  0.00    +0.046 A 
ATOM     34  C   UNL     1      -4.928  -2.463  -0.835  0.00  0.00    +0.009 A 
BRANCH  32  35
ATOM     35  O   UNL     1      -4.253  -5.984  -1.455  0.00  0.00    -0.495 OA
ATOM     36  C   UNL     1      -3.552  -6.742  -2.443  0.00  0.00    +0.277 C 
ENDBRANCH  32  35
ENDBRANCH  28  29
ENDBRANCH  26  28
ENDBRANCH   5  24
TORSDOF 5
