REMARK  Name = ZINC09389418
REMARK  11 active torsions:
REMARK  status: ('A' for Active; 'I' for Inactive)
REMARK    1  A    between atoms: C_1  and  C_2
REMARK    2  A    between atoms: C_2  and  C_3
REMARK    3  A    between atoms: C_3  and  N_4
REMARK    4  A    between atoms: C_7  and  C_36
REMARK    5  A    between atoms: C_8  and  C_35
REMARK    6  A    between atoms: N_13  and  C_14
REMARK    7  A    between atoms: C_14  and  C_16
REMARK    8  A    between atoms: C_19  and  S_22
REMARK    9  A    between atoms: S_22  and  N_25
REMARK   10  A    between atoms: C_27  and  C_34
REMARK   11  A    between atoms: C_30  and  C_33
REMARK                            x       y       z     vdW  Elec       q    Type
REMARK                         _______ _______ _______ _____ _____    ______ ____
ROOT
ATOM      1  C   UNL     1      -4.380   4.672   1.613  0.00  0.00    +0.269 C 
ATOM      2  O   UNL     1      -4.892   4.917   2.691  0.00  0.00    -0.268 OA
ENDROOT
BRANCH   1  12
ATOM      3  N   UNL     1      -2.850   1.522   2.483  0.00  0.00    -0.321 N 
ATOM      4  C   UNL     1      -2.813   0.766   3.640  0.00  0.00    +0.058 A 
ATOM      5  C   UNL     1      -2.168  -0.462   3.857  0.00  0.00    +0.030 A 
ATOM      6  C   UNL     1      -2.229  -1.081   5.083  0.00  0.00    -0.046 A 
ATOM      7  C   UNL     1      -2.920  -0.513   6.140  0.00  0.00    -0.046 A 
ATOM      8  C   UNL     1      -3.561   0.700   5.955  0.00  0.00    +0.020 A 
ATOM      9  C   UNL     1      -3.500   1.319   4.730  0.00  0.00    +0.039 A 
ATOM     10  S   UNL     1      -4.154   2.833   4.072  0.00  0.00    -0.052 S 
ATOM     11  C   UNL     1      -3.527   2.702   2.461  0.00  0.00    +0.167 A 
ATOM     12  N   UNL     1      -3.673   3.550   1.448  0.00  0.00    -0.152 NA
ATOM     13  C   UNL     1      -2.974  -1.207   7.476  0.00  0.00    +0.044 C 
ATOM     14  C   UNL     1      -1.530  -2.401   5.280  0.00  0.00    +0.044 C 
BRANCH   3  15
ATOM     15  C   UNL     1      -2.164   1.050   1.278  0.00  0.00    +0.124 C 
BRANCH  15  17
ATOM     16  C   UNL     1      -0.013   1.086   0.008  0.00  0.00    +0.005 C 
ATOM     17  C   UNL     1      -0.729   1.579   1.267  0.00  0.00    +0.018 C 
ENDBRANCH  15  17
ENDBRANCH   3  15
ENDBRANCH   1  12
BRANCH   1  18
ATOM     18  C   UNL     1      -4.543   5.617   0.484  0.00  0.00    +0.039 A 
ATOM     19  C   UNL     1      -3.954   5.342  -0.750  0.00  0.00    +0.015 A 
ATOM     20  C   UNL     1      -4.113   6.223  -1.799  0.00  0.00    +0.029 A 
ATOM     21  C   UNL     1      -4.845   7.384  -1.626  0.00  0.00    +0.106 A 
ATOM     22  C   UNL     1      -5.428   7.665  -0.403  0.00  0.00    +0.029 A 
ATOM     23  C   UNL     1      -5.280   6.788   0.652  0.00  0.00    +0.015 A 
BRANCH  21  24
ATOM     24  S   UNL     1      -5.038   8.509  -2.969  0.00  0.00    +0.061 S 
ATOM     25  O   UNL     1      -4.856   7.755  -4.159  0.00  0.00    -0.153 OA
ATOM     26  O   UNL     1      -6.222   9.251  -2.710  0.00  0.00    -0.153 OA
BRANCH  24  27
ATOM     27  N   UNL     1      -3.780   9.583  -2.892  0.00  0.00    -0.172 NA
ATOM     28  C   UNL     1      -3.898  10.835  -2.128  0.00  0.00    +0.140 C 
ATOM     29  C   UNL     1      -2.678  10.946  -1.199  0.00  0.00    +0.131 C 
ATOM     30  O   UNL     1      -1.485  10.784  -1.970  0.00  0.00    -0.371 OA
ATOM     31  C   UNL     1      -1.362   9.504  -2.595  0.00  0.00    +0.131 C 
ATOM     32  C   UNL     1      -2.513   9.316  -3.591  0.00  0.00    +0.140 C 
ATOM     33  C   UNL     1      -1.423   8.407  -1.531  0.00  0.00    +0.039 C 
ATOM     34  C   UNL     1      -2.671  12.323  -0.531  0.00  0.00    +0.039 C 
ENDBRANCH  24  27
ENDBRANCH  21  24
ENDBRANCH   1  18
TORSDOF 6
