REMARK  Name = ZINC33033383
REMARK  15 active torsions:
REMARK  status: ('A' for Active; 'I' for Inactive)
REMARK    1  A    between atoms: C_1  and  C_2
REMARK    2  A    between atoms: C_2  and  N_3
REMARK    3  A    between atoms: N_3  and  C_4
REMARK    4  A    between atoms: C_4  and  C_5
REMARK    5  A    between atoms: C_5  and  N_6
REMARK    6  A    between atoms: N_6  and  C_7
REMARK    7  A    between atoms: N_6  and  C_8
REMARK    8  A    between atoms: C_9  and  C_11
REMARK    9  A    between atoms: C_14  and  N_30
REMARK   10  A    between atoms: C_15  and  N_17
REMARK   11  A    between atoms: N_17  and  S_18
REMARK   12  A    between atoms: S_18  and  C_21
REMARK   13  A    between atoms: C_24  and  C_27
REMARK   14  A    between atoms: C_27  and  C_28
REMARK   15  A    between atoms: C_27  and  C_29
REMARK                            x       y       z     vdW  Elec       q    Type
REMARK                         _______ _______ _______ _____ _____    ______ ____
ROOT
ATOM      1  C   UNL     1      -1.608   2.122  -0.711  0.00  0.00    +0.039 A 
ATOM      2  C   UNL     1      -1.661   3.481  -1.034  0.00  0.00    +0.015 A 
ATOM      3  C   UNL     1      -2.863   4.065  -1.367  0.00  0.00    +0.026 A 
ATOM      4  C   UNL     1      -4.029   3.308  -1.373  0.00  0.00    +0.052 A 
ATOM      5  C   UNL     1      -3.984   1.950  -1.046  0.00  0.00    +0.070 A 
ATOM      6  C   UNL     1      -2.780   1.359  -0.716  0.00  0.00    +0.039 A 
ENDROOT
BRANCH   4   7
ATOM      7  N   UNL     1      -5.244   3.904  -1.706  0.00  0.00    -0.332 N 
ATOM      8  C   UNL     1      -5.112   5.366  -1.772  0.00  0.00    +0.086 C 
ATOM      9  C   UNL     1      -6.481   5.986  -2.061  0.00  0.00    -0.063 C 
ATOM     10  N   UNL     1      -7.002   5.450  -3.325  0.00  0.00    +0.381 N 
ATOM     11  C   UNL     1      -7.134   3.987  -3.260  0.00  0.00    -0.063 C 
ATOM     12  C   UNL     1      -5.765   3.367  -2.971  0.00  0.00    +0.086 C 
ATOM     13  H   UNL     1      -7.992   5.885  -3.528  0.00  0.00    -0.086 HD
ATOM     14  H   UNL     1      -6.314   5.706  -4.144  0.00  0.00    -0.086 HD
ENDBRANCH   4   7
BRANCH   1  16
ATOM     15  N   UNL     1       0.830   1.998  -0.851  0.00  0.00    -0.300 N 
ATOM     16  C   UNL     1      -0.320   1.496  -0.359  0.00  0.00    +0.247 C 
ATOM     17  O   UNL     1      -0.296   0.523   0.370  0.00  0.00    -0.270 OA
BRANCH  15  19
ATOM     18  C   UNL     1       1.264   4.395  -1.069  0.00  0.00    +0.024 C 
ATOM     19  C   UNL     1       0.797   3.126  -1.785  0.00  0.00    +0.104 C 
ENDBRANCH  15  19
BRANCH  15  20
ATOM     20  C   UNL     1       2.114   1.417  -0.450  0.00  0.00    +0.089 C 
BRANCH  20  21
ATOM     21  C   UNL     1       2.489   0.294  -1.419  0.00  0.00    -0.060 C 
BRANCH  21  22
ATOM     22  N   UNL     1       3.776  -0.289  -1.018  0.00  0.00    +0.377 N 
ATOM     23  C   UNL     1       3.664  -0.970   0.279  0.00  0.00    -0.097 C 
ATOM     24  C   UNL     1       4.285  -1.203  -2.050  0.00  0.00    -0.097 C 
ATOM     25  H   UNL     1       4.500   0.532  -0.907  0.00  0.00    -0.083 HD
ENDBRANCH  21  22
ENDBRANCH  20  21
ENDBRANCH  15  20
ENDBRANCH   1  16
BRANCH   5  26
ATOM     26  N   UNL     1      -5.160   1.188  -1.053  0.00  0.00    -0.214 N 
ATOM     27  H   UNL     1      -5.537   0.768  -1.997  0.00  0.00    +0.174 HD
BRANCH  26  28
ATOM     28  S   UNL     1      -5.982   0.922   0.360  0.00  0.00    +0.072 S 
ATOM     29  O   UNL     1      -7.126   0.148   0.024  0.00  0.00    -0.150 OA
ATOM     30  O   UNL     1      -5.021   0.488   1.313  0.00  0.00    -0.150 OA
BRANCH  28  31
ATOM     31  C   UNL     1      -6.576   2.483   0.919  0.00  0.00    +0.109 A 
ATOM     32  C   UNL     1      -5.801   3.257   1.762  0.00  0.00    +0.029 A 
ATOM     33  C   UNL     1      -6.265   4.484   2.198  0.00  0.00    +0.006 A 
ATOM     34  C   UNL     1      -7.509   4.934   1.797  0.00  0.00    -0.045 A 
ATOM     35  C   UNL     1      -8.287   4.158   0.958  0.00  0.00    +0.006 A 
ATOM     36  C   UNL     1      -7.821   2.933   0.519  0.00  0.00    +0.029 A 
BRANCH  34  37
ATOM     37  C   UNL     1      -8.017   6.269   2.275  0.00  0.00    +0.013 C 
ATOM     38  C   UNL     1      -8.100   6.267   3.802  0.00  0.00    +0.012 C 
ATOM     39  C   UNL     1      -7.061   7.372   1.817  0.00  0.00    +0.012 C 
ENDBRANCH  34  37
ENDBRANCH  28  31
ENDBRANCH  26  28
ENDBRANCH   5  26
TORSDOF 10
