REMARK  Name = ZINC40824492
REMARK  7 active torsions:
REMARK  status: ('A' for Active; 'I' for Inactive)
REMARK    1  A    between atoms: C_1  and  C_2
REMARK    2  A    between atoms: C_7  and  N_8
REMARK    3  A    between atoms: C_9  and  C_11
REMARK    4  A    between atoms: C_12  and  C_25
REMARK    5  A    between atoms: N_20  and  N_21
REMARK    6  A    between atoms: N_21  and  C_22
REMARK    7  A    between atoms: C_22  and  N_24
REMARK                            x       y       z     vdW  Elec       q    Type
REMARK                         _______ _______ _______ _____ _____    ______ ____
ROOT
ATOM      1  C   UNL     1      -0.165   0.033   4.847  0.00  0.00    +0.193 A 
ATOM      2  C   UNL     1      -0.248  -0.535   6.088  0.00  0.00    +0.009 A 
ATOM      3  C   UNL     1      -0.336   0.526   6.998  0.00  0.00    +0.042 A 
ATOM      4  C   UNL     1      -0.304   1.694   6.275  0.00  0.00    +0.115 A 
ATOM      5  O   UNL     1      -0.193   1.378   4.987  0.00  0.00    -0.454 OA
ATOM      6  C   UNL     1      -0.382   3.057   6.915  0.00  0.00    +0.075 C 
ATOM      7  C   UNL     1      -0.999   2.929   8.310  0.00  0.00    +0.014 C 
ATOM      8  C   UNL     1      -0.251   1.879   9.138  0.00  0.00    +0.058 C 
ATOM      9  C   UNL     1      -0.444   0.524   8.474  0.00  0.00    +0.070 C 
ATOM     10  N   UNL     1      -0.686  -0.555   9.153  0.00  0.00    -0.185 NA
ATOM     11  C   UNL     1      -0.247  -2.006   6.411  0.00  0.00    +0.048 C 
ENDROOT
BRANCH   1  13
ATOM     12  N   UNL     1       0.025  -0.015   2.416  0.00  0.00    -0.279 N 
ATOM     13  C   UNL     1      -0.056  -0.694   3.578  0.00  0.00    +0.284 C 
ATOM     14  O   UNL     1      -0.040  -1.911   3.573  0.00  0.00    -0.266 OA
ATOM     15  H   UNL     1       0.078   0.954   2.424  0.00  0.00    +0.155 HD
BRANCH  12  22
ATOM     16  C   UNL     1      -1.266   1.183   0.182  0.00  0.00    +0.045 C 
ATOM     17  C   UNL     1      -0.585  -0.158   0.085  0.00  0.00    -0.029 A 
ATOM     18  C   UNL     1      -0.570  -0.840  -1.116  0.00  0.00    +0.006 A 
ATOM     19  C   UNL     1       0.054  -2.070  -1.207  0.00  0.00    +0.020 A 
ATOM     20  C   UNL     1       0.666  -2.622  -0.095  0.00  0.00    +0.043 A 
ATOM     21  C   UNL     1       0.655  -1.944   1.109  0.00  0.00    +0.043 A 
ATOM     22  C   UNL     1       0.033  -0.706   1.201  0.00  0.00    +0.038 A 
ATOM     23 CL   UNL     1       1.449  -4.168  -0.213  0.00  0.00    -0.083 Cl
ENDBRANCH  12  22
ENDBRANCH   1  13
BRANCH  10  24
ATOM     24  N   UNL     1      -0.778  -0.498  10.550  0.00  0.00    -0.218 N 
ATOM     25  H   UNL     1      -0.661   0.348  11.009  0.00  0.00    +0.176 HD
BRANCH  24  26
ATOM     26  C   UNL     1      -1.029  -1.619  11.255  0.00  0.00    +0.147 C 
ATOM     27  S   UNL     1      -1.141  -1.549  12.962  0.00  0.00    -0.017 S 
BRANCH  26  28
ATOM     28  N   UNL     1      -1.191  -2.795  10.616  0.00  0.00    -0.339 N 
ATOM     29  H   UNL     1      -1.128  -2.834   9.649  0.00  0.00    +0.144 HD
ATOM     30  H   UNL     1      -1.372  -3.601  11.124  0.00  0.00    +0.144 HD
ENDBRANCH  26  28
ENDBRANCH  24  26
ENDBRANCH  10  24
TORSDOF 5
