REMARK  Name = ZINC29464936
REMARK  5 active torsions:
REMARK  status: ('A' for Active; 'I' for Inactive)
REMARK    1  A    between atoms: C_1  and  C_2
REMARK    2  A    between atoms: C_15  and  C_17
REMARK    3  A    between atoms: C_17  and  S_18
REMARK    4  A    between atoms: S_18  and  C_19
REMARK    5  A    between atoms: N_20  and  C_21
REMARK                            x       y       z     vdW  Elec       q    Type
REMARK                         _______ _______ _______ _____ _____    ______ ____
ROOT
ATOM      1  C   UNL     1       0.612   2.540   0.559  0.00  0.00    +0.029 C 
ATOM      2  C   UNL     1       0.357   1.034   0.469  0.00  0.00    +0.087 C 
ATOM      3  C   UNL     1      -1.148   0.769   0.536  0.00  0.00    +0.118 C 
ATOM      4  C   UNL     1      -1.405  -0.682   0.847  0.00  0.00    +0.219 C 
ATOM      5  O   UNL     1      -1.771  -1.431  -0.034  0.00  0.00    -0.275 OA
ATOM      6  N   UNL     1      -1.229  -1.154   2.100  0.00  0.00    -0.284 N 
ATOM      7  C   UNL     1      -0.714  -0.327   3.104  0.00  0.00    +0.055 A 
ATOM      8  C   UNL     1      -1.338  -0.234   4.338  0.00  0.00    +0.025 A 
ATOM      9  C   UNL     1      -0.797   0.572   5.323  0.00  0.00    +0.002 A 
ATOM     10  C   UNL     1       0.363   1.284   5.082  0.00  0.00    +0.002 A 
ATOM     11  C   UNL     1       0.986   1.205   3.850  0.00  0.00    +0.025 A 
ATOM     12  C   UNL     1       0.445   0.409   2.854  0.00  0.00    +0.058 A 
ATOM     13  N   UNL     1       1.029   0.360   1.582  0.00  0.00    -0.266 N 
ATOM     14  C   UNL     1       2.191  -0.294   1.387  0.00  0.00    +0.230 C 
ATOM     15  O   UNL     1       2.689  -0.329   0.282  0.00  0.00    -0.274 OA
ATOM     16  H   UNL     1      -1.461  -2.074   2.305  0.00  0.00    +0.155 HD
ENDROOT
BRANCH  14  17
ATOM     17  C   UNL     1       2.870  -0.983   2.542  0.00  0.00    +0.173 C 
BRANCH  17  18
ATOM     18  S   UNL     1       4.400  -1.768   1.963  0.00  0.00    -0.081 S 
BRANCH  18  19
ATOM     19  C   UNL     1       5.067  -2.520   3.410  0.00  0.00    +0.152 C 
ATOM     20  N   UNL     1       4.435  -2.414   4.557  0.00  0.00    -0.227 NA
ATOM     21  N   UNL     1       6.249  -3.217   3.339  0.00  0.00    -0.338 N 
ATOM     22  H   UNL     1       6.775  -3.198   2.524  0.00  0.00    +0.144 HD
ATOM     23  H   UNL     1       6.557  -3.728   4.104  0.00  0.00    +0.144 HD
BRANCH  20  24
ATOM     24  C   UNL     1       5.014  -2.886   5.704  0.00  0.00    +0.066 A 
ATOM     25  C   UNL     1       6.270  -2.420   6.099  0.00  0.00    +0.028 A 
ATOM     26  C   UNL     1       6.847  -2.900   7.257  0.00  0.00    +0.002 A 
ATOM     27  C   UNL     1       6.186  -3.841   8.025  0.00  0.00    +0.000 A 
ATOM     28  C   UNL     1       4.942  -4.308   7.639  0.00  0.00    +0.002 A 
ATOM     29  C   UNL     1       4.350  -3.832   6.487  0.00  0.00    +0.028 A 
ENDBRANCH  20  24
ENDBRANCH  18  19
ENDBRANCH  17  18
ENDBRANCH  14  17
TORSDOF 4
