REMARK  Name = ZINC61440091
REMARK  7 active torsions:
REMARK  status: ('A' for Active; 'I' for Inactive)
REMARK    1  A    between atoms: C_1  and  C_2
REMARK    2  A    between atoms: C_9  and  S_11
REMARK    3  A    between atoms: S_11  and  C_12
REMARK    4  A    between atoms: C_12  and  C_14
REMARK    5  A    between atoms: C_12  and  C_19
REMARK    6  A    between atoms: C_19  and  C_21
REMARK    7  A    between atoms: C_19  and  N_22
REMARK                            x       y       z     vdW  Elec       q    Type
REMARK                         _______ _______ _______ _____ _____    ______ ____
ROOT
ATOM      1  S   UNL     1       0.132  -5.988   2.519  0.00  0.00    -0.081 S 
ENDROOT
BRANCH   1  10
ATOM      2  C   UNL     1      -6.766  -5.214   5.858  0.00  0.00    +0.044 C 
ATOM      3  C   UNL     1      -5.677  -5.634   4.904  0.00  0.00    -0.048 A 
ATOM      4  C   UNL     1      -5.983  -6.454   3.827  0.00  0.00    +0.005 A 
ATOM      5  C   UNL     1      -5.000  -6.847   2.947  0.00  0.00    +0.030 A 
ATOM      6  C   UNL     1      -3.685  -6.417   3.139  0.00  0.00    +0.090 A 
ATOM      7  C   UNL     1      -3.381  -5.587   4.230  0.00  0.00    +0.067 A 
ATOM      8  C   UNL     1      -4.384  -5.197   5.104  0.00  0.00    +0.031 A 
ATOM      9  N   UNL     1      -2.021  -5.333   4.155  0.00  0.00    -0.333 N 
ATOM     10  C   UNL     1      -1.546  -5.992   3.056  0.00  0.00    +0.168 A 
ATOM     11  N   UNL     1      -2.526  -6.628   2.461  0.00  0.00    -0.222 NA
ATOM     12  H   UNL     1      -1.502  -4.789   4.767  0.00  0.00    +0.168 HD
ENDBRANCH   1  10
BRANCH   1  13
ATOM     13  C   UNL     1       0.148  -7.145   1.121  0.00  0.00    +0.070 C 
BRANCH  13  14
ATOM     14  C   UNL     1      -0.118  -8.541   1.622  0.00  0.00    -0.029 A 
ATOM     15  C   UNL     1      -1.209  -9.255   1.162  0.00  0.00    +0.012 A 
ATOM     16  C   UNL     1      -1.421 -10.508   1.633  0.00  0.00    +0.045 A 
ATOM     17  S   UNL     1      -0.053 -10.714   2.762  0.00  0.00    -0.105 S 
ATOM     18  C   UNL     1       0.711  -9.118   2.526  0.00  0.00    +0.049 A 
ENDBRANCH  13  14
BRANCH  13  19
ATOM     19  C   UNL     1       1.517  -7.101   0.439  0.00  0.00    -0.060 C 
ATOM     20  C   UNL     1       1.755  -5.703  -0.136  0.00  0.00    -0.013 C 
BRANCH  19  21
ATOM     21  N   UNL     1       1.555  -8.090  -0.647  0.00  0.00    +0.381 N 
ATOM     22  H   UNL     1       0.836  -7.877  -1.321  0.00  0.00    -0.090 HD
ATOM     23  H   UNL     1       2.457  -8.060  -1.097  0.00  0.00    -0.090 HD
ATOM     24  H   UNL     1       1.398  -9.011  -0.267  0.00  0.00    -0.090 HD
ENDBRANCH  19  21
ENDBRANCH  13  19
ENDBRANCH   1  13
TORSDOF 5
