REMARK  Name = ZINC12162777
REMARK  11 active torsions:
REMARK  status: ('A' for Active; 'I' for Inactive)
REMARK    1  A    between atoms: C_1  and  C_2
REMARK    2  A    between atoms: C_7  and  C_8
REMARK    3  A    between atoms: C_13  and  C_16
REMARK    4  A    between atoms: C_16  and  C_27
REMARK    5  A    between atoms: N_19  and  C_23
REMARK    6  A    between atoms: C_23  and  C_24
REMARK    7  A    between atoms: C_24  and  N_71
REMARK    8  A    between atoms: C_25  and  N_71
REMARK    9  A    between atoms: C_26  and  N_71
REMARK   10  A    between atoms: C_27  and  C_28
REMARK   11  A    between atoms: C_28  and  C_29
REMARK                            x       y       z     vdW  Elec       q    Type
REMARK                         _______ _______ _______ _____ _____    ______ ____
ROOT
ATOM      1  C   UNL     1       0.122   1.876  -2.273  0.00  0.00    +0.116 C 
ATOM      2  C   UNL     1       1.474   2.551  -2.157  0.00  0.00    +0.247 C 
ATOM      3  O   UNL     1       1.692   3.738  -2.039  0.00  0.00    -0.273 OA
ATOM      4  N   UNL     1       2.383   1.558  -2.212  0.00  0.00    -0.226 N 
ATOM      5  C   UNL     1       1.799   0.361  -2.345  0.00  0.00    +0.309 C 
ATOM      6  O   UNL     1       2.412  -0.686  -2.416  0.00  0.00    -0.252 OA
ATOM      7  N   UNL     1       0.457   0.447  -2.390  0.00  0.00    -0.285 N 
ATOM      8  H   UNL     1      -0.168  -0.290  -2.482  0.00  0.00    +0.151 HD
ENDROOT
BRANCH   1  14
ATOM      9  C   UNL     1      -2.681   0.481   2.190  0.00  0.00    +0.247 C 
ATOM     10  O   UNL     1      -3.825   0.090   2.063  0.00  0.00    -0.270 OA
ATOM     11  N   UNL     1      -2.153   1.325   1.281  0.00  0.00    -0.297 N 
ATOM     12  C   UNL     1      -0.803   1.875   1.465  0.00  0.00    +0.108 C 
ATOM     13  C   UNL     1       0.022   1.588   0.207  0.00  0.00    +0.025 C 
ATOM     14  C   UNL     1      -0.716   2.131  -1.018  0.00  0.00    +0.024 C 
ATOM     15  C   UNL     1      -2.068   1.426  -1.156  0.00  0.00    +0.025 C 
ATOM     16  C   UNL     1      -2.917   1.712   0.086  0.00  0.00    +0.108 C 
BRANCH   9  23
ATOM     17  C   UNL     1      -2.332  -2.349   2.676  0.00  0.00    +0.044 C 
ATOM     18  C   UNL     1      -1.693  -1.331   3.585  0.00  0.00    -0.038 A 
ATOM     19  C   UNL     1      -0.930  -1.743   4.658  0.00  0.00    +0.004 A 
ATOM     20  C   UNL     1      -0.348  -0.810   5.496  0.00  0.00    +0.000 A 
ATOM     21  C   UNL     1      -0.521   0.543   5.262  0.00  0.00    +0.001 A 
ATOM     22  C   UNL     1      -1.278   0.969   4.190  0.00  0.00    +0.013 A 
ATOM     23  C   UNL     1      -1.868   0.032   3.340  0.00  0.00    +0.040 A 
ENDBRANCH   9  23
ENDBRANCH   1  14
BRANCH   4  24
ATOM     24  C   UNL     1       3.832   1.762  -2.136  0.00  0.00    +0.099 C 
BRANCH  24  25
ATOM     25  C   UNL     1       4.279   1.703  -0.674  0.00  0.00    -0.060 C 
BRANCH  25  28
ATOM     26  C   UNL     1       6.094   3.268  -1.020  0.00  0.00    -0.097 C 
ATOM     27  C   UNL     1       6.234   1.625   0.753  0.00  0.00    -0.097 C 
ATOM     28  N   UNL     1       5.745   1.890  -0.617  0.00  0.00    +0.377 N 
ATOM     29  H   UNL     1       6.191   1.230  -1.264  0.00  0.00    -0.083 HD
ENDBRANCH  25  28
ENDBRANCH  24  25
ENDBRANCH   4  24
BRANCH   1  30
ATOM     30  C   UNL     1      -0.618   2.363  -3.521  0.00  0.00    +0.040 C 
BRANCH  30  31
ATOM     31  C   UNL     1       0.183   1.985  -4.768  0.00  0.00    +0.038 C 
BRANCH  31  32
ATOM     32  C   UNL     1      -0.546   2.465  -5.997  0.00  0.00    -0.047 A 
ATOM     33  C   UNL     1      -1.461   1.640  -6.624  0.00  0.00    +0.003 A 
ATOM     34  C   UNL     1      -2.133   2.081  -7.748  0.00  0.00    +0.000 A 
ATOM     35  C   UNL     1      -1.882   3.344  -8.252  0.00  0.00    +0.000 A 
ATOM     36  C   UNL     1      -0.963   4.167  -7.628  0.00  0.00    +0.000 A 
ATOM     37  C   UNL     1      -0.295   3.727  -6.501  0.00  0.00    +0.003 A 
ENDBRANCH  31  32
ENDBRANCH  30  31
ENDBRANCH   1  30
TORSDOF 8
