REMARK  Name = ZINC06846202
REMARK  6 active torsions:
REMARK  status: ('A' for Active; 'I' for Inactive)
REMARK    1  A    between atoms: C_1  and  C_2
REMARK    2  A    between atoms: C_2  and  C_3
REMARK    3  A    between atoms: C_8  and  N_9
REMARK    4  A    between atoms: C_10  and  C_12
REMARK    5  A    between atoms: C_22  and  C_31
REMARK    6  A    between atoms: C_31  and  C_32
REMARK                            x       y       z     vdW  Elec       q    Type
REMARK                         _______ _______ _______ _____ _____    ______ ____
ROOT
ATOM      1  C   UNL     1       1.845  -1.850   0.156  0.00  0.00    +0.078 C 
ATOM      2  C   UNL     1       1.424  -2.352   1.539  0.00  0.00    +0.032 C 
ATOM      3  C   UNL     1       0.936  -3.800   1.426  0.00  0.00    +0.110 C 
ATOM      4  N   UNL     1       1.986  -4.604   0.786  0.00  0.00    -0.285 N 
ATOM      5  C   UNL     1       2.527  -4.160  -0.506  0.00  0.00    +0.110 C 
ATOM      6  C   UNL     1       2.997  -2.708  -0.371  0.00  0.00    +0.032 C 
ATOM      7  C   UNL     1       2.444  -5.727   1.373  0.00  0.00    +0.309 C 
ATOM      8  O   UNL     1       3.517  -6.193   1.040  0.00  0.00    -0.252 OA
ATOM      9  N   UNL     1       1.712  -6.335   2.327  0.00  0.00    -0.248 N 
ATOM     10  C   UNL     1       0.336  -5.902   2.625  0.00  0.00    +0.159 C 
ATOM     11  C   UNL     1      -0.515  -7.165   2.823  0.00  0.00    +0.191 C 
ATOM     12  O   UNL     1       0.049  -7.938   3.885  0.00  0.00    -0.485 OA
ATOM     13  C   UNL     1       1.383  -8.193   3.843  0.00  0.00    +0.142 A 
ATOM     14  C   UNL     1       2.234  -7.409   3.070  0.00  0.00    +0.080 A 
ATOM     15  C   UNL     1       3.594  -7.674   3.044  0.00  0.00    +0.027 A 
ATOM     16  C   UNL     1       4.104  -8.730   3.778  0.00  0.00    +0.002 A 
ATOM     17  C   UNL     1       3.259  -9.515   4.540  0.00  0.00    +0.004 A 
ATOM     18  C   UNL     1       1.903  -9.250   4.574  0.00  0.00    +0.047 A 
ENDROOT
BRANCH   1  20
ATOM     19  N   UNL     1       1.439   0.528   0.701  0.00  0.00    -0.285 N 
ATOM     20  C   UNL     1       2.293  -0.415   0.257  0.00  0.00    +0.220 C 
ATOM     21  O   UNL     1       3.423  -0.109  -0.060  0.00  0.00    -0.275 OA
ATOM     22  H   UNL     1       0.557   0.275   1.017  0.00  0.00    +0.155 HD
BRANCH  19  28
ATOM     23  C   UNL     1       0.887   2.865   0.441  0.00  0.00    -0.026 A 
ATOM     24  C   UNL     1       1.269   4.193   0.451  0.00  0.00    +0.005 A 
ATOM     25  C   UNL     1       2.583   4.534   0.713  0.00  0.00    +0.000 A 
ATOM     26  C   UNL     1       3.518   3.549   0.971  0.00  0.00    +0.002 A 
ATOM     27  C   UNL     1       3.142   2.220   0.968  0.00  0.00    +0.023 A 
ATOM     28  C   UNL     1       1.823   1.874   0.705  0.00  0.00    +0.037 A 
BRANCH  23  30
ATOM     29  C   UNL     1      -1.306   2.330   1.466  0.00  0.00    +0.009 C 
ATOM     30  C   UNL     1      -0.544   2.494   0.150  0.00  0.00    +0.033 C 
ENDBRANCH  23  30
ENDBRANCH  19  28
ENDBRANCH   1  20
BRANCH  11  31
ATOM     31  C   UNL     1      -1.947  -6.766   3.183  0.00  0.00    +0.043 C 
ATOM     32  C   UNL     1      -2.822  -8.019   3.258  0.00  0.00    +0.007 C 
ENDBRANCH  11  31
TORSDOF 4
