REMARK  Name = ZINC35911752
REMARK  9 active torsions:
REMARK  status: ('A' for Active; 'I' for Inactive)
REMARK    1  A    between atoms: C_1  and  C_2
REMARK    2  A    between atoms: C_4  and  C_15
REMARK    3  A    between atoms: N_6  and  C_7
REMARK    4  A    between atoms: C_16  and  C_32
REMARK    5  A    between atoms: C_22  and  C_25
REMARK    6  A    between atoms: C_25  and  C_26
REMARK    7  A    between atoms: N_28  and  C_29
REMARK    8  A    between atoms: C_29  and  C_30
REMARK    9  A    between atoms: C_29  and  C_31
REMARK                            x       y       z     vdW  Elec       q    Type
REMARK                         _______ _______ _______ _____ _____    ______ ____
ROOT
ATOM      1  C   UNL     1       0.041  -3.331  -1.537  0.00  0.00    +0.088 A 
ATOM      2  C   UNL     1       0.055  -4.606  -0.981  0.00  0.00    +0.055 A 
ATOM      3  N   UNL     1       0.066  -5.656  -1.794  0.00  0.00    -0.227 NA
ATOM      4  C   UNL     1       0.062  -5.509  -3.096  0.00  0.00    +0.180 A 
ATOM      5  N   UNL     1       0.048  -4.296  -3.733  0.00  0.00    -0.258 N 
ATOM      6  C   UNL     1       0.032  -3.187  -2.935  0.00  0.00    +0.268 A 
ATOM      7  O   UNL     1       0.015  -2.074  -3.436  0.00  0.00    -0.266 OA
ATOM      8  C   UNL     1       0.047  -4.318  -5.107  0.00  0.00    +0.044 A 
ATOM      9  C   UNL     1       0.058  -5.470  -5.777  0.00  0.00    +0.071 A 
ATOM     10  S   UNL     1       0.073  -6.665  -4.450  0.00  0.00    -0.057 S 
ATOM     11  C   UNL     1       0.060  -4.792   0.514  0.00  0.00    +0.066 C 
ENDROOT
BRANCH   1  15
ATOM     12  C   UNL     1      -0.018   1.503   0.010  0.00  0.00    +0.066 C 
ATOM     13  C   UNL     1       0.002  -0.004   0.002  0.00  0.00    +0.042 A 
ATOM     14  C   UNL     1       0.008  -0.793  -1.094  0.00  0.00    +0.053 A 
ATOM     15  C   UNL     1       0.029  -2.135  -0.662  0.00  0.00    +0.100 A 
ATOM     16  N   UNL     1       0.035  -2.139   0.655  0.00  0.00    -0.166 NA
ATOM     17  N   UNL     1       0.023  -0.810   1.096  0.00  0.00    -0.236 N 
BRANCH  17  18
ATOM     18  C   UNL     1       0.030  -0.385   2.431  0.00  0.00    +0.067 A 
ATOM     19  C   UNL     1       0.702   0.777   2.788  0.00  0.00    +0.029 A 
ATOM     20  C   UNL     1       0.707   1.194   4.104  0.00  0.00    +0.023 A 
ATOM     21  C   UNL     1       0.044   0.455   5.069  0.00  0.00    +0.059 A 
ATOM     22  C   UNL     1      -0.627  -0.704   4.716  0.00  0.00    +0.061 A 
ATOM     23  C   UNL     1      -0.640  -1.122   3.398  0.00  0.00    +0.049 A 
ATOM     24 CL   UNL     1      -1.457  -1.629   5.928  0.00  0.00    -0.082 Cl
ATOM     25 CL   UNL     1       0.053   0.982   6.723  0.00  0.00    -0.082 Cl
ENDBRANCH  17  18
ENDBRANCH   1  15
BRANCH   8  26
ATOM     26  C   UNL     1       0.032  -3.018  -5.869  0.00  0.00    +0.150 C 
BRANCH  26  27
ATOM     27  C   UNL     1      -1.389  -2.537  -6.014  0.00  0.00    +0.219 C 
ATOM     28  O   UNL     1      -2.300  -3.186  -5.545  0.00  0.00    -0.275 OA
ATOM     29  N   UNL     1      -1.647  -1.385  -6.665  0.00  0.00    -0.313 N 
ATOM     30  H   UNL     1      -0.919  -0.866  -7.040  0.00  0.00    +0.149 HD
BRANCH  29  31
ATOM     31  C   UNL     1      -3.029  -0.918  -6.806  0.00  0.00    +0.067 C 
ATOM     32  C   UNL     1      -3.431  -0.131  -5.557  0.00  0.00    +0.027 C 
ATOM     33  C   UNL     1      -3.138  -0.014  -8.036  0.00  0.00    +0.027 C 
ENDBRANCH  29  31
ENDBRANCH  26  27
ENDBRANCH   8  26
TORSDOF 5
