REMARK  Name = ZINC35356061
REMARK  4 active torsions:
REMARK  status: ('A' for Active; 'I' for Inactive)
REMARK    1  A    between atoms: C_1  and  C_2
REMARK    2  A    between atoms: C_7  and  N_10
REMARK    3  A    between atoms: N_10  and  C_11
REMARK    4  A    between atoms: C_16  and  N_17
REMARK                            x       y       z     vdW  Elec       q    Type
REMARK                         _______ _______ _______ _____ _____    ______ ____
ROOT
ATOM      1  C   UNL     1       2.079  -3.787   2.406  0.00  0.00    +0.050 A 
ATOM      2  C   UNL     1       2.016  -4.575   1.267  0.00  0.00    +0.048 A 
ATOM      3  C   UNL     1       2.620  -5.825   1.255  0.00  0.00    +0.038 A 
ATOM      4  C   UNL     1       3.287  -6.285   2.383  0.00  0.00    -0.024 A 
ATOM      5  C   UNL     1       3.351  -5.502   3.519  0.00  0.00    +0.030 A 
ATOM      6  C   UNL     1       2.754  -4.250   3.535  0.00  0.00    +0.046 A 
ATOM      7  C   UNL     1       3.942  -7.642   2.364  0.00  0.00    +0.046 C 
ATOM      8  C   UNL     1       3.117  -8.596   1.500  0.00  0.00    +0.101 C 
ATOM      9  C   UNL     1       2.797  -7.946   0.181  0.00  0.00    +0.218 C 
ATOM     10  O   UNL     1       2.753  -8.621  -0.826  0.00  0.00    -0.275 OA
ATOM     11  N   UNL     1       2.558  -6.624   0.106  0.00  0.00    -0.285 N 
ATOM     12  H   UNL     1       2.342  -6.221  -0.750  0.00  0.00    +0.155 HD
ENDROOT
BRANCH   6  13
ATOM     13  N   UNL     1       2.824  -3.453   4.686  0.00  0.00    -0.357 N 
ATOM     14  H   UNL     1       2.404  -2.579   4.698  0.00  0.00    +0.142 HD
ATOM     15  H   UNL     1       3.294  -3.776   5.471  0.00  0.00    +0.142 HD
ENDBRANCH   6  13
BRANCH   1  16
ATOM     16  N   UNL     1       1.471  -2.526   2.420  0.00  0.00    -0.340 N 
ATOM     17  H   UNL     1       1.520  -1.974   3.216  0.00  0.00    +0.146 HD
BRANCH  16  23
ATOM     18  C   UNL     1      -0.019   1.526   0.010  0.00  0.00    +0.007 C 
ATOM     19  C   UNL     1       0.002  -0.004   0.002  0.00  0.00    -0.012 C 
ATOM     20  C   UNL     1      -1.433  -0.534   0.013  0.00  0.00    +0.003 C 
ATOM     21  C   UNL     1      -1.413  -2.063   0.004  0.00  0.00    +0.002 C 
ATOM     22  C   UNL     1      -0.673  -2.570   1.244  0.00  0.00    +0.022 C 
ATOM     23  C   UNL     1       0.763  -2.041   1.233  0.00  0.00    +0.071 C 
ATOM     24  C   UNL     1       0.742  -0.511   1.242  0.00  0.00    +0.025 C 
ENDBRANCH  16  23
ENDBRANCH   1  16
TORSDOF 3
