REMARK  Name = ZINC24985565
REMARK  13 active torsions:
REMARK  status: ('A' for Active; 'I' for Inactive)
REMARK    1  A    between atoms: C_1  and  C_2
REMARK    2  A    between atoms: C_2  and  O_3
REMARK    3  A    between atoms: O_3  and  C_4
REMARK    4  A    between atoms: C_6  and  C_16
REMARK    5  A    between atoms: C_8  and  O_13
REMARK    6  A    between atoms: C_9  and  O_10
REMARK    7  A    between atoms: O_10  and  C_11
REMARK    8  A    between atoms: C_11  and  C_12
REMARK    9  A    between atoms: O_13  and  C_14
REMARK   10  A    between atoms: C_14  and  C_15
REMARK   11  A    between atoms: N_18  and  C_19
REMARK   12  A    between atoms: C_19  and  C_21
REMARK   13  A    between atoms: C_19  and  C_22
REMARK                            x       y       z     vdW  Elec       q    Type
REMARK                         _______ _______ _______ _____ _____    ______ ____
ROOT
ATOM      1  C   UNL     1       1.634  -7.160  -0.027  0.00  0.00    +0.156 C 
ATOM      2  C   UNL     1       2.122  -7.336  -1.467  0.00  0.00    +0.038 C 
ENDROOT
BRANCH   1   3
ATOM      3  C   UNL     1       1.275  -8.505   0.549  0.00  0.00    +0.236 C 
ATOM      4  O   UNL     1       0.125  -8.889   0.522  0.00  0.00    -0.274 OA
ATOM      5  N   UNL     1       2.232  -9.282   1.096  0.00  0.00    -0.300 N 
ATOM      6  C   UNL     1       3.608  -8.787   1.234  0.00  0.00    +0.110 C 
ATOM      7  C   UNL     1       4.561  -9.793   0.580  0.00  0.00    +0.047 C 
ATOM      8  C   UNL     1       4.325 -11.179   1.181  0.00  0.00    +0.064 C 
ATOM      9  C   UNL     1       2.888 -11.625   0.908  0.00  0.00    +0.047 C 
ATOM     10  C   UNL     1       1.916 -10.636   1.570  0.00  0.00    +0.110 C 
ATOM     11  C   UNL     1       5.287 -12.166   0.572  0.00  0.00    +0.057 A 
ATOM     12  C   UNL     1       6.390 -12.618   1.213  0.00  0.00    +0.039 A 
ATOM     13  N   UNL     1       7.014 -13.486   0.376  0.00  0.00    -0.349 N 
ATOM     14  H   UNL     1       7.832 -13.974   0.555  0.00  0.00    +0.166 HD
ATOM     15  C   UNL     1       6.276 -13.541  -0.758  0.00  0.00    +0.171 A 
ATOM     16  N   UNL     1       5.245 -12.746  -0.628  0.00  0.00    -0.348 N 
ATOM     17  C   UNL     1       6.780 -12.182   2.602  0.00  0.00    +0.070 C 
ATOM     18  C   UNL     1       5.980 -10.916   2.942  0.00  0.00    +0.088 C 
ATOM     19  N   UNL     1       4.559 -11.133   2.633  0.00  0.00    -0.305 NA
ATOM     20  H   UNL     1       3.983 -10.430   3.070  0.00  0.00    +0.123 HD
ATOM     21  H   UNL     1       4.558 -12.602  -1.298  0.00  0.00    +0.166 HD
ENDBRANCH   1   3
BRANCH   1  24
ATOM     22  C   UNL     1       0.603  -4.953   0.009  0.00  0.00    +0.245 C 
ATOM     23  O   UNL     1       1.717  -4.465   0.020  0.00  0.00    -0.270 OA
ATOM     24  N   UNL     1       0.454  -6.292  -0.014  0.00  0.00    -0.300 N 
ATOM     25  H   UNL     1      -0.434  -6.681  -0.022  0.00  0.00    +0.150 HD
BRANCH  22  28
ATOM     26  C   UNL     1      -1.548  -1.873   0.059  0.00  0.00    +0.166 A 
ATOM     27  C   UNL     1      -0.433  -2.690   0.047  0.00  0.00    +0.062 A 
ATOM     28  C   UNL     1      -0.586  -4.078   0.022  0.00  0.00    +0.044 A 
ATOM     29  C   UNL     1      -1.866  -4.638   0.010  0.00  0.00    +0.062 A 
ATOM     30  C   UNL     1      -2.978  -3.816   0.022  0.00  0.00    +0.166 A 
ATOM     31  C   UNL     1      -2.823  -2.433   0.051  0.00  0.00    +0.204 A 
BRANCH  26  32
ATOM     32  O   UNL     1      -1.400  -0.521   0.083  0.00  0.00    -0.488 OA
BRANCH  32  34
ATOM     33  C   UNL     1      -0.097   1.514   0.116  0.00  0.00    +0.048 C 
ATOM     34  C   UNL     1      -0.063  -0.015   0.088  0.00  0.00    +0.226 C 
ENDBRANCH  32  34
ENDBRANCH  26  32
BRANCH  31  35
ATOM     35  O   UNL     1      -3.917  -1.628   0.068  0.00  0.00    -0.485 OA
BRANCH  35  36
ATOM     36  C   UNL     1      -4.443  -1.221  -1.197  0.00  0.00    +0.226 C 
ATOM     37  C   UNL     1      -5.664  -0.326  -0.978  0.00  0.00    +0.048 C 
ENDBRANCH  35  36
ENDBRANCH  31  35
BRANCH  30  38
ATOM     38  O   UNL     1      -4.224  -4.360   0.009  0.00  0.00    -0.488 OA
BRANCH  38  39
ATOM     39  C   UNL     1      -4.310  -5.786  -0.016  0.00  0.00    +0.226 C 
ATOM     40  C   UNL     1      -5.780  -6.209  -0.027  0.00  0.00    +0.048 C 
ENDBRANCH  38  39
ENDBRANCH  30  38
ENDBRANCH  22  28
ENDBRANCH   1  24
TORSDOF 9
