REMARK  Name = ZINC36531280
REMARK  11 active torsions:
REMARK  status: ('A' for Active; 'I' for Inactive)
REMARK    1  A    between atoms: C_1  and  C_2
REMARK    2  A    between atoms: C_2  and  C_3
REMARK    3  A    between atoms: C_2  and  C_4
REMARK    4  A    between atoms: C_2  and  N_5
REMARK    5  A    between atoms: C_6  and  C_8
REMARK    6  A    between atoms: C_8  and  C_10
REMARK    7  A    between atoms: C_8  and  N_24
REMARK    8  A    between atoms: N_24  and  C_25
REMARK    9  A    between atoms: C_26  and  C_28
REMARK   10  A    between atoms: C_32  and  O_35
REMARK   11  A    between atoms: C_33  and  O_34
REMARK                            x       y       z     vdW  Elec       q    Type
REMARK                         _______ _______ _______ _____ _____    ______ ____
ROOT
ATOM      1  C   UNL     1       2.665  -0.812  -2.159  0.00  0.00    +0.193 C 
ENDROOT
BRANCH   1   2
ATOM      2  C   UNL     1       1.956   0.083  -3.142  0.00  0.00    -0.010 A 
ATOM      3  C   UNL     1       1.170   1.078  -2.680  0.00  0.00    +0.015 A 
ATOM      4  C   UNL     1       0.483   1.944  -3.562  0.00  0.00    -0.017 A 
ATOM      5  C   UNL     1      -0.331   2.976  -3.072  0.00  0.00    +0.008 A 
ATOM      6  C   UNL     1      -0.981   3.797  -3.945  0.00  0.00    +0.001 A 
ATOM      7  C   UNL     1      -0.850   3.627  -5.318  0.00  0.00    +0.001 A 
ATOM      8  C   UNL     1      -0.064   2.632  -5.827  0.00  0.00    +0.009 A 
ATOM      9  C   UNL     1       0.615   1.775  -4.959  0.00  0.00    -0.010 A 
ATOM     10  C   UNL     1       1.468   0.694  -5.460  0.00  0.00    -0.010 A 
ATOM     11  C   UNL     1       2.132  -0.134  -4.528  0.00  0.00    -0.012 A 
ATOM     12  C   UNL     1       2.955  -1.168  -4.998  0.00  0.00    +0.009 A 
ATOM     13  C   UNL     1       3.107  -1.355  -6.340  0.00  0.00    +0.001 A 
ATOM     14  C   UNL     1       2.457  -0.534  -7.254  0.00  0.00    +0.001 A 
ATOM     15  C   UNL     1       1.639   0.474  -6.828  0.00  0.00    +0.009 A 
ENDBRANCH   1   2
BRANCH   1  17
ATOM     16  N   UNL     1       0.838  -1.250  -0.549  0.00  0.00    -0.309 N 
ATOM     17  C   UNL     1       2.029  -0.670  -0.800  0.00  0.00    +0.239 C 
ATOM     18  O   UNL     1       2.588  -0.034   0.068  0.00  0.00    -0.273 OA
ATOM     19  H   UNL     1       0.358  -1.699  -1.262  0.00  0.00    +0.149 HD
BRANCH  16  21
ATOM     20  C   UNL     1       0.066   0.255   1.217  0.00  0.00    +0.031 C 
ATOM     21  C   UNL     1       0.270  -1.203   0.800  0.00  0.00    +0.026 C 
ATOM     22  C   UNL     1       1.227  -1.884   1.780  0.00  0.00    +0.031 C 
ATOM     23  C   UNL     1      -1.076  -1.930   0.813  0.00  0.00    +0.031 C 
ENDBRANCH  16  21
ENDBRANCH   1  17
BRANCH   1  24
ATOM     24  N   UNL     1       4.077  -0.429  -2.080  0.00  0.00    -0.285 N 
ATOM     25  C   UNL     1       4.443   0.961  -1.794  0.00  0.00    +0.133 C 
ATOM     26  C   UNL     1       5.038  -1.354  -2.270  0.00  0.00    +0.251 C 
ATOM     27  O   UNL     1       4.737  -2.484  -2.603  0.00  0.00    -0.270 OA
BRANCH  26  28
ATOM     28  C   UNL     1       6.456  -0.996  -2.073  0.00  0.00    +0.082 A 
ATOM     29  C   UNL     1       6.836  -0.207  -0.983  0.00  0.00    +0.017 A 
ATOM     30  C   UNL     1       8.161   0.125  -0.803  0.00  0.00    +0.005 A 
ATOM     31  C   UNL     1       9.122  -0.319  -1.696  0.00  0.00    +0.049 A 
ATOM     32  C   UNL     1       8.761  -1.101  -2.780  0.00  0.00    +0.159 A 
ATOM     33  C   UNL     1       7.427  -1.449  -2.973  0.00  0.00    +0.171 A 
BRANCH  33  34
ATOM     34  O   UNL     1       7.070  -2.220  -4.032  0.00  0.00    -0.503 OA
ATOM     35  H   UNL     1       6.851  -1.718  -4.828  0.00  0.00    +0.292 HD
ENDBRANCH  33  34
BRANCH  32  36
ATOM     36  O   UNL     1       9.710  -1.533  -3.654  0.00  0.00    -0.503 OA
ATOM     37  H   UNL     1      10.100  -2.386  -3.420  0.00  0.00    +0.292 HD
ENDBRANCH  32  36
ENDBRANCH  26  28
ENDBRANCH   1  24
TORSDOF 7
