REMARK  Name = ZINC13063836
REMARK  9 active torsions:
REMARK  status: ('A' for Active; 'I' for Inactive)
REMARK    1  A    between atoms: C_1  and  C_2
REMARK    2  A    between atoms: C_2  and  C_3
REMARK    3  A    between atoms: C_3  and  C_5
REMARK    4  A    between atoms: C_3  and  N_72
REMARK    5  A    between atoms: N_9  and  C_10
REMARK    6  A    between atoms: C_16  and  C_17
REMARK    7  A    between atoms: C_16  and  N_72
REMARK    8  A    between atoms: C_22  and  C_29
REMARK    9  A    between atoms: C_30  and  N_72
REMARK                            x       y       z     vdW  Elec       q    Type
REMARK                         _______ _______ _______ _____ _____    ______ ____
ROOT
ATOM      1  N   UNL     1       0.512  -1.952  -1.446  0.00  0.00    +0.391 N 
ATOM      2  H   UNL     1      -0.513  -1.982  -1.403  0.00  0.00    -0.080 HD
ENDROOT
BRANCH   1   3
ATOM      3  C   UNL     1       0.954  -0.542  -1.403  0.00  0.00    -0.067 C 
ATOM      4  C   UNL     1       2.465  -0.446  -1.622  0.00  0.00    -0.015 C 
ATOM      5  C   UNL     1       2.895   1.022  -1.576  0.00  0.00    -0.002 C 
ATOM      6  C   UNL     1       2.170   1.800  -2.675  0.00  0.00    -0.000 C 
ATOM      7  C   UNL     1       0.658   1.704  -2.456  0.00  0.00    -0.002 C 
ATOM      8  C   UNL     1       0.229   0.237  -2.502  0.00  0.00    -0.015 C 
ENDBRANCH   1   3
BRANCH   1   9
ATOM      9  C   UNL     1       0.958  -2.582  -2.707  0.00  0.00    +0.003 C 
BRANCH   9  10
ATOM     10  C   UNL     1       2.434  -2.882  -2.654  0.00  0.00    +0.138 A 
ATOM     11  N   UNL     1       3.093  -3.395  -1.644  0.00  0.00    -0.115 NA
ATOM     12  N   UNL     1       4.330  -3.500  -1.988  0.00  0.00    -0.023 NA
ATOM     13  N   UNL     1       4.479  -3.059  -3.188  0.00  0.00    -0.044 NA
ATOM     14  N   UNL     1       3.333  -2.669  -3.633  0.00  0.00    -0.228 N 
BRANCH  14  15
ATOM     15  C   UNL     1       3.060  -2.101  -4.956  0.00  0.00    +0.111 C 
ATOM     16  C   UNL     1       3.447  -3.114  -6.035  0.00  0.00    +0.027 C 
ATOM     17  C   UNL     1       3.163  -2.521  -7.417  0.00  0.00    +0.002 C 
ATOM     18  C   UNL     1       3.981  -1.241  -7.601  0.00  0.00    +0.000 C 
ATOM     19  C   UNL     1       3.594  -0.228  -6.522  0.00  0.00    +0.002 C 
ATOM     20  C   UNL     1       3.879  -0.821  -5.140  0.00  0.00    +0.027 C 
ENDBRANCH  14  15
ENDBRANCH   9  10
BRANCH   9  22
ATOM     21  C   UNL     1      -1.305  -3.568  -3.097  0.00  0.00    +0.002 C 
ATOM     22  C   UNL     1       0.180  -3.885  -2.906  0.00  0.00    -0.011 C 
ENDBRANCH   9  22
ENDBRANCH   1   9
BRANCH   1  23
ATOM     23  C   UNL     1       1.064  -2.690  -0.290  0.00  0.00    -0.036 C 
BRANCH  23  24
ATOM     24  C   UNL     1       0.241  -2.361   0.929  0.00  0.00    +0.001 A 
ATOM     25  C   UNL     1      -0.799  -3.159   1.276  0.00  0.00    +0.017 A 
ATOM     26  C   UNL     1      -1.575  -2.816   2.469  0.00  0.00    -0.001 A 
ATOM     27  C   UNL     1      -2.656  -3.603   2.880  0.00  0.00    +0.010 A 
ATOM     28  C   UNL     1      -3.364  -3.253   3.995  0.00  0.00    +0.004 A 
ATOM     29  C   UNL     1      -3.021  -2.122   4.723  0.00  0.00    -0.048 A 
ATOM     30  C   UNL     1      -1.959  -1.332   4.337  0.00  0.00    +0.029 A 
ATOM     31  C   UNL     1      -1.224  -1.669   3.205  0.00  0.00    +0.049 A 
ATOM     32  N   UNL     1      -0.159  -0.896   2.795  0.00  0.00    -0.322 N 
ATOM     33  H   UNL     1       0.082  -0.106   3.303  0.00  0.00    +0.169 HD
ATOM     34  C   UNL     1       0.552  -1.222   1.701  0.00  0.00    +0.251 A 
ATOM     35  O   UNL     1       1.487  -0.515   1.368  0.00  0.00    -0.268 OA
ATOM     36  C   UNL     1      -3.816  -1.754   5.949  0.00  0.00    +0.044 C 
ENDBRANCH  23  24
ENDBRANCH   1  23
TORSDOF 7
