REMARK  Name = ZINC41647796
REMARK  7 active torsions:
REMARK  status: ('A' for Active; 'I' for Inactive)
REMARK    1  A    between atoms: C_1  and  C_2
REMARK    2  A    between atoms: C_2  and  N_3
REMARK    3  A    between atoms: C_4  and  C_25
REMARK    4  A    between atoms: C_7  and  S_8
REMARK    5  A    between atoms: S_8  and  C_9
REMARK    6  A    between atoms: C_9  and  C_10
REMARK    7  A    between atoms: C_13  and  C_15
REMARK                            x       y       z     vdW  Elec       q    Type
REMARK                         _______ _______ _______ _____ _____    ______ ____
ROOT
ATOM      1  C   UNL     1      -3.295  -0.838  -3.654  0.00  0.00    +0.173 C 
ENDROOT
BRANCH   1   2
ATOM      2  C   UNL     1      -3.087  -0.602  -5.128  0.00  0.00    +0.206 A 
ATOM      3  N   UNL     1      -2.612  -1.472  -5.974  0.00  0.00    -0.220 NA
ATOM      4  C   UNL     1      -2.569  -0.913  -7.193  0.00  0.00    +0.161 A 
ATOM      5  C   UNL     1      -3.041   0.355  -7.079  0.00  0.00    +0.155 A 
ATOM      6  O   UNL     1      -3.368   0.535  -5.780  0.00  0.00    -0.439 OA
BRANCH   5   7
ATOM      7  C   UNL     1      -3.177   1.346  -8.167  0.00  0.00    +0.023 A 
ATOM      8  C   UNL     1      -2.806   1.010  -9.470  0.00  0.00    +0.015 A 
ATOM      9  C   UNL     1      -2.932   1.937 -10.483  0.00  0.00    +0.050 A 
ATOM     10  C   UNL     1      -3.428   3.206 -10.213  0.00  0.00    +0.162 A 
ATOM     11  C   UNL     1      -3.802   3.546  -8.916  0.00  0.00    +0.163 A 
ATOM     12  C   UNL     1      -3.681   2.618  -7.896  0.00  0.00    +0.061 A 
ATOM     13  O   UNL     1      -4.297   4.783  -8.636  0.00  0.00    -0.485 OA
ATOM     14  C   UNL     1      -4.062   5.806  -9.610  0.00  0.00    +0.270 C 
ATOM     15  C   UNL     1      -4.389   5.235 -10.996  0.00  0.00    +0.270 C 
ATOM     16  O   UNL     1      -3.540   4.106 -11.228  0.00  0.00    -0.485 OA
ENDBRANCH   5   7
ENDBRANCH   1   2
BRANCH   1  17
ATOM     17  S   UNL     1      -1.796  -0.363  -2.749  0.00  0.00    -0.077 S 
BRANCH  17  22
ATOM     18  N   UNL     1      -1.377  -0.498   0.014  0.00  0.00    -0.302 N 
ATOM     19  C   UNL     1      -2.111  -0.889   1.110  0.00  0.00    +0.165 A 
ATOM     20  N   UNL     1      -3.280  -1.290   0.668  0.00  0.00    -0.128 NA
ATOM     21  N   UNL     1      -3.327  -1.179  -0.611  0.00  0.00    -0.122 NA
ATOM     22  C   UNL     1      -2.193  -0.694  -1.064  0.00  0.00    +0.192 A 
BRANCH  19  23
ATOM     23  C   UNL     1      -1.666  -0.863   2.520  0.00  0.00    +0.019 A 
ATOM     24  C   UNL     1      -0.591  -0.058   2.900  0.00  0.00    +0.012 A 
ATOM     25  C   UNL     1      -0.181  -0.037   4.217  0.00  0.00    +0.016 A 
ATOM     26  C   UNL     1      -0.833  -0.814   5.160  0.00  0.00    +0.018 A 
ATOM     27  C   UNL     1      -1.899  -1.615   4.789  0.00  0.00    +0.016 A 
ATOM     28  C   UNL     1      -2.322  -1.639   3.476  0.00  0.00    +0.012 A 
ATOM     29 BR   UNL     1      -0.264  -0.780   6.963  0.00  0.00    -0.050 Br
ENDBRANCH  19  23
BRANCH  18  31
ATOM     30  C   UNL     1      -0.048   1.554   0.026  0.00  0.00    +0.027 C 
ATOM     31  C   UNL     1      -0.009   0.025   0.005  0.00  0.00    +0.122 C 
ENDBRANCH  18  31
ENDBRANCH  17  22
ENDBRANCH   1  17
TORSDOF 6
