REMARK  Name = ZINC04367058
REMARK  7 active torsions:
REMARK  status: ('A' for Active; 'I' for Inactive)
REMARK    1  A    between atoms: C_1  and  C_2
REMARK    2  A    between atoms: C_2  and  C_15
REMARK    3  A    between atoms: N_3  and  N_4
REMARK    4  A    between atoms: N_4  and  S_5
REMARK    5  A    between atoms: S_5  and  C_8
REMARK    6  A    between atoms: C_11  and  N_14
REMARK    7  A    between atoms: C_18  and  N_21
REMARK                            x       y       z     vdW  Elec       q    Type
REMARK                         _______ _______ _______ _____ _____    ______ ____
ROOT
ATOM      1  N   UNL     1       1.149   4.329   1.596  0.00  0.00    -0.136 N 
ATOM      2  H   UNL     1       0.416   4.860   1.944  0.00  0.00    +0.197 HD
ENDROOT
BRANCH   1   5
ATOM      3  C   UNL     1       1.080   5.172   4.216  0.00  0.00    +0.068 C 
ATOM      4  C   UNL     1       2.219   4.347   3.674  0.00  0.00    +0.065 C 
ATOM      5  N   UNL     1       2.213   3.970   2.433  0.00  0.00    -0.171 NA
BRANCH   4   6
ATOM      6  C   UNL     1       3.339   3.969   4.555  0.00  0.00    -0.002 A 
ATOM      7  C   UNL     1       3.350   4.379   5.890  0.00  0.00    +0.011 A 
ATOM      8  C   UNL     1       4.395   4.018   6.712  0.00  0.00    +0.023 A 
ATOM      9  C   UNL     1       5.445   3.257   6.210  0.00  0.00    +0.025 A 
ATOM     10  C   UNL     1       5.441   2.852   4.880  0.00  0.00    +0.023 A 
ATOM     11  C   UNL     1       4.396   3.204   4.054  0.00  0.00    +0.011 A 
BRANCH   9  12
ATOM     12  N   UNL     1       6.506   2.898   7.044  0.00  0.00    -0.358 N 
ATOM     13  H   UNL     1       7.239   2.367   6.696  0.00  0.00    +0.142 HD
ATOM     14  H   UNL     1       6.510   3.180   7.972  0.00  0.00    +0.142 HD
ENDBRANCH   9  12
ENDBRANCH   4   6
ENDBRANCH   1   5
BRANCH   1  15
ATOM     15  S   UNL     1       1.142   3.848   0.011  0.00  0.00    +0.086 S 
ATOM     16  O   UNL     1       2.375   4.277  -0.549  0.00  0.00    -0.149 OA
ATOM     17  O   UNL     1      -0.115   4.236  -0.526  0.00  0.00    -0.149 OA
BRANCH  15  18
ATOM     18  C   UNL     1       1.171   2.086   0.002  0.00  0.00    +0.110 A 
ATOM     19  C   UNL     1      -0.017   1.377   0.010  0.00  0.00    +0.030 A 
ATOM     20  C   UNL     1       0.002  -0.004   0.002  0.00  0.00    +0.024 A 
ATOM     21  C   UNL     1       1.215  -0.681  -0.013  0.00  0.00    +0.025 A 
ATOM     22  C   UNL     1       2.406   0.035  -0.021  0.00  0.00    +0.024 A 
ATOM     23  C   UNL     1       2.380   1.416  -0.013  0.00  0.00    +0.030 A 
BRANCH  21  24
ATOM     24  N   UNL     1       1.238  -2.077  -0.021  0.00  0.00    -0.358 N 
ATOM     25  H   UNL     1       0.406  -2.576  -0.015  0.00  0.00    +0.142 HD
ATOM     26  H   UNL     1       2.086  -2.548  -0.031  0.00  0.00    +0.142 HD
ENDBRANCH  21  24
ENDBRANCH  15  18
ENDBRANCH   1  15
TORSDOF 6
