REMARK  Name = ZINC58154863
REMARK  6 active torsions:
REMARK  status: ('A' for Active; 'I' for Inactive)
REMARK    1  A    between atoms: C_1  and  C_2
REMARK    2  A    between atoms: C_2  and  N_3
REMARK    3  A    between atoms: N_3  and  C_4
REMARK    4  A    between atoms: C_4  and  C_5
REMARK    5  A    between atoms: C_10  and  N_11
REMARK    6  A    between atoms: C_28  and  C_30
REMARK                            x       y       z     vdW  Elec       q    Type
REMARK                         _______ _______ _______ _____ _____    ______ ____
ROOT
ATOM      1  N   UNL     1       2.103  -2.614  -3.118  0.00  0.00    -0.269 N 
ATOM      2  C   UNL     1       2.033  -3.580  -4.055  0.00  0.00    +0.307 C 
ATOM      3  O   UNL     1       2.168  -4.746  -3.738  0.00  0.00    -0.252 OA
ATOM      4  N   UNL     1       1.813  -3.254  -5.344  0.00  0.00    -0.281 N 
ATOM      5  C   UNL     1       1.768  -1.847  -5.770  0.00  0.00    +0.116 C 
ATOM      6  C   UNL     1       2.931  -1.577  -6.731  0.00  0.00    +0.072 C 
ATOM      7  C   UNL     1       3.004  -2.697  -7.742  0.00  0.00    +0.023 A 
ATOM      8  C   UNL     1       2.423  -3.905  -7.577  0.00  0.00    -0.002 A 
ATOM      9  C   UNL     1       2.727  -4.691  -8.754  0.00  0.00    +0.005 A 
ATOM     10  C   UNL     1       2.399  -5.996  -9.135  0.00  0.00    +0.010 A 
ATOM     11  C   UNL     1       2.870  -6.424 -10.352  0.00  0.00    +0.001 A 
ATOM     12  C   UNL     1       3.634  -5.611 -11.173  0.00  0.00    +0.002 A 
ATOM     13  C   UNL     1       3.972  -4.316 -10.821  0.00  0.00    +0.026 A 
ATOM     14  C   UNL     1       3.509  -3.855  -9.591  0.00  0.00    +0.047 A 
ATOM     15  N   UNL     1       3.655  -2.660  -8.948  0.00  0.00    -0.358 N 
ATOM     16  H   UNL     1       4.146  -1.897  -9.293  0.00  0.00    +0.166 HD
ATOM     17  C   UNL     1       1.618  -4.297  -6.367  0.00  0.00    +0.146 C 
ATOM     18  H   UNL     1       1.922  -1.692  -3.358  0.00  0.00    +0.156 HD
ENDROOT
BRANCH   1  24
ATOM     19  C   UNL     1       1.869  -2.240  -0.743  0.00  0.00    -0.009 A 
ATOM     20  C   UNL     1       2.196  -2.570   0.558  0.00  0.00    +0.007 A 
ATOM     21  C   UNL     1       3.091  -3.594   0.809  0.00  0.00    +0.000 A 
ATOM     22  C   UNL     1       3.662  -4.290  -0.240  0.00  0.00    +0.002 A 
ATOM     23  C   UNL     1       3.339  -3.966  -1.543  0.00  0.00    +0.023 A 
ATOM     24  C   UNL     1       2.436  -2.942  -1.799  0.00  0.00    +0.039 A 
BRANCH  19  25
ATOM     25  C   UNL     1       0.894  -1.125  -1.016  0.00  0.00    +0.144 C 
BRANCH  25  26
ATOM     26  N   UNL     1      -0.447  -1.683  -1.208  0.00  0.00    -0.298 N 
ATOM     27  C   UNL     1      -0.912  -1.908  -2.453  0.00  0.00    +0.213 C 
ATOM     28  O   UNL     1      -0.187  -1.740  -3.410  0.00  0.00    -0.276 OA
ATOM     29  C   UNL     1      -2.333  -2.368  -2.655  0.00  0.00    +0.109 C 
BRANCH  26  31
ATOM     30  C   UNL     1      -2.072  -0.755   0.367  0.00  0.00    +0.024 C 
ATOM     31  C   UNL     1      -1.282  -1.998  -0.046  0.00  0.00    +0.105 C 
ENDBRANCH  26  31
ENDBRANCH  25  26
ENDBRANCH  19  25
ENDBRANCH   1  24
TORSDOF 4
