REMARK  Name = ZINC16633283
REMARK  10 active torsions:
REMARK  status: ('A' for Active; 'I' for Inactive)
REMARK    1  A    between atoms: C_1  and  C_2
REMARK    2  A    between atoms: C_2  and  C_4
REMARK    3  A    between atoms: C_2  and  N_56
REMARK    4  A    between atoms: N_6  and  C_7
REMARK    5  A    between atoms: C_12  and  C_13
REMARK    6  A    between atoms: C_13  and  C_15
REMARK    7  A    between atoms: C_21  and  N_56
REMARK    8  A    between atoms: C_22  and  C_23
REMARK    9  A    between atoms: C_22  and  N_56
REMARK   10  A    between atoms: N_25  and  C_26
REMARK                            x       y       z     vdW  Elec       q    Type
REMARK                         _______ _______ _______ _____ _____    ______ ____
ROOT
ATOM      1  C   UNL     1      -1.206   1.419   3.899  0.00  0.00    +0.203 C 
ATOM      2  O   UNL     1      -2.204   2.106   3.861  0.00  0.00    -0.277 OA
ATOM      3  N   UNL     1      -0.854   0.806   5.046  0.00  0.00    -0.286 N 
ATOM      4  H   UNL     1      -0.015   0.321   5.099  0.00  0.00    +0.155 HD
ENDROOT
BRANCH   3   5
ATOM      5  C   UNL     1      -1.694   0.867   6.154  0.00  0.00    +0.044 A 
ATOM      6  C   UNL     1      -3.055   1.085   5.987  0.00  0.00    +0.024 A 
ATOM      7  C   UNL     1      -3.887   1.140   7.087  0.00  0.00    +0.002 A 
ATOM      8  C   UNL     1      -3.372   0.990   8.366  0.00  0.00    +0.001 A 
ATOM      9  C   UNL     1      -2.023   0.777   8.552  0.00  0.00    +0.013 A 
ATOM     10  C   UNL     1      -1.169   0.713   7.447  0.00  0.00    +0.043 A 
BRANCH  10  11
ATOM     11  C   UNL     1       0.275   0.487   7.639  0.00  0.00    +0.195 C 
ATOM     12  O   UNL     1       0.685  -0.623   7.919  0.00  0.00    -0.287 OA
BRANCH  11  13
ATOM     13  C   UNL     1       1.225   1.610   7.492  0.00  0.00    +0.022 A 
ATOM     14  C   UNL     1       0.752   2.905   7.272  0.00  0.00    +0.012 A 
ATOM     15  C   UNL     1       1.644   3.949   7.142  0.00  0.00    +0.001 A 
ATOM     16  C   UNL     1       3.005   3.713   7.218  0.00  0.00    +0.000 A 
ATOM     17  C   UNL     1       3.482   2.432   7.430  0.00  0.00    +0.001 A 
ATOM     18  C   UNL     1       2.601   1.379   7.568  0.00  0.00    +0.012 A 
ENDBRANCH  11  13
ENDBRANCH  10  11
ENDBRANCH   3   5
BRANCH   1  20
ATOM     19  C   UNL     1       1.055   1.769   2.941  0.00  0.00    -0.004 C 
ATOM     20  C   UNL     1      -0.358   1.252   2.664  0.00  0.00    +0.017 C 
BRANCH  20  22
ATOM     21  C   UNL     1      -0.897   3.458   1.824  0.00  0.00    -0.094 C 
ATOM     22  N   UNL     1      -0.978   2.007   1.555  0.00  0.00    +0.391 N 
ATOM     23  H   UNL     1      -1.966   1.737   1.478  0.00  0.00    -0.080 HD
BRANCH  22  24
ATOM     24  C   UNL     1      -0.293   1.691   0.284  0.00  0.00    +0.020 C 
BRANCH  24  25
ATOM     25  C   UNL     1      -1.076   2.295  -0.854  0.00  0.00    +0.201 C 
ATOM     26  O   UNL     1      -2.082   2.933  -0.626  0.00  0.00    -0.278 OA
ATOM     27  N   UNL     1      -0.657   2.127  -2.124  0.00  0.00    -0.286 N 
ATOM     28  H   UNL     1       0.188   1.685  -2.302  0.00  0.00    +0.155 HD
BRANCH  27  29
ATOM     29  C   UNL     1      -1.443   2.589  -3.186  0.00  0.00    +0.047 A 
ATOM     30  C   UNL     1      -2.812   2.748  -3.022  0.00  0.00    +0.024 A 
ATOM     31  C   UNL     1      -3.584   3.208  -4.071  0.00  0.00    +0.002 A 
ATOM     32  C   UNL     1      -2.995   3.502  -5.287  0.00  0.00    +0.001 A 
ATOM     33  C   UNL     1      -1.633   3.341  -5.456  0.00  0.00    +0.017 A 
ATOM     34  C   UNL     1      -0.854   2.886  -4.409  0.00  0.00    +0.039 A 
ATOM     35 BR   UNL     1       1.010   2.665  -4.642  0.00  0.00    -0.048 Br
ENDBRANCH  27  29
ENDBRANCH  24  25
ENDBRANCH  22  24
ENDBRANCH  20  22
ENDBRANCH   1  20
TORSDOF 8
