REMARK  Name = ZINC21236343
REMARK  5 active torsions:
REMARK  status: ('A' for Active; 'I' for Inactive)
REMARK    1  A    between atoms: C_1  and  C_2
REMARK    2  A    between atoms: C_2  and  C_4
REMARK    3  A    between atoms: C_2  and  S_20
REMARK    4  A    between atoms: N_9  and  C_10
REMARK    5  A    between atoms: S_20  and  C_21
REMARK                            x       y       z     vdW  Elec       q    Type
REMARK                         _______ _______ _______ _____ _____    ______ ____
ROOT
ATOM      1  C   UNL     1      -2.272  -5.675   1.966  0.00  0.00    +0.029 C 
ATOM      2  C   UNL     1      -2.193  -6.333   0.586  0.00  0.00    +0.137 C 
ENDROOT
BRANCH   2   3
ATOM      3  C   UNL     1      -2.857  -7.684   0.636  0.00  0.00    +0.233 C 
ATOM      4  O   UNL     1      -2.192  -8.680   0.829  0.00  0.00    -0.274 OA
ATOM      5  N   UNL     1      -4.190  -7.787   0.465  0.00  0.00    -0.239 N 
ATOM      6  C   UNL     1      -4.784  -8.996   0.509  0.00  0.00    +0.306 C 
ATOM      7  O   UNL     1      -4.118  -9.994   0.703  0.00  0.00    -0.252 OA
ATOM      8  N   UNL     1      -6.117  -9.098   0.339  0.00  0.00    -0.294 N 
ATOM      9  H   UNL     1      -4.793  -6.884   0.290  0.00  0.00    +0.159 HD
ATOM     10  H   UNL     1      -6.720  -8.195   0.164  0.00  0.00    +0.151 HD
BRANCH   8  11
ATOM     11  C   UNL     1      -6.763 -10.412   0.387  0.00  0.00    +0.037 C 
ATOM     12  C   UNL     1      -6.180 -11.307  -0.709  0.00  0.00    +0.029 C 
ATOM     13  C   UNL     1      -6.855 -12.680  -0.659  0.00  0.00    -0.008 C 
ATOM     14  C   UNL     1      -8.360 -12.517  -0.880  0.00  0.00    +0.007 C 
ATOM     15  C   UNL     1      -8.942 -11.622   0.216  0.00  0.00    -0.008 C 
ATOM     16  C   UNL     1      -8.268 -10.249   0.166  0.00  0.00    +0.029 C 
ATOM     17  C   UNL     1      -8.694 -12.262   1.583  0.00  0.00    +0.007 C 
ATOM     18  C   UNL     1      -7.189 -12.425   1.804  0.00  0.00    -0.008 C 
ATOM     19  C   UNL     1      -6.606 -13.320   0.709  0.00  0.00    +0.007 C 
ATOM     20  C   UNL     1      -6.515 -11.053   1.754  0.00  0.00    +0.029 C 
ENDBRANCH   8  11
ENDBRANCH   2   3
BRANCH   2  21
ATOM     21  S   UNL     1      -0.458  -6.530   0.111  0.00  0.00    -0.075 S 
BRANCH  21  22
ATOM     22  C   UNL     1       0.020  -4.839  -0.015  0.00  0.00    +0.171 A 
ATOM     23  N   UNL     1       1.303  -4.546  -0.365  0.00  0.00    -0.301 N 
ATOM     24  H   UNL     1       2.018  -5.359  -0.563  0.00  0.00    +0.171 HD
ATOM     25  C   UNL     1       1.763  -3.279  -0.488  0.00  0.00    +0.261 A 
ATOM     26  O   UNL     1       2.916  -3.037  -0.802  0.00  0.00    -0.267 OA
ATOM     27  C   UNL     1       0.812  -2.240  -0.225  0.00  0.00    +0.075 A 
ATOM     28  C   UNL     1       1.051  -0.807  -0.287  0.00  0.00    -0.023 A 
ATOM     29  C   UNL     1       0.002  -0.004   0.002  0.00  0.00    -0.004 A 
ATOM     30  S   UNL     1      -1.341  -1.105   0.368  0.00  0.00    -0.073 S 
ATOM     31  C   UNL     1      -0.497  -2.637   0.133  0.00  0.00    +0.117 A 
ATOM     32  N   UNL     1      -0.885  -3.902   0.237  0.00  0.00    -0.216 NA
ATOM     33  C   UNL     1      -0.018   1.493   0.010  0.00  0.00    +0.043 C 
ATOM     34  C   UNL     1       1.431   2.000  -0.001  0.00  0.00    +0.005 C 
ATOM     35  C   UNL     1       2.207   1.244  -1.083  0.00  0.00    +0.005 C 
ATOM     36  C   UNL     1       2.406  -0.211  -0.659  0.00  0.00    +0.037 C 
ENDBRANCH  21  22
ENDBRANCH   2  21
TORSDOF 4
