REMARK  Name = ZINC03277876
REMARK  5 active torsions:
REMARK  status: ('A' for Active; 'I' for Inactive)
REMARK    1  A    between atoms: C_6  and  N_7
REMARK    2  A    between atoms: C_8  and  C_21
REMARK    3  A    between atoms: N_10  and  C_13
REMARK    4  A    between atoms: C_13  and  N_48
REMARK    5  A    between atoms: C_17  and  O_20
REMARK                            x       y       z     vdW  Elec       q    Type
REMARK                         _______ _______ _______ _____ _____    ______ ____
ROOT
ATOM      1  N   UNL     1       0.154   3.187   5.516  0.00  0.00    -0.271 N 
ATOM      2  C   UNL     1      -0.752   2.144   5.464  0.00  0.00    +0.169 A 
ATOM      3  N   UNL     1      -1.401   2.216   4.335  0.00  0.00    -0.152 NA
ATOM      4  N   UNL     1      -0.911   3.320   3.623  0.00  0.00    -0.257 N 
ATOM      5  C   UNL     1       0.044   3.900   4.378  0.00  0.00    +0.181 A 
ATOM      6  S   UNL     1       0.952   5.291   3.965  0.00  0.00    -0.011 S 
ENDROOT
BRANCH   1  12
ATOM      7  C   UNL     1       0.874   4.603   7.338  0.00  0.00    +0.029 A 
ATOM      8  C   UNL     1       1.744   4.867   8.378  0.00  0.00    +0.042 A 
ATOM      9  C   UNL     1       2.777   3.989   8.658  0.00  0.00    +0.142 A 
ATOM     10  C   UNL     1       2.941   2.844   7.895  0.00  0.00    +0.078 A 
ATOM     11  C   UNL     1       2.069   2.573   6.857  0.00  0.00    +0.049 A 
ATOM     12  C   UNL     1       1.036   3.456   6.572  0.00  0.00    +0.052 A 
ATOM     13 CL   UNL     1       4.237   1.744   8.248  0.00  0.00    -0.081 Cl
ATOM     14  F   UNL     1       3.626   4.250   9.675  0.00  0.00    -0.204 F 
ENDBRANCH   1  12
BRANCH   2  15
ATOM     15  C   UNL     1      -0.955   1.122   6.513  0.00  0.00    +0.038 A 
ATOM     16  C   UNL     1      -1.094   1.506   7.848  0.00  0.00    +0.014 A 
ATOM     17  C   UNL     1      -1.283   0.548   8.822  0.00  0.00    +0.021 A 
ATOM     18  C   UNL     1      -1.335  -0.793   8.479  0.00  0.00    +0.042 A 
ATOM     19  C   UNL     1      -1.198  -1.181   7.158  0.00  0.00    +0.040 A 
ATOM     20  C   UNL     1      -1.015  -0.231   6.172  0.00  0.00    +0.053 A 
ATOM     21 CL   UNL     1      -0.851  -0.718   4.514  0.00  0.00    -0.083 Cl
ATOM     22 CL   UNL     1      -1.574  -1.992   9.712  0.00  0.00    -0.083 Cl
ENDBRANCH   2  15
BRANCH   4  23
ATOM     23  C   UNL     1      -1.360   3.766   2.301  0.00  0.00    +0.072 C 
BRANCH  23  29
ATOM     24  C   UNL     1       0.846   3.558   1.327  0.00  0.00    -0.076 C 
ATOM     25  C   UNL     1       1.624   2.973   0.146  0.00  0.00    -0.016 C 
ATOM     26  C   UNL     1       1.554   1.444   0.203  0.00  0.00    +0.027 C 
ATOM     27  C   UNL     1       0.086   1.008   0.185  0.00  0.00    +0.098 C 
ATOM     28  C   UNL     1      -0.647   1.651   1.364  0.00  0.00    -0.045 C 
ATOM     29  N   UNL     1      -0.563   3.121   1.237  0.00  0.00    +0.394 N 
ATOM     30  H   UNL     1      -0.941   3.398   0.324  0.00  0.00    -0.079 HD
BRANCH  27  31
ATOM     31  O   UNL     1       0.010  -0.415   0.294  0.00  0.00    -0.394 OA
ATOM     32  H   UNL     1       0.457  -0.889  -0.420  0.00  0.00    +0.210 HD
ENDBRANCH  27  31
ENDBRANCH  23  29
ENDBRANCH   4  23
TORSDOF 5
