REMARK  Name = ZINC66976334
REMARK  6 active torsions:
REMARK  status: ('A' for Active; 'I' for Inactive)
REMARK    1  A    between atoms: C_1  and  C_2
REMARK    2  A    between atoms: C_2  and  C_4
REMARK    3  A    between atoms: C_2  and  N_14
REMARK    4  A    between atoms: N_17  and  C_18
REMARK    5  A    between atoms: C_18  and  C_19
REMARK    6  A    between atoms: C_19  and  O_29
REMARK                            x       y       z     vdW  Elec       q    Type
REMARK                         _______ _______ _______ _____ _____    ______ ____
ROOT
ATOM      1  N   UNL     1       0.696  -1.011   1.043  0.00  0.00    -0.290 N 
ATOM      2  C   UNL     1       2.043  -0.982   1.067  0.00  0.00    +0.300 C 
ATOM      3  O   UNL     1       2.665  -0.762   0.045  0.00  0.00    -0.253 OA
ATOM      4  N   UNL     1       2.701  -1.197   2.223  0.00  0.00    -0.296 N 
ATOM      5  H   UNL     1       0.200  -1.186   1.858  0.00  0.00    +0.151 HD
ATOM      6  H   UNL     1       2.205  -1.373   3.038  0.00  0.00    +0.150 HD
ENDROOT
BRANCH   1   8
ATOM      7  C   UNL     1      -0.194   0.728  -0.429  0.00  0.00    +0.036 C 
ATOM      8  C   UNL     1      -0.020  -0.777  -0.214  0.00  0.00    +0.137 C 
BRANCH   8   9
ATOM      9  C   UNL     1      -1.374  -1.435  -0.151  0.00  0.00    +0.128 A 
ATOM     10  N   UNL     1      -2.090  -1.849  -1.231  0.00  0.00    -0.340 N 
ATOM     11  H   UNL     1      -1.823  -1.773  -2.161  0.00  0.00    +0.167 HD
ATOM     12  C   UNL     1      -3.266  -2.397  -0.759  0.00  0.00    +0.066 A 
ATOM     13  C   UNL     1      -4.375  -2.974  -1.363  0.00  0.00    +0.028 A 
ATOM     14  C   UNL     1      -5.413  -3.437  -0.584  0.00  0.00    +0.002 A 
ATOM     15  C   UNL     1      -5.358  -3.328   0.798  0.00  0.00    +0.002 A 
ATOM     16  C   UNL     1      -4.275  -2.763   1.410  0.00  0.00    +0.030 A 
ATOM     17  C   UNL     1      -3.210  -2.287   0.640  0.00  0.00    +0.089 A 
ATOM     18  N   UNL     1      -2.026  -1.696   0.944  0.00  0.00    -0.231 NA
ENDBRANCH   8   9
ENDBRANCH   1   8
BRANCH   4  19
ATOM     19  C   UNL     1       4.166  -1.166   2.249  0.00  0.00    +0.145 C 
BRANCH  19  20
ATOM     20  C   UNL     1       4.660  -1.572   3.639  0.00  0.00    +0.107 C 
ATOM     21  C   UNL     1       4.118  -2.958   3.982  0.00  0.00    +0.041 C 
ATOM     22  C   UNL     1       4.795  -3.437   5.272  0.00  0.00    +0.008 C 
ATOM     23  C   UNL     1       6.261  -3.733   4.965  0.00  0.00    +0.035 C 
ATOM     24  C   UNL     1       6.901  -2.565   4.262  0.00  0.00    -0.041 A 
ATOM     25  C   UNL     1       6.166  -1.574   3.650  0.00  0.00    -0.011 A 
ATOM     26  C   UNL     1       6.819  -0.527   3.013  0.00  0.00    +0.007 A 
ATOM     27  C   UNL     1       8.197  -0.469   2.991  0.00  0.00    +0.000 A 
ATOM     28  C   UNL     1       8.935  -1.462   3.609  0.00  0.00    +0.000 A 
ATOM     29  C   UNL     1       8.289  -2.504   4.241  0.00  0.00    +0.004 A 
BRANCH  20  30
ATOM     30  O   UNL     1       4.183  -0.629   4.602  0.00  0.00    -0.382 OA
ATOM     31  H   UNL     1       4.480   0.278   4.445  0.00  0.00    +0.211 HD
ENDBRANCH  20  30
ENDBRANCH  19  20
ENDBRANCH   4  19
TORSDOF 5
