REMARK  Name = ZINC12885261
REMARK  10 active torsions:
REMARK  status: ('A' for Active; 'I' for Inactive)
REMARK    1  A    between atoms: C_1  and  C_2
REMARK    2  A    between atoms: C_16  and  C_18
REMARK    3  A    between atoms: C_18  and  C_19
REMARK    4  A    between atoms: N_24  and  C_27
REMARK    5  A    between atoms: C_27  and  C_28
REMARK    6  A    between atoms: C_28  and  C_29
REMARK    7  A    between atoms: C_32  and  O_37
REMARK    8  A    between atoms: C_33  and  O_35
REMARK    9  A    between atoms: O_35  and  C_36
REMARK   10  A    between atoms: O_37  and  C_38
REMARK                            x       y       z     vdW  Elec       q    Type
REMARK                         _______ _______ _______ _____ _____    ______ ____
ROOT
ATOM      1  C   UNL     1       1.911  13.629  -0.146  0.00  0.00    +0.045 C 
ATOM      2  C   UNL     1       1.616  13.178  -1.553  0.00  0.00    -0.029 A 
ATOM      3  C   UNL     1       1.269  14.104  -2.514  0.00  0.00    +0.005 A 
ATOM      4  C   UNL     1       0.997  13.699  -3.808  0.00  0.00    +0.001 A 
ATOM      5  C   UNL     1       1.073  12.357  -4.140  0.00  0.00    +0.004 A 
ATOM      6  C   UNL     1       1.419  11.430  -3.184  0.00  0.00    -0.027 A 
ATOM      7  C   UNL     1       1.696  11.826  -1.879  0.00  0.00    +0.039 A 
ATOM      8  N   UNL     1       2.021  10.716  -1.096  0.00  0.00    -0.286 N 
ATOM      9  C   UNL     1       1.983   9.569  -1.800  0.00  0.00    +0.211 C 
ATOM     10  O   UNL     1       2.218   8.454  -1.383  0.00  0.00    -0.277 OA
ATOM     11  C   UNL     1       1.592   9.937  -3.205  0.00  0.00    +0.050 C 
ATOM     12  C   UNL     1       0.302   9.226  -3.632  0.00  0.00    +0.088 C 
ATOM     13  C   UNL     1       0.786   8.004  -4.463  0.00  0.00    +0.073 C 
ATOM     14  C   UNL     1       2.328   8.073  -4.437  0.00  0.00    -0.049 C 
ATOM     15  C   UNL     1       0.329   6.821  -3.640  0.00  0.00    +0.224 C 
ATOM     16  O   UNL     1       0.501   5.657  -3.932  0.00  0.00    -0.275 OA
ATOM     17  N   UNL     1      -0.296   7.258  -2.540  0.00  0.00    -0.241 N 
ATOM     18  C   UNL     1      -0.373   8.590  -2.438  0.00  0.00    +0.225 C 
ATOM     19  O   UNL     1      -0.901   9.193  -1.529  0.00  0.00    -0.275 OA
ATOM     20  H   UNL     1       2.248  10.766  -0.154  0.00  0.00    +0.155 HD
ATOM     21  N   UNL     1       2.595   9.506  -4.163  0.00  0.00    +0.394 N 
ATOM     22  H   UNL     1       3.536   9.622  -3.768  0.00  0.00    -0.083 HD
ATOM     23  H   UNL     1       2.518  10.053  -5.029  0.00  0.00    -0.083 HD
ENDROOT
BRANCH  14  24
ATOM     24  C   UNL     1       2.902   7.648  -5.790  0.00  0.00    +0.080 C 
BRANCH  24  25
ATOM     25  C   UNL     1       4.406   7.604  -5.706  0.00  0.00    +0.209 C 
ATOM     26  O   UNL     1       4.964   7.886  -4.666  0.00  0.00    -0.276 OA
ATOM     27  N   UNL     1       5.132   7.252  -6.785  0.00  0.00    -0.329 N 
ATOM     28  H   UNL     1       4.686   7.027  -7.617  0.00  0.00    +0.145 HD
ATOM     29  H   UNL     1       6.100   7.224  -6.731  0.00  0.00    +0.145 HD
ENDBRANCH  24  25
ENDBRANCH  14  24
BRANCH  17  30
ATOM     30  C   UNL     1      -0.855   6.352  -1.533  0.00  0.00    +0.121 C 
BRANCH  30  31
ATOM     31  C   UNL     1       0.207   6.050  -0.474  0.00  0.00    +0.054 C 
BRANCH  31  32
ATOM     32  C   UNL     1      -0.368   5.119   0.562  0.00  0.00    -0.042 A 
ATOM     33  C   UNL     1      -1.003   5.634   1.677  0.00  0.00    +0.007 A 
ATOM     34  C   UNL     1      -1.532   4.784   2.629  0.00  0.00    +0.049 A 
ATOM     35  C   UNL     1      -1.432   3.411   2.465  0.00  0.00    +0.161 A 
ATOM     36  C   UNL     1      -0.787   2.893   1.346  0.00  0.00    +0.162 A 
ATOM     37  C   UNL     1      -0.259   3.751   0.395  0.00  0.00    +0.053 A 
BRANCH  36  38
ATOM     38  O   UNL     1      -0.682   1.547   1.184  0.00  0.00    -0.491 OA
ATOM     39  C   UNL     1      -0.013   1.086   0.008  0.00  0.00    +0.277 C 
ENDBRANCH  36  38
BRANCH  35  40
ATOM     40  O   UNL     1      -1.957   2.573   3.399  0.00  0.00    -0.491 OA
ATOM     41  C   UNL     1      -2.603   3.176   4.521  0.00  0.00    +0.277 C 
ENDBRANCH  35  40
ENDBRANCH  31  32
ENDBRANCH  30  31
ENDBRANCH  17  30
TORSDOF 7
