REMARK  Name = ZINC36913916
REMARK  4 active torsions:
REMARK  status: ('A' for Active; 'I' for Inactive)
REMARK    1  A    between atoms: C_7  and  N_14
REMARK    2  A    between atoms: C_8  and  C_11
REMARK    3  A    between atoms: C_11  and  N_13
REMARK    4  A    between atoms: N_14  and  C_15
REMARK                            x       y       z     vdW  Elec       q    Type
REMARK                         _______ _______ _______ _____ _____    ______ ____
ROOT
ATOM      1  C   UNL     1      -2.443  -3.350  -1.276  0.00  0.00    +0.001 A 
ATOM      2  C   UNL     1      -2.985  -2.334  -0.494  0.00  0.00    +0.002 A 
ATOM      3  C   UNL     1      -2.497  -1.064  -0.557  0.00  0.00    +0.028 A 
ATOM      4  C   UNL     1      -1.430  -0.767  -1.420  0.00  0.00    +0.073 A 
ATOM      5  C   UNL     1      -0.880  -1.803  -2.213  0.00  0.00    +0.022 A 
ATOM      6  C   UNL     1      -1.407  -3.099  -2.125  0.00  0.00    +0.012 A 
ATOM      7  C   UNL     1       0.195  -1.506  -3.083  0.00  0.00    +0.052 A 
ATOM      8  C   UNL     1       0.665  -0.183  -3.114  0.00  0.00    +0.043 A 
ATOM      9  C   UNL     1       0.058   0.780  -2.292  0.00  0.00    +0.123 A 
ATOM     10  N   UNL     1      -0.935   0.476  -1.496  0.00  0.00    -0.254 NA
ENDROOT
BRANCH   8  11
ATOM     11  C   UNL     1       1.780   0.189  -3.997  0.00  0.00    +0.080 C 
ATOM     12  S   UNL     1       2.215  -0.830  -5.302  0.00  0.00    -0.035 S 
BRANCH  11  13
ATOM     13  N   UNL     1       2.460   1.332  -3.779  0.00  0.00    -0.352 N 
ATOM     14  H   UNL     1       2.213   1.909  -3.039  0.00  0.00    +0.143 HD
ATOM     15  H   UNL     1       3.196   1.578  -4.361  0.00  0.00    +0.143 HD
ENDBRANCH  11  13
ENDBRANCH   8  11
BRANCH   7  16
ATOM     16  N   UNL     1       0.763  -2.482  -3.874  0.00  0.00    -0.313 N 
ATOM     17  H   UNL     1       1.507  -3.006  -3.539  0.00  0.00    +0.152 HD
BRANCH  16  18
ATOM     18  C   UNL     1       0.265  -2.718  -5.159  0.00  0.00    +0.045 A 
ATOM     19  C   UNL     1      -0.708  -1.882  -5.692  0.00  0.00    +0.024 A 
ATOM     20  C   UNL     1      -1.197  -2.117  -6.962  0.00  0.00    +0.002 A 
ATOM     21  C   UNL     1      -0.720  -3.183  -7.703  0.00  0.00    +0.001 A 
ATOM     22  C   UNL     1       0.248  -4.017  -7.175  0.00  0.00    +0.016 A 
ATOM     23  C   UNL     1       0.746  -3.785  -5.907  0.00  0.00    +0.034 A 
ATOM     24  I   UNL     1       2.220  -5.044  -5.112  0.00  0.00    -0.042 I 
ENDBRANCH  16  18
ENDBRANCH   7  16
TORSDOF 4
