REMARK  Name = ZINC58465097
REMARK  7 active torsions:
REMARK  status: ('A' for Active; 'I' for Inactive)
REMARK    1  A    between atoms: C_1  and  C_2
REMARK    2  A    between atoms: C_2  and  C_3
REMARK    3  A    between atoms: C_2  and  C_4
REMARK    4  A    between atoms: C_2  and  C_5
REMARK    5  A    between atoms: C_8  and  C_11
REMARK    6  A    between atoms: C_17  and  S_24
REMARK    7  A    between atoms: S_24  and  N_27
REMARK                            x       y       z     vdW  Elec       q    Type
REMARK                         _______ _______ _______ _____ _____    ______ ____
ROOT
ATOM      1  C   UNL     1       2.707  -1.868  -4.752  0.00  0.00    +0.191 C 
ATOM      2  N   UNL     1       1.740  -2.027  -5.836  0.00  0.00    -0.322 N 
ATOM      3  C   UNL     1       1.114  -0.954  -6.465  0.00  0.00    +0.057 A 
ATOM      4  C   UNL     1      -0.087  -1.178  -7.136  0.00  0.00    +0.047 A 
ATOM      5  C   UNL     1      -0.725  -0.139  -7.784  0.00  0.00    +0.069 A 
ATOM      6  C   UNL     1      -0.175   1.131  -7.774  0.00  0.00    +0.125 A 
ATOM      7  C   UNL     1       1.013   1.361  -7.104  0.00  0.00    +0.060 A 
ATOM      8  C   UNL     1       1.648   0.327  -6.449  0.00  0.00    +0.128 A 
ATOM      9  S   UNL     1       3.146   0.635  -5.562  0.00  0.00    +0.062 S 
ATOM     10  O   UNL     1       4.066   1.201  -6.485  0.00  0.00    -0.153 OA
ATOM     11  O   UNL     1       2.784   1.276  -4.346  0.00  0.00    -0.153 OA
ATOM     12  N   UNL     1       3.726  -0.880  -5.163  0.00  0.00    -0.166 NA
ATOM     13 CL   UNL     1      -2.221  -0.427  -8.616  0.00  0.00    -0.081 Cl
ATOM     14  H   UNL     1       1.525  -2.925  -6.133  0.00  0.00    +0.148 HD
ATOM     15  H   UNL     1       4.670  -1.100  -5.200  0.00  0.00    +0.150 HD
ENDROOT
BRANCH   1  19
ATOM     16  C   UNL     1       0.707  -0.490  -1.238  0.00  0.00    -0.042 A 
ATOM     17  C   UNL     1       0.036  -1.284  -2.148  0.00  0.00    +0.004 A 
ATOM     18  C   UNL     1       0.683  -1.730  -3.286  0.00  0.00    +0.007 A 
ATOM     19  C   UNL     1       2.001  -1.381  -3.513  0.00  0.00    -0.011 A 
ATOM     20  C   UNL     1       2.672  -0.586  -2.603  0.00  0.00    +0.007 A 
ATOM     21  C   UNL     1       2.024  -0.137  -1.467  0.00  0.00    +0.004 A 
BRANCH  16  23
ATOM     22  C   UNL     1      -0.019   1.526   0.010  0.00  0.00    +0.015 C 
ATOM     23  C   UNL     1       0.002  -0.004   0.002  0.00  0.00    -0.013 C 
ATOM     24  C   UNL     1       0.742  -0.511   1.242  0.00  0.00    +0.015 C 
ATOM     25  C   UNL     1      -1.433  -0.534   0.013  0.00  0.00    +0.015 C 
ENDBRANCH  16  23
ENDBRANCH   1  19
BRANCH   6  26
ATOM     26  S   UNL     1      -0.987   2.452  -8.611  0.00  0.00    +0.057 S 
ATOM     27  O   UNL     1      -2.349   2.414  -8.205  0.00  0.00    -0.153 OA
ATOM     28  O   UNL     1      -0.173   3.603  -8.439  0.00  0.00    -0.153 OA
BRANCH  26  29
ATOM     29  N   UNL     1      -0.966   2.093 -10.227  0.00  0.00    -0.203 NA
ATOM     30  H   UNL     1      -0.551   1.273 -10.537  0.00  0.00    +0.144 HD
ATOM     31  H   UNL     1      -1.368   2.704 -10.865  0.00  0.00    +0.144 HD
ENDBRANCH  26  29
ENDBRANCH   6  26
TORSDOF 4
