REMARK  Name = ZINC60344086
REMARK  9 active torsions:
REMARK  status: ('A' for Active; 'I' for Inactive)
REMARK    1  A    between atoms: C_1  and  O_2
REMARK    2  A    between atoms: O_2  and  C_3
REMARK    3  A    between atoms: C_6  and  C_9
REMARK    4  A    between atoms: C_9  and  C_11
REMARK    5  A    between atoms: C_9  and  N_23
REMARK    6  A    between atoms: C_11  and  N_12
REMARK    7  A    between atoms: C_13  and  C_15
REMARK    8  A    between atoms: C_15  and  C_16
REMARK    9  A    between atoms: C_21  and  O_22
REMARK                            x       y       z     vdW  Elec       q    Type
REMARK                         _______ _______ _______ _____ _____    ______ ____
ROOT
ATOM      1  C   UNL     1      -4.725  -2.591  -0.005  0.00  0.00    -0.020 C 
ENDROOT
BRANCH   1   2
ATOM      2  N   UNL     1      -4.496  -3.760   0.855  0.00  0.00    +0.385 N 
ATOM      3  C   UNL     1      -5.745  -4.518   0.991  0.00  0.00    -0.078 C 
ATOM      4  C   UNL     1      -5.492  -5.780   1.819  0.00  0.00    -0.019 C 
ATOM      5  C   UNL     1      -4.982  -5.380   3.207  0.00  0.00    -0.004 C 
ATOM      6  C   UNL     1      -3.720  -4.527   3.049  0.00  0.00    -0.019 C 
ATOM      7  C   UNL     1      -4.038  -3.312   2.176  0.00  0.00    -0.078 C 
ATOM      8  H   UNL     1      -3.791  -4.349   0.438  0.00  0.00    -0.081 HD
ENDBRANCH   1   2
BRANCH   1  12
ATOM      9  C   UNL     1      -1.127  -0.305  -0.292  0.00  0.00    +0.120 A 
ATOM     10  C   UNL     1      -2.351   0.338  -0.177  0.00  0.00    +0.046 A 
ATOM     11  C   UNL     1      -3.513  -0.403  -0.085  0.00  0.00    +0.005 A 
ATOM     12  C   UNL     1      -3.456  -1.785  -0.106  0.00  0.00    -0.059 A 
ATOM     13  C   UNL     1      -2.237  -2.428  -0.220  0.00  0.00    +0.005 A 
ATOM     14  C   UNL     1      -1.073  -1.691  -0.319  0.00  0.00    +0.046 A 
BRANCH   9  16
ATOM     15  C   UNL     1      -0.113   1.845  -0.349  0.00  0.00    +0.277 C 
ATOM     16  O   UNL     1       0.018   0.423  -0.383  0.00  0.00    -0.495 OA
ENDBRANCH   9  16
ENDBRANCH   1  12
BRANCH   1  17
ATOM     17  C   UNL     1      -5.145  -3.059  -1.400  0.00  0.00    +0.093 C 
BRANCH  17  18
ATOM     18  N   UNL     1      -5.451  -1.894  -2.234  0.00  0.00    -0.316 N 
ATOM     19  C   UNL     1      -5.742  -2.058  -3.540  0.00  0.00    +0.217 C 
ATOM     20  O   UNL     1      -5.750  -3.170  -4.024  0.00  0.00    -0.275 OA
ATOM     21  H   UNL     1      -5.444  -1.005  -1.846  0.00  0.00    +0.149 HD
BRANCH  19  22
ATOM     22  C   UNL     1      -6.056  -0.859  -4.398  0.00  0.00    +0.134 C 
BRANCH  22  23
ATOM     23  C   UNL     1      -6.344  -1.312  -5.806  0.00  0.00    +0.003 A 
ATOM     24  C   UNL     1      -5.335  -1.317  -6.750  0.00  0.00    +0.008 A 
ATOM     25  C   UNL     1      -5.598  -1.731  -8.043  0.00  0.00    +0.001 A 
ATOM     26  C   UNL     1      -6.871  -2.142  -8.394  0.00  0.00    +0.004 A 
ATOM     27  C   UNL     1      -7.883  -2.139  -7.453  0.00  0.00    +0.046 A 
ATOM     28  C   UNL     1      -7.620  -1.729  -6.154  0.00  0.00    +0.120 A 
BRANCH  28  29
ATOM     29  O   UNL     1      -8.612  -1.731  -5.226  0.00  0.00    -0.506 OA
ATOM     30  H   UNL     1      -9.110  -0.903  -5.180  0.00  0.00    +0.292 HD
ENDBRANCH  28  29
ENDBRANCH  22  23
ENDBRANCH  19  22
ENDBRANCH  17  18
ENDBRANCH   1  17
TORSDOF 8
