REMARK  Name = ZINC36553647
REMARK  16 active torsions:
REMARK  status: ('A' for Active; 'I' for Inactive)
REMARK    1  A    between atoms: C_1  and  C_2
REMARK    2  A    between atoms: C_2  and  C_3
REMARK    3  A    between atoms: C_2  and  C_4
REMARK    4  A    between atoms: C_2  and  C_5
REMARK    5  A    between atoms: C_5  and  C_6
REMARK    6  A    between atoms: C_6  and  C_7
REMARK    7  A    between atoms: C_6  and  C_8
REMARK    8  A    between atoms: C_6  and  N_9
REMARK    9  A    between atoms: C_10  and  C_12
REMARK   10  A    between atoms: C_12  and  C_14
REMARK   11  A    between atoms: C_12  and  N_24
REMARK   12  A    between atoms: C_16  and  N_21
REMARK   13  A    between atoms: N_24  and  C_25
REMARK   14  A    between atoms: C_32  and  C_34
REMARK   15  A    between atoms: C_34  and  O_35
REMARK   16  A    between atoms: O_35  and  C_36
REMARK                            x       y       z     vdW  Elec       q    Type
REMARK                         _______ _______ _______ _____ _____    ______ ____
ROOT
ATOM      1  C   UNL     1       5.242  -0.333  -4.242  0.00  0.00    +0.199 C 
ENDROOT
BRANCH   1   2
ATOM      2  C   UNL     1       5.032  -1.767  -4.655  0.00  0.00    +0.003 A 
ATOM      3  C   UNL     1       5.899  -2.749  -4.210  0.00  0.00    +0.040 A 
ATOM      4  C   UNL     1       5.707  -4.064  -4.590  0.00  0.00    +0.127 A 
ATOM      5  C   UNL     1       4.648  -4.399  -5.413  0.00  0.00    +0.034 A 
ATOM      6  C   UNL     1       3.781  -3.419  -5.858  0.00  0.00    +0.022 A 
ATOM      7  C   UNL     1       3.969  -2.103  -5.474  0.00  0.00    +0.047 A 
ATOM      8 CL   UNL     1       2.877  -0.872  -6.026  0.00  0.00    -0.083 Cl
BRANCH   4   9
ATOM      9  N   UNL     1       6.635  -5.114  -4.114  0.00  0.00    +0.056 N 
ATOM     10  O   UNL     1       7.561  -4.822  -3.394  0.00  0.00    -0.126 OA
ATOM     11  O   UNL     1       6.467  -6.265  -4.446  0.00  0.00    -0.126 OA
ENDBRANCH   4   9
ENDBRANCH   1   2
BRANCH   1  13
ATOM     12  N   UNL     1       3.306  -0.398  -2.704  0.00  0.00    -0.308 N 
ATOM     13  C   UNL     1       4.606  -0.100  -2.896  0.00  0.00    +0.239 C 
ATOM     14  O   UNL     1       5.265   0.356  -1.985  0.00  0.00    -0.273 OA
ATOM     15  H   UNL     1       2.789  -0.798  -3.421  0.00  0.00    +0.149 HD
BRANCH  12  16
ATOM     16  C   UNL     1       2.673  -0.118  -1.413  0.00  0.00    +0.030 C 
ATOM     17  C   UNL     1       3.074   1.281  -0.941  0.00  0.00    +0.031 C 
ATOM     18  C   UNL     1       3.132  -1.154  -0.385  0.00  0.00    +0.031 C 
BRANCH  16  19
ATOM     19  C   UNL     1       1.152  -0.189  -1.565  0.00  0.00    +0.031 C 
BRANCH  19  21
ATOM     20  C   UNL     1       0.921  -0.354  -4.047  0.00  0.00    +0.010 C 
ATOM     21  C   UNL     1       0.731   0.557  -2.832  0.00  0.00    -0.036 C 
ATOM     22  C   UNL     1       1.591   1.811  -2.996  0.00  0.00    +0.010 C 
ATOM     23  C   UNL     1      -0.741   0.959  -2.722  0.00  0.00    +0.010 C 
ENDBRANCH  19  21
ENDBRANCH  16  19
ENDBRANCH  12  16
ENDBRANCH   1  13
BRANCH   1  24
ATOM     24  N   UNL     1       6.678  -0.055  -4.158  0.00  0.00    -0.253 N 
ATOM     25  C   UNL     1       7.420   0.003  -5.282  0.00  0.00    +0.246 C 
ATOM     26  O   UNL     1       6.885  -0.081  -6.367  0.00  0.00    -0.273 OA
BRANCH  24  27
ATOM     27  C   UNL     1       7.280   0.151  -2.912  0.00  0.00    +0.039 A 
ATOM     28  C   UNL     1       7.223  -0.839  -1.939  0.00  0.00    +0.023 A 
ATOM     29  C   UNL     1       7.817  -0.633  -0.710  0.00  0.00    +0.003 A 
ATOM     30  C   UNL     1       8.468   0.558  -0.445  0.00  0.00    +0.020 A 
ATOM     31  C   UNL     1       8.527   1.547  -1.411  0.00  0.00    +0.043 A 
ATOM     32  C   UNL     1       7.939   1.344  -2.646  0.00  0.00    +0.043 A 
ATOM     33 CL   UNL     1       9.345   3.041  -1.075  0.00  0.00    -0.083 Cl
ENDBRANCH  24  27
BRANCH  25  34
ATOM     34  C   UNL     1       8.915   0.172  -5.190  0.00  0.00    +0.255 C 
BRANCH  34  35
ATOM     35  O   UNL     1       9.485   0.084  -6.498  0.00  0.00    -0.374 OA
ATOM     36  C   UNL     1      10.906   0.232  -6.523  0.00  0.00    +0.194 C 
ENDBRANCH  34  35
ENDBRANCH  25  34
ENDBRANCH   1  24
TORSDOF 10
