REMARK  Name = ZINC16608210
REMARK  5 active torsions:
REMARK  status: ('A' for Active; 'I' for Inactive)
REMARK    1  A    between atoms: C_1  and  C_2
REMARK    2  A    between atoms: N_6  and  C_18
REMARK    3  A    between atoms: C_21  and  C_24
REMARK    4  A    between atoms: N_26  and  C_27
REMARK    5  A    between atoms: C_27  and  C_28
REMARK                            x       y       z     vdW  Elec       q    Type
REMARK                         _______ _______ _______ _____ _____    ______ ____
ROOT
ATOM      1  C   UNL     1      -1.976   1.039   1.957  0.00  0.00    +0.029 C 
ATOM      2  C   UNL     1      -0.737   1.438   2.761  0.00  0.00    +0.132 C 
ATOM      3  C   UNL     1      -0.680   2.944   2.974  0.00  0.00    +0.234 C 
ATOM      4  O   UNL     1      -1.383   3.490   3.797  0.00  0.00    -0.274 OA
ATOM      5  N   UNL     1       0.173   3.638   2.220  0.00  0.00    -0.243 N 
ATOM      6  C   UNL     1       1.003   2.924   1.256  0.00  0.00    +0.193 C 
ATOM      7  S   UNL     1       0.808   1.177   1.782  0.00  0.00    -0.108 S 
ATOM      8  C   UNL     1       0.562   3.109  -0.163  0.00  0.00    +0.017 A 
ATOM      9  C   UNL     1      -0.627   2.907  -0.828  0.00  0.00    +0.009 A 
ATOM     10  C   UNL     1      -0.720   3.181  -2.181  0.00  0.00    +0.000 A 
ATOM     11  C   UNL     1       0.384   3.659  -2.864  0.00  0.00    +0.002 A 
ATOM     12  C   UNL     1       1.577   3.862  -2.203  0.00  0.00    +0.024 A 
ATOM     13  C   UNL     1       1.681   3.589  -0.842  0.00  0.00    +0.040 A 
ATOM     14  N   UNL     1       2.762   3.711   0.035  0.00  0.00    -0.282 N 
ATOM     15  C   UNL     1       2.443   3.336   1.291  0.00  0.00    +0.256 C 
ATOM     16  O   UNL     1       3.177   3.334   2.257  0.00  0.00    -0.272 OA
ATOM     17  H   UNL     1       3.640   4.028  -0.230  0.00  0.00    +0.155 HD
ENDROOT
BRANCH   5  18
ATOM     18  C   UNL     1       0.270   5.023   2.352  0.00  0.00    +0.039 A 
ATOM     19  C   UNL     1       1.097   5.571   3.328  0.00  0.00    +0.024 A 
ATOM     20  C   UNL     1       1.199   6.938   3.456  0.00  0.00    +0.015 A 
ATOM     21  C   UNL     1       0.464   7.775   2.613  0.00  0.00    +0.037 A 
ATOM     22  C   UNL     1      -0.370   7.221   1.637  0.00  0.00    +0.015 A 
ATOM     23  C   UNL     1      -0.463   5.854   1.510  0.00  0.00    +0.024 A 
BRANCH  21  24
ATOM     24  C   UNL     1       0.567   9.241   2.752  0.00  0.00    +0.244 C 
ATOM     25  O   UNL     1      -0.073   9.968   2.017  0.00  0.00    -0.270 OA
ATOM     26  N   UNL     1       1.371   9.774   3.693  0.00  0.00    -0.307 N 
ATOM     27  H   UNL     1       1.882   9.194   4.279  0.00  0.00    +0.149 HD
BRANCH  26  28
ATOM     28  C   UNL     1       1.474  11.228   3.831  0.00  0.00    +0.139 C 
BRANCH  28  29
ATOM     29  C   UNL     1       2.430  11.561   4.947  0.00  0.00    -0.030 A 
ATOM     30  C   UNL     1       1.961  11.709   6.239  0.00  0.00    +0.005 A 
ATOM     31  C   UNL     1       2.839  12.010   7.263  0.00  0.00    +0.000 A 
ATOM     32  C   UNL     1       4.185  12.172   6.994  0.00  0.00    +0.000 A 
ATOM     33  C   UNL     1       4.654  12.029   5.701  0.00  0.00    +0.000 A 
ATOM     34  C   UNL     1       3.777  11.724   4.678  0.00  0.00    +0.005 A 
ENDBRANCH  28  29
ENDBRANCH  26  28
ENDBRANCH  21  24
ENDBRANCH   5  18
TORSDOF 4
