REMARK  Name = ZINC11635273
REMARK  5 active torsions:
REMARK  status: ('A' for Active; 'I' for Inactive)
REMARK    1  A    between atoms: C_1  and  C_2
REMARK    2  A    between atoms: C_7  and  S_8
REMARK    3  A    between atoms: S_8  and  N_11
REMARK    4  A    between atoms: N_11  and  C_12
REMARK    5  A    between atoms: C_15  and  O_22
REMARK                            x       y       z     vdW  Elec       q    Type
REMARK                         _______ _______ _______ _____ _____    ______ ____
ROOT
ATOM      1  S   UNL     1      -3.064   1.738  -0.391  0.00  0.00    +0.073 S 
ATOM      2  O   UNL     1      -2.981   0.420  -0.917  0.00  0.00    -0.150 OA
ATOM      3  O   UNL     1      -4.306   2.385  -0.150  0.00  0.00    -0.150 OA
ENDROOT
BRANCH   1  10
ATOM      4  C   UNL     1      -0.278   0.631  -0.034  0.00  0.00    +0.046 C 
ATOM      5  C   UNL     1      -0.920   1.194   1.208  0.00  0.00    -0.022 A 
ATOM      6  C   UNL     1      -0.231   1.184   2.405  0.00  0.00    +0.033 A 
ATOM      7  C   UNL     1      -0.822   1.702   3.546  0.00  0.00    +0.067 A 
ATOM      8  C   UNL     1      -2.112   2.232   3.481  0.00  0.00    +0.069 A 
ATOM      9  C   UNL     1      -2.797   2.238   2.276  0.00  0.00    +0.057 A 
ATOM     10  C   UNL     1      -2.197   1.724   1.143  0.00  0.00    +0.113 A 
ATOM     11  N   UNL     1      -2.433   2.669   4.765  0.00  0.00    -0.306 N 
ATOM     12  H   UNL     1      -3.268   3.085   5.031  0.00  0.00    +0.170 HD
ATOM     13  C   UNL     1      -1.386   2.417   5.572  0.00  0.00    +0.325 A 
ATOM     14  O   UNL     1      -1.339   2.675   6.761  0.00  0.00    -0.247 OA
ATOM     15  N   UNL     1      -0.399   1.833   4.867  0.00  0.00    -0.306 N 
ATOM     16  H   UNL     1       0.461   1.552   5.218  0.00  0.00    +0.170 HD
ENDBRANCH   1  10
BRANCH   1  17
ATOM     17  N   UNL     1      -2.215   2.714  -1.425  0.00  0.00    -0.216 N 
ATOM     18  H   UNL     1      -1.767   2.331  -2.196  0.00  0.00    +0.174 HD
BRANCH  17  19
ATOM     19  C   UNL     1      -2.144   4.088  -1.187  0.00  0.00    +0.056 A 
ATOM     20  C   UNL     1      -2.082   4.567   0.103  0.00  0.00    +0.029 A 
ATOM     21  C   UNL     1      -2.010   5.935   0.353  0.00  0.00    +0.048 A 
ATOM     22  C   UNL     1      -1.999   6.838  -0.671  0.00  0.00    +0.125 A 
ATOM     23  C   UNL     1      -2.062   6.387  -2.004  0.00  0.00    +0.025 A 
ATOM     24  C   UNL     1      -2.128   4.996  -2.267  0.00  0.00    +0.008 A 
ATOM     25  C   UNL     1      -2.196   4.549  -3.596  0.00  0.00    +0.010 A 
ATOM     26  C   UNL     1      -2.186   5.454  -4.613  0.00  0.00    +0.001 A 
ATOM     27  C   UNL     1      -2.114   6.821  -4.356  0.00  0.00    +0.001 A 
ATOM     28  C   UNL     1      -2.053   7.291  -3.079  0.00  0.00    +0.012 A 
BRANCH  22  29
ATOM     29  O   UNL     1      -1.928   8.169  -0.405  0.00  0.00    -0.506 OA
ATOM     30  H   UNL     1      -1.026   8.513  -0.355  0.00  0.00    +0.292 HD
ENDBRANCH  22  29
ENDBRANCH  17  19
ENDBRANCH   1  17
TORSDOF 4
