REMARK  Name = ZINC39359537
REMARK  3 active torsions:
REMARK  status: ('A' for Active; 'I' for Inactive)
REMARK    1  A    between atoms: C_6  and  C_7
REMARK    2  A    between atoms: C_19  and  N_23
REMARK    3  A    between atoms: C_20  and  C_21
REMARK                            x       y       z     vdW  Elec       q    Type
REMARK                         _______ _______ _______ _____ _____    ______ ____
ROOT
ATOM      1  C   UNL     1      -1.293  -0.775   0.010  0.00  0.00    +0.082 C 
ATOM      2  C   UNL     1      -1.375  -1.641  -1.248  0.00  0.00    +0.155 C 
ATOM      3  C   UNL     1      -2.503  -2.629  -0.990  0.00  0.00    +0.137 C 
ATOM      4  N   UNL     1      -3.516  -2.647  -1.808  0.00  0.00    -0.204 NA
ATOM      5  C   UNL     1      -3.599  -1.804  -2.843  0.00  0.00    +0.206 C 
ATOM      6  N   UNL     1      -2.705  -0.878  -3.138  0.00  0.00    -0.147 NA
ATOM      7  C   UNL     1      -1.578  -0.706  -2.426  0.00  0.00    +0.250 C 
ATOM      8  O   UNL     1      -0.763   0.154  -2.703  0.00  0.00    -0.273 OA
ATOM      9  N   UNL     1      -4.693  -1.909  -3.658  0.00  0.00    -0.329 N 
ATOM     10  N   UNL     1      -2.403  -3.429   0.104  0.00  0.00    -0.185 NA
ATOM     11  C   UNL     1      -1.879  -2.865   1.252  0.00  0.00    +0.106 C 
ATOM     12  C   UNL     1      -1.350  -1.639   1.238  0.00  0.00    +0.073 C 
ATOM     13  H   UNL     1      -5.372  -2.577  -3.475  0.00  0.00    +0.145 HD
ATOM     14  H   UNL     1      -4.790  -1.315  -4.420  0.00  0.00    +0.145 HD
ENDROOT
BRANCH   1  20
ATOM     15  C   UNL     1      -0.017   1.378   0.010  0.00  0.00    +0.007 A 
ATOM     16  C   UNL     1       1.170   2.086   0.002  0.00  0.00    +0.038 A 
ATOM     17  C   UNL     1       2.379   1.410  -0.013  0.00  0.00    +0.123 A 
ATOM     18  C   UNL     1       2.396   0.026  -0.021  0.00  0.00    +0.038 A 
ATOM     19  C   UNL     1       1.208  -0.680  -0.013  0.00  0.00    +0.007 A 
ATOM     20  C   UNL     1       0.002  -0.004   0.002  0.00  0.00    -0.038 A 
ATOM     21  F   UNL     1       3.540   2.101  -0.021  0.00  0.00    -0.205 F 
ENDBRANCH   1  20
BRANCH  11  22
ATOM     22  N   UNL     1      -1.902  -3.592   2.447  0.00  0.00    -0.403 NA
ATOM     23  H   UNL     1      -2.329  -4.491   2.285  0.00  0.00    +0.122 HD
ATOM     24  H   UNL     1      -0.958  -3.723   2.779  0.00  0.00    +0.122 HD
ATOM     25  H   UNL     1      -2.434  -3.085   3.138  0.00  0.00    +0.122 HD
ENDBRANCH  11  22
BRANCH  12  26
ATOM     26  C   UNL     1      -0.812  -1.120   2.460  0.00  0.00    +0.099 C 
ATOM     27  N   UNL     1      -0.385  -0.709   3.429  0.00  0.00    -0.191 NA
ENDBRANCH  12  26
TORSDOF 3
