REMARK  Name = ZINC13033742
REMARK  8 active torsions:
REMARK  status: ('A' for Active; 'I' for Inactive)
REMARK    1  A    between atoms: C_6  and  C_7
REMARK    2  A    between atoms: C_7  and  N_64
REMARK    3  A    between atoms: C_8  and  C_9
REMARK    4  A    between atoms: C_8  and  N_64
REMARK    5  A    between atoms: C_25  and  C_26
REMARK    6  A    between atoms: C_25  and  N_64
REMARK    7  A    between atoms: N_30  and  C_31
REMARK    8  A    between atoms: C_31  and  C_32
REMARK                            x       y       z     vdW  Elec       q    Type
REMARK                         _______ _______ _______ _____ _____    ______ ____
ROOT
ATOM      1  N   UNL     1       1.389   1.736  -0.372  0.00  0.00    +0.390 N 
ATOM      2  H   UNL     1       1.786   1.400  -1.258  0.00  0.00    -0.080 HD
ENDROOT
BRANCH   1   3
ATOM      3  C   UNL     1       0.046   1.144  -0.193  0.00  0.00    -0.042 C 
BRANCH   3   9
ATOM      4  C   UNL     1       0.120  -0.902  -1.632  0.00  0.00    +0.004 A 
ATOM      5  C   UNL     1       0.217  -2.272  -1.792  0.00  0.00    +0.038 A 
ATOM      6  C   UNL     1       0.331  -3.091  -0.682  0.00  0.00    +0.123 A 
ATOM      7  C   UNL     1       0.352  -2.537   0.587  0.00  0.00    +0.038 A 
ATOM      8  C   UNL     1       0.261  -1.167   0.744  0.00  0.00    +0.004 A 
ATOM      9  C   UNL     1       0.147  -0.350  -0.365  0.00  0.00    -0.064 A 
ATOM     10  F   UNL     1       0.421  -4.430  -0.836  0.00  0.00    -0.205 F 
ENDBRANCH   3   9
ENDBRANCH   1   3
BRANCH   1  11
ATOM     11  C   UNL     1       2.275   1.325   0.737  0.00  0.00    -0.036 C 
BRANCH  11  12
ATOM     12  C   UNL     1       3.700   1.634   0.359  0.00  0.00    +0.001 A 
ATOM     13  C   UNL     1       4.283   2.780   0.795  0.00  0.00    +0.017 A 
ATOM     14  C   UNL     1       5.669   3.048   0.415  0.00  0.00    +0.002 A 
ATOM     15  C   UNL     1       6.322   4.212   0.839  0.00  0.00    +0.059 A 
ATOM     16  C   UNL     1       7.628   4.440   0.461  0.00  0.00    +0.163 A 
ATOM     17  C   UNL     1       8.301   3.515  -0.343  0.00  0.00    +0.164 A 
ATOM     18  C   UNL     1       7.662   2.362  -0.768  0.00  0.00    +0.075 A 
ATOM     19  C   UNL     1       6.347   2.118  -0.397  0.00  0.00    +0.053 A 
ATOM     20  N   UNL     1       5.695   0.974  -0.812  0.00  0.00    -0.322 N 
ATOM     21  H   UNL     1       6.162   0.334  -1.371  0.00  0.00    +0.169 HD
ATOM     22  C   UNL     1       4.422   0.734  -0.452  0.00  0.00    +0.251 A 
ATOM     23  O   UNL     1       3.878  -0.286  -0.837  0.00  0.00    -0.268 OA
ATOM     24  O   UNL     1       9.591   3.731  -0.718  0.00  0.00    -0.485 OA
ATOM     25  C   UNL     1      10.083   5.069  -0.589  0.00  0.00    +0.270 C 
ATOM     26  C   UNL     1       9.678   5.601   0.792  0.00  0.00    +0.270 C 
ATOM     27  O   UNL     1       8.249   5.578   0.879  0.00  0.00    -0.485 OA
ENDBRANCH  11  12
ENDBRANCH   1  11
BRANCH   1  28
ATOM     28  C   UNL     1       1.288   3.210  -0.419  0.00  0.00    +0.001 C 
BRANCH  28  29
ATOM     29  C   UNL     1       0.566   3.608  -1.680  0.00  0.00    +0.135 A 
ATOM     30  N   UNL     1       1.108   3.851  -2.849  0.00  0.00    -0.115 NA
ATOM     31  N   UNL     1       0.163   4.157  -3.669  0.00  0.00    -0.023 NA
ATOM     32  N   UNL     1      -0.966   4.124  -3.053  0.00  0.00    -0.044 NA
ATOM     33  N   UNL     1      -0.760   3.789  -1.824  0.00  0.00    -0.229 N 
BRANCH  33  34
ATOM     34  C   UNL     1      -1.777   3.635  -0.781  0.00  0.00    +0.178 C 
BRANCH  34  35
ATOM     35  C   UNL     1      -1.980   4.972  -0.065  0.00  0.00    +0.140 C 
ATOM     36  C   UNL     1      -2.965   4.793   1.110  0.00  0.00    +0.035 C 
ATOM     37  C   UNL     1      -3.803   6.099   1.039  0.00  0.00    +0.031 C 
ATOM     38  C   UNL     1      -3.841   6.342  -0.490  0.00  0.00    +0.160 C 
ATOM     39  O   UNL     1      -2.552   5.925  -0.969  0.00  0.00    -0.375 OA
ENDBRANCH  34  35
ENDBRANCH  33  34
ENDBRANCH  28  29
ENDBRANCH   1  28
TORSDOF 8
