REMARK  Name = ZINC59385899
REMARK  9 active torsions:
REMARK  status: ('A' for Active; 'I' for Inactive)
REMARK    1  A    between atoms: C_1  and  C_2
REMARK    2  A    between atoms: C_2  and  O_3
REMARK    3  A    between atoms: O_3  and  C_4
REMARK    4  A    between atoms: C_7  and  C_10
REMARK    5  A    between atoms: C_12  and  C_19
REMARK    6  A    between atoms: C_13  and  C_18
REMARK    7  A    between atoms: N_21  and  N_22
REMARK    8  A    between atoms: C_23  and  C_24
REMARK    9  A    between atoms: C_27  and  O_30
REMARK                            x       y       z     vdW  Elec       q    Type
REMARK                         _______ _______ _______ _____ _____    ______ ____
ROOT
ATOM      1  C   UNL     1       0.979  -6.022   1.862  0.00  0.00    +0.142 C 
ATOM      2  C   UNL     1       0.093  -6.567   2.964  0.00  0.00    +0.057 C 
ATOM      3  C   UNL     1       0.694  -7.149   4.023  0.00  0.00    +0.019 C 
ATOM      4  N   UNL     1       2.055  -7.242   4.098  0.00  0.00    -0.273 N 
ATOM      5  C   UNL     1       2.884  -6.777   3.155  0.00  0.00    +0.304 C 
ATOM      6  O   UNL     1       4.083  -6.906   3.310  0.00  0.00    -0.252 OA
ATOM      7  N   UNL     1       2.433  -6.172   2.039  0.00  0.00    -0.288 N 
ATOM      8  C   UNL     1      -0.150  -7.704   5.141  0.00  0.00    +0.061 C 
ATOM      9  H   UNL     1       2.443  -7.668   4.879  0.00  0.00    +0.156 HD
ATOM     10  H   UNL     1       3.051  -5.843   1.369  0.00  0.00    +0.151 HD
ENDROOT
BRANCH   1  14
ATOM     11  C   UNL     1       0.128  -1.856   1.429  0.00  0.00    +0.121 A 
ATOM     12  C   UNL     1      -0.471  -2.779   0.584  0.00  0.00    +0.046 A 
ATOM     13  C   UNL     1      -0.194  -4.125   0.726  0.00  0.00    +0.009 A 
ATOM     14  C   UNL     1       0.679  -4.553   1.709  0.00  0.00    -0.022 A 
ATOM     15  C   UNL     1       1.277  -3.635   2.553  0.00  0.00    +0.009 A 
ATOM     16  C   UNL     1       1.008  -2.287   2.412  0.00  0.00    +0.046 A 
BRANCH  11  17
ATOM     17  O   UNL     1      -0.142  -0.531   1.292  0.00  0.00    -0.492 OA
BRANCH  17  19
ATOM     18  C   UNL     1      -1.236   1.360   0.258  0.00  0.00    +0.048 C 
ATOM     19  C   UNL     1      -1.058  -0.160   0.259  0.00  0.00    +0.225 C 
ENDBRANCH  17  19
ENDBRANCH  11  17
ENDBRANCH   1  14
BRANCH   2  20
ATOM     20  C   UNL     1      -1.318  -6.469   2.885  0.00  0.00    +0.263 C 
ATOM     21  O   UNL     1      -1.947  -7.265   2.211  0.00  0.00    -0.269 OA
ATOM     22  N   UNL     1      -1.964  -5.495   3.555  0.00  0.00    -0.203 N 
ATOM     23  H   UNL     1      -1.472  -4.905   4.147  0.00  0.00    +0.178 HD
BRANCH  22  24
ATOM     24  N   UNL     1      -3.347  -5.335   3.398  0.00  0.00    -0.187 NA
ATOM     25  C   UNL     1      -3.970  -4.397   4.043  0.00  0.00    +0.138 C 
BRANCH  25  26
ATOM     26  C   UNL     1      -5.425  -4.228   3.877  0.00  0.00    -0.005 A 
ATOM     27  C   UNL     1      -6.137  -5.081   3.030  0.00  0.00    +0.013 A 
ATOM     28  C   UNL     1      -7.497  -4.920   2.878  0.00  0.00    +0.046 A 
ATOM     29  C   UNL     1      -8.160  -3.912   3.566  0.00  0.00    +0.117 A 
ATOM     30  C   UNL     1      -7.457  -3.062   4.410  0.00  0.00    +0.046 A 
ATOM     31  C   UNL     1      -6.097  -3.219   4.572  0.00  0.00    +0.013 A 
BRANCH  29  32
ATOM     32  O   UNL     1      -9.501  -3.757   3.413  0.00  0.00    -0.507 OA
ATOM     33  H   UNL     1     -10.031  -4.265   4.043  0.00  0.00    +0.292 HD
ENDBRANCH  29  32
ENDBRANCH  25  26
ENDBRANCH  22  24
ENDBRANCH   2  20
TORSDOF 7
