REMARK  Name = ZINC27605798
REMARK  11 active torsions:
REMARK  status: ('A' for Active; 'I' for Inactive)
REMARK    1  A    between atoms: C_1  and  C_2
REMARK    2  A    between atoms: C_2  and  O_3
REMARK    3  A    between atoms: O_3  and  C_4
REMARK    4  A    between atoms: C_7  and  C_10
REMARK    5  A    between atoms: N_16  and  C_17
REMARK    6  A    between atoms: C_17  and  C_18
REMARK    7  A    between atoms: C_18  and  C_19
REMARK    8  A    between atoms: N_21  and  C_22
REMARK    9  A    between atoms: C_22  and  C_23
REMARK   10  A    between atoms: C_23  and  C_25
REMARK   11  A    between atoms: C_23  and  N_30
REMARK                            x       y       z     vdW  Elec       q    Type
REMARK                         _______ _______ _______ _____ _____    ______ ____
ROOT
ATOM      1  C   UNL     1       1.824  -6.178   5.197  0.00  0.00    +0.117 C 
ENDROOT
BRANCH   1   2
ATOM      2  C   UNL     1       2.513  -5.299   6.208  0.00  0.00    +0.215 C 
ATOM      3  O   UNL     1       3.598  -4.819   5.955  0.00  0.00    -0.276 OA
ATOM      4  N   UNL     1       1.925  -5.046   7.394  0.00  0.00    -0.316 N 
ATOM      5  H   UNL     1       1.057  -5.430   7.596  0.00  0.00    +0.149 HD
BRANCH   4   6
ATOM      6  C   UNL     1       2.595  -4.191   8.377  0.00  0.00    +0.094 C 
BRANCH   6   7
ATOM      7  C   UNL     1       1.673  -3.977   9.579  0.00  0.00    -0.013 C 
BRANCH   7   8
ATOM      8  N   UNL     1       2.297  -3.029  10.512  0.00  0.00    +0.386 N 
ATOM      9  C   UNL     1       1.456  -2.894  11.721  0.00  0.00    -0.078 C 
ATOM     10  C   UNL     1       1.583  -1.405  12.127  0.00  0.00    -0.020 C 
ATOM     11  C   UNL     1       1.625  -0.705  10.742  0.00  0.00    -0.020 C 
ATOM     12  C   UNL     1       2.413  -1.706   9.871  0.00  0.00    -0.078 C 
ATOM     13  H   UNL     1       3.213  -3.361  10.773  0.00  0.00    -0.081 HD
ENDBRANCH   7   8
BRANCH   7  14
ATOM     14  C   UNL     1       1.444  -5.292  10.278  0.00  0.00    -0.022 A 
ATOM     15  C   UNL     1       0.384  -6.133  10.190  0.00  0.00    +0.009 A 
ATOM     16  C   UNL     1       0.390  -7.299  10.931  0.00  0.00    +0.008 A 
ATOM     17  C   UNL     1       1.456  -7.569  11.724  0.00  0.00    +0.045 A 
ATOM     18  S   UNL     1       2.502  -6.152  11.431  0.00  0.00    -0.103 S 
ENDBRANCH   7  14
ENDBRANCH   6   7
ENDBRANCH   4   6
ENDBRANCH   1   2
BRANCH   1  19
ATOM     19  C   UNL     1       2.700  -6.302   3.948  0.00  0.00    +0.135 C 
BRANCH  19  26
ATOM     20  C   UNL     1       1.226  -6.505   1.896  0.00  0.00    +0.163 A 
ATOM     21  N   UNL     1       0.739  -7.475   1.174  0.00  0.00    -0.153 NA
ATOM     22  N   UNL     1       1.169  -8.688   1.730  0.00  0.00    -0.254 N 
ATOM     23  H   UNL     1       0.959  -9.576   1.401  0.00  0.00    +0.191 HD
ATOM     24  C   UNL     1       1.927  -8.394   2.806  0.00  0.00    +0.176 A 
ATOM     25  S   UNL     1       2.696  -9.523   3.839  0.00  0.00    -0.011 S 
ATOM     26  N   UNL     1       1.977  -7.052   2.918  0.00  0.00    -0.303 N 
BRANCH  20  30
ATOM     27  C   UNL     1       0.624  -2.354   1.208  0.00  0.00    +0.121 A 
ATOM     28  C   UNL     1       1.011  -2.799   2.465  0.00  0.00    +0.046 A 
ATOM     29  C   UNL     1       1.207  -4.144   2.692  0.00  0.00    +0.015 A 
ATOM     30  C   UNL     1       1.016  -5.060   1.657  0.00  0.00    +0.019 A 
ATOM     31  C   UNL     1       0.627  -4.609   0.394  0.00  0.00    +0.015 A 
ATOM     32  C   UNL     1       0.428  -3.263   0.176  0.00  0.00    +0.046 A 
BRANCH  27  33
ATOM     33  O   UNL     1       0.432  -1.028   0.988  0.00  0.00    -0.492 OA
BRANCH  33  35
ATOM     34  C   UNL     1       0.387   1.294   1.657  0.00  0.00    +0.048 C 
ATOM     35  C   UNL     1       0.651  -0.148   2.093  0.00  0.00    +0.225 C 
ENDBRANCH  33  35
ENDBRANCH  27  33
ENDBRANCH  20  30
ENDBRANCH  19  26
ENDBRANCH   1  19
TORSDOF 10
