REMARK  Name = ZINC63818602
REMARK  6 active torsions:
REMARK  status: ('A' for Active; 'I' for Inactive)
REMARK    1  A    between atoms: C_1  and  C_2
REMARK    2  A    between atoms: C_3  and  O_30
REMARK    3  A    between atoms: C_11  and  C_16
REMARK    4  A    between atoms: C_13  and  C_15
REMARK    5  A    between atoms: C_16  and  C_17
REMARK    6  A    between atoms: N_19  and  C_20
REMARK                            x       y       z     vdW  Elec       q    Type
REMARK                         _______ _______ _______ _____ _____    ______ ____
ROOT
ATOM      1  C   UNL     1      -0.223   1.432   0.147  0.00  0.00    +0.051 C 
ATOM      2  C   UNL     1      -0.151  -0.073   0.117  0.00  0.00    +0.034 A 
ATOM      3  C   UNL     1      -0.157  -0.740  -1.097  0.00  0.00    +0.123 A 
ATOM      4  C   UNL     1      -0.092  -2.126  -1.121  0.00  0.00    +0.046 A 
ATOM      5  C   UNL     1      -0.026  -2.834   0.062  0.00  0.00    +0.011 A 
ATOM      6  C   UNL     1      -0.022  -2.170   1.279  0.00  0.00    -0.001 A 
ATOM      7  C   UNL     1      -0.074  -0.787   1.307  0.00  0.00    +0.141 A 
ATOM      8  O   UNL     1      -0.047  -0.091   2.476  0.00  0.00    -0.425 OA
ATOM      9  C   UNL     1      -0.182  -0.790   3.620  0.00  0.00    +0.317 C 
ATOM     10  O   UNL     1      -0.852  -0.379   4.538  0.00  0.00    -0.250 OA
ATOM     11  C   UNL     1       0.546  -2.117   3.702  0.00  0.00    +0.114 C 
ATOM     12  C   UNL     1       0.040  -2.989   2.543  0.00  0.00    +0.034 C 
ATOM     13  C   UNL     1      -1.353  -3.531   2.866  0.00  0.00    +0.013 C 
ENDROOT
BRANCH   3  14
ATOM     14  O   UNL     1      -0.227  -0.041  -2.260  0.00  0.00    -0.506 OA
ATOM     15  H   UNL     1       0.635   0.204  -2.623  0.00  0.00    +0.292 HD
ENDBRANCH   3  14
BRANCH  11  16
ATOM     16  C   UNL     1       2.054  -1.890   3.575  0.00  0.00    +0.111 C 
BRANCH  16  17
ATOM     17  C   UNL     1       2.544  -1.097   4.760  0.00  0.00    +0.218 C 
ATOM     18  O   UNL     1       1.764  -0.749   5.621  0.00  0.00    -0.275 OA
ATOM     19  N   UNL     1       3.849  -0.776   4.863  0.00  0.00    -0.286 N 
ATOM     20  H   UNL     1       4.484  -1.115   4.214  0.00  0.00    +0.155 HD
BRANCH  19  21
ATOM     21  C   UNL     1       4.286   0.046   5.908  0.00  0.00    +0.032 C 
ATOM     22  C   UNL     1       4.931   1.185   5.603  0.00  0.00    +0.027 C 
ATOM     23  C   UNL     1       5.452   2.047   6.714  0.00  0.00    +0.160 C 
ATOM     24  C   UNL     1       4.574   1.813   7.928  0.00  0.00    -0.018 C 
ATOM     25  C   UNL     1       4.245   3.037   8.376  0.00  0.00    +0.025 C 
ATOM     26  C   UNL     1       4.702   4.010   7.458  0.00  0.00    +0.106 C 
ATOM     27  N   UNL     1       5.369   3.481   6.471  0.00  0.00    -0.279 NA
ATOM     28  C   UNL     1       4.138   0.528   8.308  0.00  0.00    +0.008 C 
ATOM     29  C   UNL     1       4.017  -0.368   7.286  0.00  0.00    +0.023 C 
ENDBRANCH  19  21
ENDBRANCH  16  17
ENDBRANCH  11  16
TORSDOF 4
