REMARK  Name = ZINC63140382
REMARK  12 active torsions:
REMARK  status: ('A' for Active; 'I' for Inactive)
REMARK    1  A    between atoms: C_1  and  C_2
REMARK    2  A    between atoms: C_2  and  N_3
REMARK    3  A    between atoms: N_3  and  C_4
REMARK    4  A    between atoms: N_3  and  C_6
REMARK    5  A    between atoms: C_4  and  C_5
REMARK    6  A    between atoms: C_6  and  C_7
REMARK    7  A    between atoms: C_7  and  C_8
REMARK    8  A    between atoms: C_8  and  N_9
REMARK    9  A    between atoms: C_29  and  C_31
REMARK   10  A    between atoms: C_36  and  O_37
REMARK   11  A    between atoms: O_37  and  C_38
REMARK   12  A    between atoms: C_38  and  C_39
REMARK                            x       y       z     vdW  Elec       q    Type
REMARK                         _______ _______ _______ _____ _____    ______ ____
ROOT
ATOM      1  N   UNL     1       3.858  -4.020   3.901  0.00  0.00    -0.291 N 
ATOM      2  C   UNL     1       5.293  -3.792   3.925  0.00  0.00    +0.203 C 
ATOM      3  C   UNL     1       5.898  -4.141   5.245  0.00  0.00    +0.234 C 
ATOM      4  O   UNL     1       7.094  -3.989   5.374  0.00  0.00    -0.274 OA
ATOM      5  N   UNL     1       5.213  -4.608   6.296  0.00  0.00    -0.279 N 
ATOM      6  C   UNL     1       3.769  -4.814   6.268  0.00  0.00    +0.167 C 
ATOM      7  C   UNL     1       3.166  -4.472   4.945  0.00  0.00    +0.237 C 
ATOM      8  O   UNL     1       1.969  -4.618   4.813  0.00  0.00    -0.274 OA
ATOM      9  C   UNL     1       3.097  -3.976   7.371  0.00  0.00    +0.065 C 
ATOM     10  C   UNL     1       3.907  -4.190   8.626  0.00  0.00    -0.034 C 
ATOM     11  C   UNL     1       3.550  -4.541   9.855  0.00  0.00    -0.001 A 
ATOM     12  C   UNL     1       2.229  -4.741  10.472  0.00  0.00    +0.010 A 
ATOM     13  C   UNL     1       2.228  -5.128  11.775  0.00  0.00    +0.001 A 
ATOM     14  C   UNL     1       3.396  -5.334  12.517  0.00  0.00    +0.002 A 
ATOM     15  C   UNL     1       4.652  -5.164  12.033  0.00  0.00    +0.026 A 
ATOM     16  C   UNL     1       4.782  -4.750  10.676  0.00  0.00    +0.043 A 
ATOM     17  N   UNL     1       5.845  -4.493   9.973  0.00  0.00    -0.375 N 
ATOM     18  C   UNL     1       5.423  -4.034   8.649  0.00  0.00    +0.131 C 
ATOM     19  C   UNL     1       5.970  -4.923   7.529  0.00  0.00    +0.137 C 
ATOM     20  H   UNL     1       6.762  -4.589  10.275  0.00  0.00    +0.160 HD
ENDROOT
BRANCH  19  21
ATOM     21  C   UNL     1       5.780  -6.374   7.888  0.00  0.00    +0.017 A 
ATOM     22  C   UNL     1       4.509  -6.872   8.104  0.00  0.00    +0.009 A 
ATOM     23  C   UNL     1       4.334  -8.203   8.435  0.00  0.00    +0.001 A 
ATOM     24  C   UNL     1       5.429  -9.039   8.550  0.00  0.00    +0.004 A 
ATOM     25  C   UNL     1       6.702  -8.546   8.335  0.00  0.00    +0.046 A 
ATOM     26  C   UNL     1       6.880  -7.212   7.997  0.00  0.00    +0.125 A 
BRANCH  26  27
ATOM     27  O   UNL     1       8.130  -6.726   7.779  0.00  0.00    -0.492 OA
BRANCH  27  28
ATOM     28  C   UNL     1       9.216  -7.646   7.909  0.00  0.00    +0.225 C 
ATOM     29  C   UNL     1      10.534  -6.923   7.629  0.00  0.00    +0.048 C 
ENDBRANCH  27  28
ENDBRANCH  26  27
ENDBRANCH  19  21
BRANCH   1  30
ATOM     30  C   UNL     1       3.133  -3.733   2.661  0.00  0.00    +0.106 C 
BRANCH  30  31
ATOM     31  C   UNL     1       2.663  -2.277   2.671  0.00  0.00    +0.000 C 
BRANCH  31  32
ATOM     32  C   UNL     1       1.905  -1.976   1.377  0.00  0.00    -0.077 C 
BRANCH  32  33
ATOM     33  N   UNL     1       1.344  -0.620   1.441  0.00  0.00    +0.379 N 
ATOM     34  H   UNL     1       0.785  -0.527   2.276  0.00  0.00    -0.082 HD
BRANCH  33  36
ATOM     35  C   UNL     1       1.857   1.764   1.664  0.00  0.00    -0.017 C 
ATOM     36  C   UNL     1       2.436   0.361   1.471  0.00  0.00    -0.082 C 
ENDBRANCH  33  36
BRANCH  33  37
ATOM     37  C   UNL     1       0.503  -0.381   0.260  0.00  0.00    -0.082 C 
ATOM     38  C   UNL     1      -0.720  -1.299   0.310  0.00  0.00    -0.017 C 
ENDBRANCH  33  37
ENDBRANCH  32  33
ENDBRANCH  31  32
ENDBRANCH  30  31
ENDBRANCH   1  30
TORSDOF 9
