REMARK  Name = ZINC44979157
REMARK  6 active torsions:
REMARK  status: ('A' for Active; 'I' for Inactive)
REMARK    1  A    between atoms: C_1  and  C_2
REMARK    2  A    between atoms: C_7  and  C_10
REMARK    3  A    between atoms: C_16  and  C_18
REMARK    4  A    between atoms: C_18  and  C_19
REMARK    5  A    between atoms: C_18  and  C_20
REMARK    6  A    between atoms: C_18  and  C_21
REMARK                            x       y       z     vdW  Elec       q    Type
REMARK                         _______ _______ _______ _____ _____    ______ ____
ROOT
ATOM      1  C   UNL     1       0.755  -0.517   3.721  0.00  0.00    +0.113 A 
ATOM      2  N   UNL     1       1.801   0.186   4.197  0.00  0.00    -0.311 N 
ATOM      3  H   UNL     1       2.078   1.004   3.755  0.00  0.00    +0.170 HD
ATOM      4  C   UNL     1       2.464  -0.249   5.290  0.00  0.00    +0.252 A 
ATOM      5  O   UNL     1       3.413   0.377   5.733  0.00  0.00    -0.268 OA
ATOM      6  C   UNL     1       2.035  -1.441   5.909  0.00  0.00    +0.094 A 
ATOM      7  C   UNL     1       0.971  -2.104   5.378  0.00  0.00    +0.054 A 
ATOM      8  N   UNL     1       0.354  -1.619   4.298  0.00  0.00    -0.238 NA
ENDROOT
BRANCH   1  14
ATOM      9  C   UNL     1      -0.019   1.526   0.010  0.00  0.00    +0.007 C 
ATOM     10  C   UNL     1       0.002  -0.004   0.002  0.00  0.00    -0.013 C 
ATOM     11  C   UNL     1      -1.433  -0.534   0.013  0.00  0.00    +0.003 C 
ATOM     12  C   UNL     1      -2.149  -0.040   1.272  0.00  0.00    +0.001 C 
ATOM     13  C   UNL     1      -1.409  -0.547   2.511  0.00  0.00    +0.011 C 
ATOM     14  C   UNL     1       0.026  -0.018   2.500  0.00  0.00    +0.055 C 
ATOM     15  C   UNL     1       0.742  -0.511   1.242  0.00  0.00    +0.014 C 
ENDBRANCH   1  14
BRANCH   7  16
ATOM     16  C   UNL     1       0.485  -3.382   6.013  0.00  0.00    +0.005 C 
ATOM     17  C   UNL     1       1.354  -3.710   7.229  0.00  0.00    +0.017 C 
ATOM     18  C   UNL     1      -0.969  -3.210   6.457  0.00  0.00    +0.017 C 
ATOM     19  C   UNL     1       0.576  -4.523   4.998  0.00  0.00    +0.017 C 
ENDBRANCH   7  16
TORSDOF 2
