REMARK  Name = ZINC39689213
REMARK  10 active torsions:
REMARK  status: ('A' for Active; 'I' for Inactive)
REMARK    1  A    between atoms: C_1  and  C_2
REMARK    2  A    between atoms: C_4  and  C_11
REMARK    3  A    between atoms: N_5  and  C_7
REMARK    4  A    between atoms: C_7  and  C_8
REMARK    5  A    between atoms: C_7  and  C_9
REMARK    6  A    between atoms: C_7  and  C_10
REMARK    7  A    between atoms: C_15  and  C_24
REMARK    8  A    between atoms: N_26  and  C_27
REMARK    9  A    between atoms: C_27  and  C_28
REMARK   10  A    between atoms: N_31  and  C_34
REMARK                            x       y       z     vdW  Elec       q    Type
REMARK                         _______ _______ _______ _____ _____    ______ ____
ROOT
ATOM      1  C   UNL     1      -0.569  -3.609  -1.415  0.00  0.00    +0.265 C 
ATOM      2  O   UNL     1      -0.777  -3.650  -2.612  0.00  0.00    -0.268 OA
ATOM      3  N   UNL     1      -0.519  -4.750  -0.700  0.00  0.00    -0.295 N 
ATOM      4  C   UNL     1      -0.412  -4.897   0.771  0.00  0.00    +0.121 C 
ATOM      5  C   UNL     1      -1.338  -6.085   1.114  0.00  0.00    +0.100 C 
ATOM      6  C   UNL     1      -1.429  -6.899  -0.188  0.00  0.00    -0.004 C 
ATOM      7  C   UNL     1      -0.564  -6.143  -1.206  0.00  0.00    +0.115 C 
ATOM      8  C   UNL     1      -0.881  -8.306   0.031  0.00  0.00    -0.010 C 
ATOM      9  C   UNL     1      -1.035  -9.115  -1.260  0.00  0.00    -0.082 C 
ATOM     10  N   UNL     1      -2.452  -9.174  -1.637  0.00  0.00    +0.379 N 
ATOM     11  C   UNL     1      -2.947  -7.825  -1.935  0.00  0.00    -0.082 C 
ATOM     12  C   UNL     1      -2.874  -6.961  -0.672  0.00  0.00    -0.010 C 
ATOM     13  H   UNL     1      -2.558  -9.758  -2.453  0.00  0.00    -0.086 HD
ATOM     14  H   UNL     1      -2.985  -9.566  -0.875  0.00  0.00    -0.086 HD
ENDROOT
BRANCH   1  18
ATOM     15  C   UNL     1       0.439   0.021   1.981  0.00  0.00    +0.067 C 
ATOM     16  C   UNL     1       0.063  -0.718   0.722  0.00  0.00    +0.061 A 
ATOM     17  C   UNL     1       0.021  -2.105   0.564  0.00  0.00    +0.057 A 
ATOM     18  C   UNL     1      -0.373  -2.312  -0.746  0.00  0.00    +0.124 A 
ATOM     19  N   UNL     1      -0.543  -1.073  -1.295  0.00  0.00    -0.254 N 
ATOM     20  N   UNL     1      -0.286  -0.173  -0.415  0.00  0.00    -0.175 NA
BRANCH  19  21
ATOM     21  C   UNL     1      -0.960  -0.810  -2.675  0.00  0.00    +0.056 C 
ATOM     22  C   UNL     1      -2.277  -1.535  -2.956  0.00  0.00    +0.036 C 
ATOM     23  C   UNL     1      -1.153   0.694  -2.871  0.00  0.00    +0.036 C 
ATOM     24  C   UNL     1       0.117  -1.317  -3.637  0.00  0.00    +0.036 C 
ENDBRANCH  19  21
ENDBRANCH   1  18
BRANCH   5  25
ATOM     25  C   UNL     1      -2.701  -5.587   1.520  0.00  0.00    +0.218 C 
ATOM     26  O   UNL     1      -3.147  -4.571   1.029  0.00  0.00    -0.275 OA
ATOM     27  N   UNL     1      -3.426  -6.270   2.428  0.00  0.00    -0.315 N 
ATOM     28  H   UNL     1      -3.039  -7.038   2.877  0.00  0.00    +0.149 HD
BRANCH  27  29
ATOM     29  C   UNL     1      -4.796  -5.854   2.736  0.00  0.00    +0.107 C 
BRANCH  29  30
ATOM     30  C   UNL     1      -5.389  -6.790   3.790  0.00  0.00    +0.003 C 
ATOM     31  C   UNL     1      -5.526  -8.199   3.205  0.00  0.00    -0.014 C 
ATOM     32  C   UNL     1      -6.192  -9.112   4.237  0.00  0.00    -0.078 C 
ATOM     33  N   UNL     1      -7.522  -8.588   4.572  0.00  0.00    +0.382 N 
ATOM     34  C   UNL     1      -7.394  -7.267   5.199  0.00  0.00    -0.078 C 
ATOM     35  C   UNL     1      -6.774  -6.284   4.204  0.00  0.00    -0.014 C 
ATOM     36  H   UNL     1      -8.072  -8.508   3.730  0.00  0.00    -0.081 HD
BRANCH  33  37
ATOM     37  C   UNL     1      -8.189  -9.508   5.503  0.00  0.00    -0.069 C 
ATOM     38  C   UNL     1      -8.403 -10.879   4.828  0.00  0.00    -0.015 C 
ATOM     39  C   UNL     1      -9.780 -11.351   5.356  0.00  0.00    -0.002 C 
ATOM     40  C   UNL     1     -10.600 -10.037   5.396  0.00  0.00    -0.002 C 
ATOM     41  C   UNL     1      -9.585  -8.973   5.863  0.00  0.00    -0.015 C 
ENDBRANCH  33  37
ENDBRANCH  29  30
ENDBRANCH  27  29
ENDBRANCH   5  25
TORSDOF 6
