REMARK  Name = ZINC39675931
REMARK  10 active torsions:
REMARK  status: ('A' for Active; 'I' for Inactive)
REMARK    1  A    between atoms: C_1  and  C_2
REMARK    2  A    between atoms: C_7  and  C_8
REMARK    3  A    between atoms: C_8  and  C_9
REMARK    4  A    between atoms: C_13  and  C_22
REMARK    5  A    between atoms: N_24  and  C_25
REMARK    6  A    between atoms: C_25  and  C_26
REMARK    7  A    between atoms: C_26  and  C_28
REMARK    8  A    between atoms: C_26  and  N_34
REMARK    9  A    between atoms: N_34  and  C_35
REMARK   10  A    between atoms: N_34  and  C_36
REMARK                            x       y       z     vdW  Elec       q    Type
REMARK                         _______ _______ _______ _____ _____    ______ ____
ROOT
ATOM      1  C   UNL     1      -1.661   0.307   4.320  0.00  0.00    +0.220 C 
ATOM      2  O   UNL     1      -2.569  -0.152   3.660  0.00  0.00    -0.275 OA
ATOM      3  N   UNL     1      -1.925   1.179   5.313  0.00  0.00    -0.300 N 
ATOM      4  C   UNL     1      -0.957   1.846   6.216  0.00  0.00    +0.121 C 
ATOM      5  C   UNL     1      -1.499   3.285   6.374  0.00  0.00    +0.100 C 
ATOM      6  C   UNL     1      -3.002   3.174   6.068  0.00  0.00    -0.004 C 
ATOM      7  C   UNL     1      -3.247   1.694   5.745  0.00  0.00    +0.115 C 
ATOM      8  C   UNL     1      -3.360   4.038   4.862  0.00  0.00    -0.010 C 
ATOM      9  C   UNL     1      -4.869   3.956   4.612  0.00  0.00    -0.082 C 
ATOM     10  N   UNL     1      -5.590   4.421   5.804  0.00  0.00    +0.379 N 
ATOM     11  C   UNL     1      -5.311   3.530   6.937  0.00  0.00    -0.082 C 
ATOM     12  C   UNL     1      -3.821   3.593   7.285  0.00  0.00    -0.010 C 
ATOM     13  H   UNL     1      -5.290   5.357   6.033  0.00  0.00    -0.086 HD
ATOM     14  H   UNL     1      -6.581   4.424   5.616  0.00  0.00    -0.086 HD
ENDROOT
BRANCH   5  15
ATOM     15  C   UNL     1      -0.827   4.209   5.392  0.00  0.00    +0.218 C 
ATOM     16  O   UNL     1      -0.413   3.776   4.337  0.00  0.00    -0.275 OA
ATOM     17  N   UNL     1      -0.687   5.517   5.684  0.00  0.00    -0.316 N 
ATOM     18  H   UNL     1      -1.018   5.864   6.528  0.00  0.00    +0.149 HD
BRANCH  17  19
ATOM     19  C   UNL     1      -0.034   6.416   4.729  0.00  0.00    +0.093 C 
BRANCH  19  20
ATOM     20  C   UNL     1       0.107   7.806   5.351  0.00  0.00    -0.021 C 
BRANCH  20  21
ATOM     21  C   UNL     1       1.025   7.733   6.543  0.00  0.00    -0.059 A 
ATOM     22  C   UNL     1       2.395   7.720   6.361  0.00  0.00    +0.002 A 
ATOM     23  C   UNL     1       3.238   7.653   7.454  0.00  0.00    +0.000 A 
ATOM     24  C   UNL     1       2.711   7.599   8.731  0.00  0.00    +0.000 A 
ATOM     25  C   UNL     1       1.340   7.613   8.914  0.00  0.00    +0.000 A 
ATOM     26  C   UNL     1       0.498   7.685   7.820  0.00  0.00    +0.002 A 
ENDBRANCH  20  21
BRANCH  20  27
ATOM     27  N   UNL     1       0.666   8.733   4.358  0.00  0.00    +0.382 N 
ATOM     28  C   UNL     1      -0.252   8.840   3.216  0.00  0.00    -0.096 C 
ATOM     29  C   UNL     1       0.845  10.057   4.969  0.00  0.00    -0.096 C 
ATOM     30  H   UNL     1       1.559   8.386   4.040  0.00  0.00    -0.082 HD
ENDBRANCH  20  27
ENDBRANCH  19  20
ENDBRANCH  17  19
ENDBRANCH   5  15
BRANCH   1  31
ATOM     31  C   UNL     1      -0.239  -0.098   4.030  0.00  0.00    +0.131 C 
BRANCH  31  38
ATOM     32  C   UNL     1      -0.225   0.871   1.309  0.00  0.00    +0.044 C 
ATOM     33  C   UNL     1      -0.212  -0.611   1.581  0.00  0.00    -0.047 A 
ATOM     34  C   UNL     1      -0.188  -1.507   0.528  0.00  0.00    +0.003 A 
ATOM     35  C   UNL     1      -0.176  -2.866   0.777  0.00  0.00    +0.000 A 
ATOM     36  C   UNL     1      -0.188  -3.330   2.080  0.00  0.00    +0.000 A 
ATOM     37  C   UNL     1      -0.211  -2.435   3.132  0.00  0.00    +0.004 A 
ATOM     38  C   UNL     1      -0.219  -1.075   2.883  0.00  0.00    -0.036 A 
ENDBRANCH  31  38
ENDBRANCH   1  31
TORSDOF 7
