REMARK  Name = ZINC01148549
REMARK  3 active torsions:
REMARK  status: ('A' for Active; 'I' for Inactive)
REMARK    1  A    between atoms: C_1  and  C_2
REMARK    2  A    between atoms: C_5  and  C_8
REMARK    3  A    between atoms: C_13  and  C_23
REMARK                            x       y       z     vdW  Elec       q    Type
REMARK                         _______ _______ _______ _____ _____    ______ ____
ROOT
ATOM      1  C   UNL     1       0.175  -5.501   1.783  0.00  0.00    +0.032 C 
ATOM      2  C   UNL     1       1.215  -4.429   1.460  0.00  0.00    +0.059 C 
ATOM      3  C   UNL     1       0.518  -3.145   1.040  0.00  0.00    +0.017 C 
ATOM      4  C   UNL     1      -0.666  -2.807   1.578  0.00  0.00    +0.036 C 
ATOM      5  C   UNL     1      -1.449  -1.551   1.278  0.00  0.00    +0.137 C 
ATOM      6  N   UNL     1      -0.967  -0.801   0.137  0.00  0.00    -0.331 N 
ATOM      7  C   UNL     1       0.296  -0.212   0.144  0.00  0.00    +0.049 A 
ATOM      8  C   UNL     1       0.451   1.165   0.151  0.00  0.00    +0.025 A 
ATOM      9  C   UNL     1       1.721   1.706   0.255  0.00  0.00    +0.002 A 
ATOM     10  C   UNL     1       2.827   0.881   0.351  0.00  0.00    +0.002 A 
ATOM     11  C   UNL     1       2.677  -0.495   0.329  0.00  0.00    +0.025 A 
ATOM     12  C   UNL     1       1.409  -1.038   0.208  0.00  0.00    +0.052 A 
ATOM     13  N   UNL     1       1.192  -2.408   0.121  0.00  0.00    -0.316 N 
ATOM     14  C   UNL     1      -1.293  -3.663   2.513  0.00  0.00    +0.163 C 
ATOM     15  O   UNL     1      -2.354  -3.322   2.999  0.00  0.00    -0.292 OA
ATOM     16  C   UNL     1      -0.698  -4.975   2.928  0.00  0.00    +0.088 C 
ATOM     17  H   UNL     1      -1.532  -0.708  -0.645  0.00  0.00    +0.147 HD
ATOM     18  H   UNL     1       1.548  -2.871  -0.653  0.00  0.00    +0.152 HD
ENDROOT
BRANCH   1  23
ATOM     19  C   UNL     1       2.825 -10.369   3.417  0.00  0.00    +0.044 C 
ATOM     20  C   UNL     1       2.135  -9.100   2.991  0.00  0.00    -0.050 A 
ATOM     21  C   UNL     1       1.309  -9.101   1.882  0.00  0.00    +0.003 A 
ATOM     22  C   UNL     1       0.675  -7.936   1.491  0.00  0.00    +0.004 A 
ATOM     23  C   UNL     1       0.866  -6.771   2.209  0.00  0.00    -0.043 A 
ATOM     24  C   UNL     1       1.696  -6.768   3.314  0.00  0.00    +0.004 A 
ATOM     25  C   UNL     1       2.327  -7.933   3.708  0.00  0.00    +0.003 A 
ENDBRANCH   1  23
BRANCH   5  26
ATOM     26  C   UNL     1      -1.402  -0.658   2.491  0.00  0.00    -0.005 A 
ATOM     27  C   UNL     1      -0.197  -0.132   2.929  0.00  0.00    +0.009 A 
ATOM     28  C   UNL     1      -0.201   0.685   4.049  0.00  0.00    +0.020 A 
ATOM     29  C   UNL     1      -1.399   0.946   4.688  0.00  0.00    +0.111 A 
ATOM     30  N   UNL     1      -2.527   0.428   4.243  0.00  0.00    -0.263 NA
ATOM     31  C   UNL     1      -2.561  -0.348   3.177  0.00  0.00    +0.116 A 
ENDBRANCH   5  26
TORSDOF 2
