REMARK  Name = ZINC35449344
REMARK  7 active torsions:
REMARK  status: ('A' for Active; 'I' for Inactive)
REMARK    1  A    between atoms: C_1  and  C_2
REMARK    2  A    between atoms: C_2  and  C_3
REMARK    3  A    between atoms: C_3  and  C_4
REMARK    4  A    between atoms: C_4  and  S_5
REMARK    5  A    between atoms: S_5  and  C_6
REMARK    6  A    between atoms: C_16  and  C_18
REMARK    7  A    between atoms: C_22  and  N_24
REMARK                            x       y       z     vdW  Elec       q    Type
REMARK                         _______ _______ _______ _____ _____    ______ ____
ROOT
ATOM      1  C   UNL     1      -2.923  -4.443   0.006  0.00  0.00    +0.171 A 
ATOM      2  N   UNL     1      -1.712  -4.961  -0.003  0.00  0.00    -0.185 NA
ATOM      3  C   UNL     1      -1.530  -6.290  -0.009  0.00  0.00    +0.280 A 
ATOM      4  O   UNL     1      -0.400  -6.756  -0.019  0.00  0.00    -0.265 OA
ATOM      5  C   UNL     1      -2.651  -7.149  -0.005  0.00  0.00    +0.069 A 
ATOM      6  C   UNL     1      -3.896  -6.601   0.000  0.00  0.00    +0.111 A 
ATOM      7  N   UNL     1      -4.029  -5.237   0.012  0.00  0.00    -0.322 N 
ATOM      8  N   UNL     1      -5.008  -7.410  -0.005  0.00  0.00    -0.304 N 
ATOM      9  C   UNL     1      -4.917  -8.718  -0.397  0.00  0.00    +0.017 C 
ATOM     10  C   UNL     1      -3.724  -9.351  -0.412  0.00  0.00    +0.024 C 
ATOM     11  C   UNL     1      -2.462  -8.637  -0.001  0.00  0.00    +0.092 C 
ATOM     12  C   UNL     1      -3.623 -10.696  -0.808  0.00  0.00    +0.162 C 
ATOM     13  O   UNL     1      -2.532 -11.230  -0.830  0.00  0.00    -0.292 OA
ATOM     14  C   UNL     1      -4.840 -11.487  -1.205  0.00  0.00    +0.080 C 
ATOM     15  C   UNL     1      -6.062 -10.920  -0.475  0.00  0.00    +0.014 C 
ATOM     16  C   UNL     1      -6.180  -9.432  -0.811  0.00  0.00    +0.051 C 
ATOM     17  H   UNL     1      -5.865  -7.050   0.272  0.00  0.00    +0.153 HD
ATOM     18  H   UNL     1      -4.913  -4.837   0.022  0.00  0.00    +0.169 HD
ENDROOT
BRANCH  11  19
ATOM     19  C   UNL     1      -2.075  -9.081   1.387  0.00  0.00    -0.033 A 
ATOM     20  C   UNL     1      -2.927  -8.849   2.450  0.00  0.00    +0.005 A 
ATOM     21  C   UNL     1      -2.572  -9.256   3.722  0.00  0.00    +0.003 A 
ATOM     22  C   UNL     1      -1.365  -9.896   3.931  0.00  0.00    +0.033 A 
ATOM     23  C   UNL     1      -0.513 -10.129   2.868  0.00  0.00    +0.126 A 
ATOM     24  C   UNL     1      -0.870  -9.726   1.594  0.00  0.00    +0.037 A 
BRANCH  23  25
ATOM     25  N   UNL     1       0.780 -10.814   3.091  0.00  0.00    +0.056 N 
ATOM     26  O   UNL     1       1.091 -11.170   4.204  0.00  0.00    -0.126 OA
ATOM     27  O   UNL     1       1.525 -11.018   2.161  0.00  0.00    -0.126 OA
ENDBRANCH  23  25
ENDBRANCH  11  19
BRANCH   1  28
ATOM     28  S   UNL     1      -3.114  -2.691   0.017  0.00  0.00    -0.088 S 
BRANCH  28  29
ATOM     29  C   UNL     1      -1.413  -2.063   0.004  0.00  0.00    +0.077 C 
BRANCH  29  30
ATOM     30  C   UNL     1      -1.433  -0.534   0.013  0.00  0.00    +0.011 C 
BRANCH  30  32
ATOM     31  C   UNL     1      -0.019   1.526   0.010  0.00  0.00    +0.004 C 
ATOM     32  C   UNL     1       0.002  -0.004   0.002  0.00  0.00    -0.003 C 
ENDBRANCH  30  32
ENDBRANCH  29  30
ENDBRANCH  28  29
ENDBRANCH   1  28
TORSDOF 6
