REMARK  Name = ZINC00713529
REMARK  8 active torsions:
REMARK  status: ('A' for Active; 'I' for Inactive)
REMARK    1  A    between atoms: C_1  and  C_2
REMARK    2  A    between atoms: C_2  and  C_36
REMARK    3  A    between atoms: C_6  and  C_24
REMARK    4  A    between atoms: C_8  and  C_22
REMARK    5  A    between atoms: C_9  and  N_21
REMARK    6  A    between atoms: N_10  and  C_11
REMARK    7  A    between atoms: C_16  and  C_17
REMARK    8  A    between atoms: C_28  and  N_30
REMARK                            x       y       z     vdW  Elec       q    Type
REMARK                         _______ _______ _______ _____ _____    ______ ____
ROOT
ATOM      1  C   UNL     1      -2.827   4.559   3.327  0.00  0.00    +0.011 C 
ATOM      2  C   UNL     1      -2.554   6.056   3.492  0.00  0.00    -0.023 C 
ATOM      3  C   UNL     1      -2.966   6.797   2.219  0.00  0.00    +0.058 C 
ATOM      4  C   UNL     1      -2.149   6.297   1.054  0.00  0.00    +0.025 C 
ATOM      5  C   UNL     1      -0.889   5.846   1.230  0.00  0.00    +0.025 C 
ATOM      6  C   UNL     1      -0.073   5.349   0.063  0.00  0.00    +0.097 C 
ATOM      7  C   UNL     1      -0.648   5.819  -1.240  0.00  0.00    +0.077 C 
ATOM      8  C   UNL     1      -1.927   6.272  -1.321  0.00  0.00    +0.107 C 
ATOM      9  N   UNL     1      -2.716   6.314  -0.194  0.00  0.00    -0.260 N 
ATOM     10  C   UNL     1      -0.299   5.824   2.506  0.00  0.00    +0.162 C 
ATOM     11  O   UNL     1       0.843   5.427   2.629  0.00  0.00    -0.292 OA
ATOM     12  C   UNL     1      -1.056   6.283   3.723  0.00  0.00    +0.086 C 
ATOM     13  C   UNL     1      -3.345   6.594   4.686  0.00  0.00    +0.011 C 
ENDROOT
BRANCH   9  14
ATOM     14  C   UNL     1      -4.108   6.376  -0.323  0.00  0.00    +0.051 A 
ATOM     15  C   UNL     1      -4.863   5.210  -0.291  0.00  0.00    +0.024 A 
ATOM     16  C   UNL     1      -6.236   5.274  -0.419  0.00  0.00    +0.002 A 
ATOM     17  C   UNL     1      -6.861   6.498  -0.577  0.00  0.00    +0.001 A 
ATOM     18  C   UNL     1      -6.113   7.661  -0.609  0.00  0.00    +0.014 A 
ATOM     19  C   UNL     1      -4.739   7.604  -0.477  0.00  0.00    +0.076 A 
BRANCH  19  20
ATOM     20  C   UNL     1      -3.925   8.871  -0.506  0.00  0.00    +0.419 C 
ATOM     21  F   UNL     1      -4.783   9.976  -0.549  0.00  0.00    -0.166 F 
ATOM     22  F   UNL     1      -3.132   8.942   0.644  0.00  0.00    -0.166 F 
ATOM     23  F   UNL     1      -3.105   8.874  -1.639  0.00  0.00    -0.166 F 
ENDBRANCH  19  20
ENDBRANCH   9  14
BRANCH   6  24
ATOM     24  C   UNL     1      -0.055   3.842   0.080  0.00  0.00    -0.033 A 
ATOM     25  C   UNL     1      -1.243   3.136   0.093  0.00  0.00    +0.005 A 
ATOM     26  C   UNL     1      -1.226   1.754   0.103  0.00  0.00    +0.003 A 
ATOM     27  C   UNL     1      -0.020   1.078   0.110  0.00  0.00    +0.033 A 
ATOM     28  C   UNL     1       1.168   1.783   0.097  0.00  0.00    +0.126 A 
ATOM     29  C   UNL     1       1.151   3.166   0.082  0.00  0.00    +0.037 A 
BRANCH  28  30
ATOM     30  N   UNL     1       2.459   1.059   0.098  0.00  0.00    +0.056 N 
ATOM     31  O   UNL     1       2.474  -0.159   0.111  0.00  0.00    -0.126 OA
ATOM     32  O   UNL     1       3.506   1.681   0.087  0.00  0.00    -0.126 OA
ENDBRANCH  28  30
ENDBRANCH   6  24
BRANCH   8  33
ATOM     33  N   UNL     1      -2.432   6.688  -2.529  0.00  0.00    -0.345 N 
ATOM     34  H   UNL     1      -3.345   7.012  -2.587  0.00  0.00    +0.144 HD
ATOM     35  H   UNL     1      -1.876   6.658  -3.323  0.00  0.00    +0.144 HD
ENDBRANCH   8  33
BRANCH   7  36
ATOM     36  C   UNL     1       0.164   5.790  -2.419  0.00  0.00    +0.099 C 
ATOM     37  N   UNL     1       0.808   5.767  -3.355  0.00  0.00    -0.191 NA
ENDBRANCH   7  36
TORSDOF 6
