REMARK  Name = ZINC22798555
REMARK  9 active torsions:
REMARK  status: ('A' for Active; 'I' for Inactive)
REMARK    1  A    between atoms: C_1  and  O_2
REMARK    2  A    between atoms: O_2  and  C_3
REMARK    3  A    between atoms: C_7  and  C_9
REMARK    4  A    between atoms: C_9  and  C_11
REMARK    5  A    between atoms: C_9  and  N_25
REMARK    6  A    between atoms: C_12  and  O_24
REMARK    7  A    between atoms: C_17  and  C_19
REMARK    8  A    between atoms: N_28  and  C_31
REMARK    9  A    between atoms: C_31  and  C_32
REMARK                            x       y       z     vdW  Elec       q    Type
REMARK                         _______ _______ _______ _____ _____    ______ ____
ROOT
ATOM      1  C   UNL     1       1.389  -4.130   2.211  0.00  0.00    +0.129 C 
ENDROOT
BRANCH   1   2
ATOM      2  C   UNL     1       0.329  -4.644   3.151  0.00  0.00    +0.076 A 
ATOM      3  C   UNL     1      -0.741  -5.403   2.884  0.00  0.00    +0.228 A 
ATOM      4  N   UNL     1      -1.604  -5.776   3.885  0.00  0.00    -0.173 N 
ATOM      5  C   UNL     1      -1.319  -5.338   5.149  0.00  0.00    +0.200 A 
ATOM      6  S   UNL     1       0.175  -4.405   4.915  0.00  0.00    -0.047 S 
ATOM      7  N   UNL     1      -2.224  -5.773   5.980  0.00  0.00    -0.197 NA
ATOM      8  C   UNL     1      -3.127  -6.502   5.309  0.00  0.00    +0.218 A 
ATOM      9  N   UNL     1      -2.795  -6.532   4.037  0.00  0.00    -0.138 NA
BRANCH   8  10
ATOM     10  C   UNL     1      -4.307  -7.164   5.904  0.00  0.00    +0.173 A 
ATOM     11  C   UNL     1      -4.662  -7.133   7.216  0.00  0.00    +0.053 A 
ATOM     12  C   UNL     1      -5.843  -7.893   7.334  0.00  0.00    +0.042 A 
ATOM     13  C   UNL     1      -6.147  -8.345   6.102  0.00  0.00    +0.196 A 
ATOM     14  O   UNL     1      -5.220  -7.898   5.239  0.00  0.00    -0.460 OA
ENDBRANCH   8  10
BRANCH   3  15
ATOM     15  O   UNL     1      -0.975  -5.809   1.606  0.00  0.00    -0.492 OA
ATOM     16  H   UNL     1      -1.768  -6.353   1.506  0.00  0.00    +0.294 HD
ENDBRANCH   3  15
ENDBRANCH   1   2
BRANCH   1  17
ATOM     17  N   UNL     1       2.713  -4.542   2.694  0.00  0.00    -0.295 NA
ATOM     18  C   UNL     1       3.779  -3.985   1.849  0.00  0.00    +0.067 C 
ATOM     19  C   UNL     1       5.141  -4.388   2.419  0.00  0.00    -0.063 C 
ATOM     20  N   UNL     1       5.240  -5.853   2.460  0.00  0.00    +0.384 N 
ATOM     21  C   UNL     1       4.185  -6.393   3.326  0.00  0.00    -0.063 C 
ATOM     22  C   UNL     1       2.815  -6.007   2.764  0.00  0.00    +0.067 C 
ATOM     23  H   UNL     1       5.132  -6.223   1.527  0.00  0.00    -0.081 HD
BRANCH  20  24
ATOM     24  C   UNL     1       6.555  -6.239   2.990  0.00  0.00    -0.043 C 
BRANCH  24  25
ATOM     25  C   UNL     1       6.705  -7.737   2.917  0.00  0.00    -0.064 A 
ATOM     26  C   UNL     1       6.297  -8.525   3.977  0.00  0.00    +0.002 A 
ATOM     27  C   UNL     1       6.435  -9.899   3.910  0.00  0.00    +0.000 A 
ATOM     28  C   UNL     1       6.981 -10.484   2.783  0.00  0.00    +0.000 A 
ATOM     29  C   UNL     1       7.388  -9.697   1.723  0.00  0.00    +0.000 A 
ATOM     30  C   UNL     1       7.246  -8.323   1.788  0.00  0.00    +0.002 A 
ENDBRANCH  24  25
ENDBRANCH  20  24
ENDBRANCH   1  17
BRANCH   1  35
ATOM     31  C   UNL     1       0.626  -0.618   1.042  0.00  0.00    +0.120 A 
ATOM     32  C   UNL     1       1.202   0.139   2.051  0.00  0.00    +0.045 A 
ATOM     33  C   UNL     1       1.835  -0.488   3.107  0.00  0.00    +0.004 A 
ATOM     34  C   UNL     1       1.895  -1.869   3.158  0.00  0.00    +0.006 A 
ATOM     35  C   UNL     1       1.321  -2.625   2.153  0.00  0.00    -0.022 A 
ATOM     36  C   UNL     1       0.682  -2.003   1.097  0.00  0.00    +0.051 A 
BRANCH  31  38
ATOM     37  C   UNL     1      -0.017   1.425   0.010  0.00  0.00    +0.277 C 
ATOM     38  O   UNL     1       0.002  -0.004   0.002  0.00  0.00    -0.495 OA
ENDBRANCH  31  38
ENDBRANCH   1  35
TORSDOF 8
