REMARK  Name = ZINC10002205
REMARK  13 active torsions:
REMARK  status: ('A' for Active; 'I' for Inactive)
REMARK    1  A    between atoms: C_1  and  C_2
REMARK    2  A    between atoms: C_2  and  C_3
REMARK    3  A    between atoms: C_2  and  C_4
REMARK    4  A    between atoms: C_4  and  C_5
REMARK    5  A    between atoms: C_5  and  C_7
REMARK    6  A    between atoms: C_5  and  N_28
REMARK    7  A    between atoms: N_9  and  N_10
REMARK    8  A    between atoms: C_11  and  C_12
REMARK    9  A    between atoms: C_17  and  O_18
REMARK   10  A    between atoms: O_18  and  C_19
REMARK   11  A    between atoms: C_19  and  C_20
REMARK   12  A    between atoms: C_25  and  C_26
REMARK   13  A    between atoms: C_29  and  C_31
REMARK                            x       y       z     vdW  Elec       q    Type
REMARK                         _______ _______ _______ _____ _____    ______ ____
ROOT
ATOM      1  C   UNL     1      -3.541   6.982  -1.033  0.00  0.00    +0.253 C 
ATOM      2  O   UNL     1      -2.506   7.613  -1.073  0.00  0.00    -0.272 OA
ATOM      3  N   UNL     1      -3.508   5.640  -0.916  0.00  0.00    -0.205 N 
ATOM      4  H   UNL     1      -4.332   5.130  -0.945  0.00  0.00    +0.177 HD
ENDROOT
BRANCH   3   5
ATOM      5  N   UNL     1      -2.282   4.981  -0.753  0.00  0.00    -0.188 NA
ATOM      6  C   UNL     1      -2.237   3.684  -0.755  0.00  0.00    +0.142 C 
BRANCH   6   7
ATOM      7  C   UNL     1      -0.960   2.990  -0.513  0.00  0.00    +0.036 A 
ATOM      8  C   UNL     1      -0.883   1.600  -0.627  0.00  0.00    +0.013 A 
ATOM      9  C   UNL     1       0.315   0.957  -0.395  0.00  0.00    +0.001 A 
ATOM     10  C   UNL     1       1.445   1.684  -0.060  0.00  0.00    +0.004 A 
ATOM     11  C   UNL     1       1.383   3.060   0.049  0.00  0.00    +0.046 A 
ATOM     12  C   UNL     1       0.187   3.722  -0.175  0.00  0.00    +0.130 A 
BRANCH  12  13
ATOM     13  O   UNL     1       0.125   5.074  -0.067  0.00  0.00    -0.487 OA
BRANCH  13  14
ATOM     14  C   UNL     1       1.356   5.764   0.156  0.00  0.00    +0.265 C 
BRANCH  14  15
ATOM     15  C   UNL     1       1.077   7.225   0.400  0.00  0.00    +0.007 A 
ATOM     16  C   UNL     1      -0.225   7.673   0.494  0.00  0.00    +0.008 A 
ATOM     17  C   UNL     1      -0.483   9.013   0.723  0.00  0.00    +0.000 A 
ATOM     18  C   UNL     1       0.560   9.914   0.850  0.00  0.00    +0.001 A 
ATOM     19  C   UNL     1       1.866   9.480   0.753  0.00  0.00    +0.019 A 
ATOM     20  C   UNL     1       2.134   8.128   0.527  0.00  0.00    +0.058 A 
BRANCH  20  21
ATOM     21  C   UNL     1       3.487   7.670   0.425  0.00  0.00    +0.100 C 
ATOM     22  N   UNL     1       4.560   7.307   0.344  0.00  0.00    -0.191 NA
ENDBRANCH  20  21
ENDBRANCH  14  15
ENDBRANCH  13  14
ENDBRANCH  12  13
ENDBRANCH   6   7
ENDBRANCH   3   5
BRANCH   1  23
ATOM     23  C   UNL     1      -4.864   7.699  -1.114  0.00  0.00    +0.161 C 
BRANCH  23  24
ATOM     24  N   UNL     1      -4.632   9.140  -1.235  0.00  0.00    -0.300 N 
ATOM     25  C   UNL     1      -5.576  10.011  -0.829  0.00  0.00    +0.245 C 
ATOM     26  O   UNL     1      -6.621   9.601  -0.362  0.00  0.00    -0.270 OA
ATOM     27  H   UNL     1      -3.798   9.467  -1.608  0.00  0.00    +0.150 HD
BRANCH  25  28
ATOM     28  C   UNL     1      -5.342  11.466  -0.951  0.00  0.00    +0.037 A 
ATOM     29  C   UNL     1      -4.141  11.940  -1.482  0.00  0.00    +0.014 A 
ATOM     30  C   UNL     1      -3.931  13.297  -1.600  0.00  0.00    +0.021 A 
ATOM     31  C   UNL     1      -4.904  14.191  -1.181  0.00  0.00    +0.041 A 
ATOM     32  C   UNL     1      -6.095  13.726  -0.648  0.00  0.00    +0.021 A 
ATOM     33  C   UNL     1      -6.319  12.370  -0.531  0.00  0.00    +0.014 A 
ATOM     34 CL   UNL     1      -4.629  15.899  -1.326  0.00  0.00    -0.084 Cl
ENDBRANCH  25  28
ENDBRANCH  23  24
BRANCH  23  35
ATOM     35  C   UNL     1      -5.639   7.202  -2.336  0.00  0.00    +0.034 C 
BRANCH  35  37
ATOM     36  C   UNL     1      -7.761   7.439  -3.634  0.00  0.00    +0.007 C 
ATOM     37  C   UNL     1      -7.031   7.837  -2.349  0.00  0.00    -0.015 C 
ATOM     38  C   UNL     1      -7.827   7.346  -1.138  0.00  0.00    +0.007 C 
ENDBRANCH  35  37
ENDBRANCH  23  35
ENDBRANCH   1  23
TORSDOF 11
