REMARK  Name = ZINC40561735
REMARK  17 active torsions:
REMARK  status: ('A' for Active; 'I' for Inactive)
REMARK    1  A    between atoms: C_1  and  C_2
REMARK    2  A    between atoms: C_2  and  C_3
REMARK    3  A    between atoms: N_16  and  C_31
REMARK    4  A    between atoms: C_17  and  C_19
REMARK    5  A    between atoms: C_21  and  O_29
REMARK    6  A    between atoms: C_22  and  O_27
REMARK    7  A    between atoms: C_23  and  O_25
REMARK    8  A    between atoms: O_25  and  C_26
REMARK    9  A    between atoms: O_27  and  C_28
REMARK   10  A    between atoms: O_29  and  C_30
REMARK   11  A    between atoms: C_31  and  C_32
REMARK   12  A    between atoms: C_32  and  C_33
REMARK   13  A    between atoms: C_33  and  N_34
REMARK   14  A    between atoms: N_34  and  C_35
REMARK   15  A    between atoms: N_34  and  C_37
REMARK   16  A    between atoms: C_35  and  C_36
REMARK   17  A    between atoms: C_37  and  C_38
REMARK                            x       y       z     vdW  Elec       q    Type
REMARK                         _______ _______ _______ _____ _____    ______ ____
ROOT
ATOM      1  C   UNL     1       0.273  -0.216   1.315  0.00  0.00    -0.047 A 
ATOM      2  C   UNL     1       1.655  -0.267   1.195  0.00  0.00    +0.007 A 
ATOM      3  C   UNL     1       2.439  -0.699   2.241  0.00  0.00    +0.047 A 
ATOM      4  C   UNL     1       1.847  -1.091   3.442  0.00  0.00    +0.139 A 
ATOM      5  C   UNL     1       0.448  -1.028   3.554  0.00  0.00    +0.065 A 
ATOM      6  C   UNL     1      -0.330  -0.587   2.484  0.00  0.00    +0.019 A 
ATOM      7  C   UNL     1      -0.190  -1.428   4.834  0.00  0.00    +0.199 A 
ATOM      8  O   UNL     1      -1.393  -1.566   4.965  0.00  0.00    -0.287 OA
ATOM      9  C   UNL     1       0.767  -1.643   5.925  0.00  0.00    +0.072 A 
ATOM     10  C   UNL     1       2.111  -1.672   5.687  0.00  0.00    +0.199 A 
ATOM     11  O   UNL     1       2.635  -1.518   4.455  0.00  0.00    -0.450 OA
ATOM     12  C   UNL     1       2.803  -1.893   6.969  0.00  0.00    +0.283 C 
ATOM     13  O   UNL     1       4.008  -1.968   7.106  0.00  0.00    -0.267 OA
ATOM     14  N   UNL     1       1.904  -2.001   7.968  0.00  0.00    -0.284 N 
ATOM     15  C   UNL     1       0.558  -1.854   7.389  0.00  0.00    +0.145 C 
ENDROOT
BRANCH  15  16
ATOM     16  C   UNL     1      -0.248  -3.105   7.624  0.00  0.00    -0.015 A 
ATOM     17  C   UNL     1       0.362  -4.343   7.552  0.00  0.00    +0.055 A 
ATOM     18  C   UNL     1      -0.377  -5.496   7.767  0.00  0.00    +0.165 A 
ATOM     19  C   UNL     1      -1.734  -5.406   8.056  0.00  0.00    +0.204 A 
ATOM     20  C   UNL     1      -2.344  -4.159   8.128  0.00  0.00    +0.165 A 
ATOM     21  C   UNL     1      -1.596  -3.011   7.916  0.00  0.00    +0.055 A 
BRANCH  20  22
ATOM     22  O   UNL     1      -3.671  -4.066   8.410  0.00  0.00    -0.491 OA
ATOM     23  C   UNL     1      -4.231  -2.753   8.468  0.00  0.00    +0.277 C 
ENDBRANCH  20  22
BRANCH  19  24
ATOM     24  O   UNL     1      -2.462  -6.536   8.267  0.00  0.00    -0.488 OA
ATOM     25  C   UNL     1      -2.542  -7.015   9.611  0.00  0.00    +0.277 C 
ENDBRANCH  19  24
BRANCH  18  26
ATOM     26  O   UNL     1       0.225  -6.714   7.695  0.00  0.00    -0.491 OA
ATOM     27  C   UNL     1       1.621  -6.730   7.394  0.00  0.00    +0.277 C 
ENDBRANCH  18  26
ENDBRANCH  15  16
BRANCH   1  29
ATOM     28  C   UNL     1      -0.750   1.774   0.244  0.00  0.00    +0.009 C 
ATOM     29  C   UNL     1      -0.564   0.257   0.155  0.00  0.00    +0.032 C 
ENDBRANCH   1  29
BRANCH  14  30
ATOM     30  C   UNL     1       2.212  -2.226   9.383  0.00  0.00    +0.107 C 
BRANCH  30  31
ATOM     31  C   UNL     1       2.383  -0.879  10.088  0.00  0.00    +0.000 C 
BRANCH  31  32
ATOM     32  C   UNL     1       2.705  -1.113  11.565  0.00  0.00    -0.077 C 
BRANCH  32  33
ATOM     33  N   UNL     1       2.999   0.172  12.212  0.00  0.00    +0.379 N 
ATOM     34  H   UNL     1       3.728   0.647  11.702  0.00  0.00    -0.082 HD
BRANCH  33  35
ATOM     35  C   UNL     1       1.788   1.003  12.223  0.00  0.00    -0.082 C 
ATOM     36  C   UNL     1       2.123   2.387  12.783  0.00  0.00    -0.017 C 
ENDBRANCH  33  35
BRANCH  33  37
ATOM     37  C   UNL     1       3.442  -0.065  13.593  0.00  0.00    -0.082 C 
ATOM     38  C   UNL     1       4.779  -0.808  13.579  0.00  0.00    -0.017 C 
ENDBRANCH  33  37
ENDBRANCH  32  33
ENDBRANCH  31  32
ENDBRANCH  30  31
ENDBRANCH  14  30
TORSDOF 11
