REMARK  Name = ZINC39636631
REMARK  6 active torsions:
REMARK  status: ('A' for Active; 'I' for Inactive)
REMARK    1  A    between atoms: C_1  and  C_2
REMARK    2  A    between atoms: C_5  and  C_36
REMARK    3  A    between atoms: C_6  and  C_8
REMARK    4  A    between atoms: C_8  and  N_9
REMARK    5  A    between atoms: C_10  and  C_12
REMARK    6  A    between atoms: C_23  and  C_25
REMARK                            x       y       z     vdW  Elec       q    Type
REMARK                         _______ _______ _______ _____ _____    ______ ____
ROOT
ATOM      1  C   UNL     1       2.987  -4.517   4.174  0.00  0.00    +0.100 C 
ATOM      2  C   UNL     1       3.507  -5.553   3.152  0.00  0.00    +0.121 C 
ATOM      3  N   UNL     1       4.318  -6.497   3.956  0.00  0.00    -0.297 N 
ATOM      4  C   UNL     1       3.554  -6.659   5.217  0.00  0.00    +0.115 C 
ATOM      5  C   UNL     1       3.019  -5.246   5.527  0.00  0.00    -0.004 C 
ATOM      6  C   UNL     1       3.957  -4.528   6.493  0.00  0.00    -0.010 C 
ATOM      7  C   UNL     1       3.929  -5.239   7.849  0.00  0.00    -0.082 C 
ATOM      8  N   UNL     1       2.558  -5.239   8.375  0.00  0.00    +0.379 N 
ATOM      9  C   UNL     1       1.681  -6.011   7.487  0.00  0.00    -0.082 C 
ATOM     10  C   UNL     1       1.614  -5.333   6.115  0.00  0.00    -0.010 C 
ATOM     11  C   UNL     1       5.486  -7.079   3.618  0.00  0.00    +0.260 C 
ATOM     12  O   UNL     1       6.036  -6.775   2.580  0.00  0.00    -0.271 OA
ATOM     13  H   UNL     1       2.552  -5.654   9.295  0.00  0.00    -0.086 HD
ATOM     14  H   UNL     1       2.222  -4.290   8.435  0.00  0.00    -0.086 HD
ENDROOT
BRANCH  11  15
ATOM     15  C   UNL     1       6.108  -8.106   4.528  0.00  0.00    +0.296 C 
ATOM     16  C   UNL     1       5.237  -9.370   4.553  0.00  0.00    +0.283 C 
ATOM     17  O   UNL     1       5.863 -10.328   5.414  0.00  0.00    -0.484 OA
ATOM     18  C   UNL     1       7.201 -10.515   5.250  0.00  0.00    +0.162 A 
ATOM     19  C   UNL     1       7.798 -11.653   5.772  0.00  0.00    +0.049 A 
ATOM     20  C   UNL     1       9.156 -11.856   5.617  0.00  0.00    +0.004 A 
ATOM     21  C   UNL     1       9.923 -10.926   4.940  0.00  0.00    +0.004 A 
ATOM     22  C   UNL     1       9.334  -9.791   4.415  0.00  0.00    +0.049 A 
ATOM     23  C   UNL     1       7.972  -9.582   4.566  0.00  0.00    +0.163 A 
ATOM     24  O   UNL     1       7.405  -8.463   4.037  0.00  0.00    -0.473 OA
ENDBRANCH  11  15
BRANCH   1  26
ATOM     25  N   UNL     1       1.092  -2.931   4.283  0.00  0.00    -0.311 N 
ATOM     26  C   UNL     1       1.578  -4.105   3.834  0.00  0.00    +0.218 C 
ATOM     27  O   UNL     1       0.882  -4.830   3.155  0.00  0.00    -0.275 OA
ATOM     28  H   UNL     1       1.649  -2.351   4.825  0.00  0.00    +0.149 HD
BRANCH  25  29
ATOM     29  C   UNL     1      -0.278  -2.530   3.952  0.00  0.00    +0.139 C 
BRANCH  29  35
ATOM     30  C   UNL     1      -2.347   0.201   7.599  0.00  0.00    +0.044 C 
ATOM     31  C   UNL     1      -1.563   0.119   6.315  0.00  0.00    -0.050 A 
ATOM     32  C   UNL     1      -1.113   1.275   5.705  0.00  0.00    +0.003 A 
ATOM     33  C   UNL     1      -0.393   1.199   4.527  0.00  0.00    +0.004 A 
ATOM     34  C   UNL     1      -0.123  -0.032   3.960  0.00  0.00    -0.046 A 
ATOM     35  C   UNL     1      -0.572  -1.188   4.571  0.00  0.00    -0.027 A 
ATOM     36  C   UNL     1      -1.288  -1.113   5.751  0.00  0.00    +0.008 A 
ATOM     37  C   UNL     1       0.661  -0.114   2.675  0.00  0.00    +0.044 C 
ENDBRANCH  29  35
ENDBRANCH  25  29
ENDBRANCH   1  26
TORSDOF 4
