REMARK  Name = ZINC39664688
REMARK  14 active torsions:
REMARK  status: ('A' for Active; 'I' for Inactive)
REMARK    1  A    between atoms: C_1  and  N_2
REMARK    2  A    between atoms: N_2  and  C_3
REMARK    3  A    between atoms: N_2  and  C_4
REMARK    4  A    between atoms: C_4  and  C_5
REMARK    5  A    between atoms: C_5  and  C_7
REMARK    6  A    between atoms: C_5  and  N_13
REMARK    7  A    between atoms: C_14  and  C_16
REMARK    8  A    between atoms: C_27  and  C_29
REMARK    9  A    between atoms: C_31  and  O_39
REMARK   10  A    between atoms: C_32  and  O_37
REMARK   11  A    between atoms: C_33  and  O_35
REMARK   12  A    between atoms: O_35  and  C_36
REMARK   13  A    between atoms: O_37  and  C_38
REMARK   14  A    between atoms: O_39  and  C_40
REMARK                            x       y       z     vdW  Elec       q    Type
REMARK                         _______ _______ _______ _____ _____    ______ ____
ROOT
ATOM      1  C   UNL     1      -3.663  -0.100   1.558  0.00  0.00    +0.100 C 
ATOM      2  C   UNL     1      -4.189  -1.485   1.117  0.00  0.00    +0.121 C 
ATOM      3  N   UNL     1      -5.497  -1.203   0.480  0.00  0.00    -0.296 N 
ATOM      4  C   UNL     1      -5.275   0.051  -0.279  0.00  0.00    +0.115 C 
ATOM      5  C   UNL     1      -4.377   0.904   0.638  0.00  0.00    -0.004 C 
ATOM      6  C   UNL     1      -3.357   1.677  -0.193  0.00  0.00    -0.010 C 
ATOM      7  C   UNL     1      -4.087   2.711  -1.056  0.00  0.00    -0.082 C 
ATOM      8  N   UNL     1      -4.840   3.628  -0.192  0.00  0.00    +0.379 N 
ATOM      9  C   UNL     1      -5.881   2.890   0.534  0.00  0.00    -0.082 C 
ATOM     10  C   UNL     1      -5.228   1.865   1.465  0.00  0.00    -0.010 C 
ATOM     11  C   UNL     1      -6.633  -1.923   0.572  0.00  0.00    +0.247 C 
ATOM     12  O   UNL     1      -6.687  -2.880   1.320  0.00  0.00    -0.270 OA
ATOM     13  H   UNL     1      -4.212   4.058   0.469  0.00  0.00    -0.086 HD
ATOM     14  H   UNL     1      -5.271   4.344  -0.759  0.00  0.00    -0.086 HD
ENDROOT
BRANCH  11  15
ATOM     15  C   UNL     1      -7.810  -1.550  -0.237  0.00  0.00    +0.044 A 
ATOM     16  C   UNL     1      -7.653  -0.763  -1.380  0.00  0.00    +0.062 A 
ATOM     17  C   UNL     1      -8.757  -0.415  -2.136  0.00  0.00    +0.166 A 
ATOM     18  C   UNL     1     -10.025  -0.849  -1.758  0.00  0.00    +0.204 A 
ATOM     19  C   UNL     1     -10.184  -1.633  -0.619  0.00  0.00    +0.166 A 
ATOM     20  C   UNL     1      -9.083  -1.988   0.137  0.00  0.00    +0.062 A 
BRANCH  19  21
ATOM     21  O   UNL     1     -11.425  -2.054  -0.252  0.00  0.00    -0.491 OA
ATOM     22  C   UNL     1     -11.515  -2.856   0.928  0.00  0.00    +0.277 C 
ENDBRANCH  19  21
BRANCH  18  23
ATOM     23  O   UNL     1     -11.109  -0.505  -2.502  0.00  0.00    -0.488 OA
ATOM     24  C   UNL     1     -11.477  -1.392  -3.561  0.00  0.00    +0.277 C 
ENDBRANCH  18  23
BRANCH  17  25
ATOM     25  O   UNL     1      -8.605   0.351  -3.249  0.00  0.00    -0.491 OA
ATOM     26  C   UNL     1      -7.276   0.761  -3.578  0.00  0.00    +0.277 C 
ENDBRANCH  17  25
ENDBRANCH  11  15
BRANCH   1  28
ATOM     27  N   UNL     1      -1.430   0.781   2.155  0.00  0.00    -0.310 N 
ATOM     28  C   UNL     1      -2.171  -0.020   1.364  0.00  0.00    +0.219 C 
ATOM     29  O   UNL     1      -1.636  -0.677   0.496  0.00  0.00    -0.275 OA
ATOM     30  H   UNL     1      -1.844   1.240   2.903  0.00  0.00    +0.149 HD
BRANCH  27  31
ATOM     31  C   UNL     1      -0.001   0.959   1.886  0.00  0.00    +0.087 C 
BRANCH  31  32
ATOM     32  C   UNL     1       0.294   2.424   1.692  0.00  0.00    -0.029 A 
ATOM     33  C   UNL     1      -0.317   3.365   2.499  0.00  0.00    +0.005 A 
ATOM     34  C   UNL     1      -0.046   4.709   2.322  0.00  0.00    +0.000 A 
ATOM     35  C   UNL     1       0.838   5.112   1.338  0.00  0.00    +0.000 A 
ATOM     36  C   UNL     1       1.450   4.171   0.532  0.00  0.00    +0.000 A 
ATOM     37  C   UNL     1       1.182   2.827   0.712  0.00  0.00    +0.005 A 
ENDBRANCH  31  32
BRANCH  31  38
ATOM     38  C   UNL     1       0.811   0.427   3.068  0.00  0.00    -0.052 C 
BRANCH  38  40
ATOM     39  C   UNL     1       0.932  -1.785   2.146  0.00  0.00    -0.097 C 
ATOM     40  N   UNL     1       0.479  -0.987   3.292  0.00  0.00    +0.377 N 
ATOM     41  C   UNL     1       1.147  -1.459   4.512  0.00  0.00    -0.097 C 
ATOM     42  H   UNL     1      -0.520  -1.085   3.397  0.00  0.00    -0.083 HD
ENDBRANCH  38  40
ENDBRANCH  31  38
ENDBRANCH  27  31
ENDBRANCH   1  28
TORSDOF 9
