REMARK  Name = ZINC33812560
REMARK  11 active torsions:
REMARK  status: ('A' for Active; 'I' for Inactive)
REMARK    1  A    between atoms: C_1  and  C_2
REMARK    2  A    between atoms: C_2  and  C_3
REMARK    3  A    between atoms: C_3  and  N_4
REMARK    4  A    between atoms: C_5  and  N_29
REMARK    5  A    between atoms: C_6  and  C_14
REMARK    6  A    between atoms: C_7  and  C_13
REMARK    7  A    between atoms: C_8  and  C_11
REMARK    8  A    between atoms: N_18  and  C_22
REMARK    9  A    between atoms: C_22  and  C_23
REMARK   10  A    between atoms: N_32  and  C_35
REMARK   11  A    between atoms: C_35  and  C_36
REMARK                            x       y       z     vdW  Elec       q    Type
REMARK                         _______ _______ _______ _____ _____    ______ ____
ROOT
ATOM      1  N   UNL     1      -1.343  -2.365   0.424  0.00  0.00    -0.295 N 
ATOM      2  C   UNL     1      -1.350  -2.858  -0.841  0.00  0.00    +0.112 A 
ATOM      3  C   UNL     1      -1.682  -4.202  -1.081  0.00  0.00    +0.019 A 
ATOM      4  C   UNL     1      -2.007  -5.037   0.002  0.00  0.00    -0.017 A 
ATOM      5  C   UNL     1      -1.991  -4.507   1.289  0.00  0.00    +0.120 A 
ATOM      6  C   UNL     1      -1.645  -3.145   1.478  0.00  0.00    +0.270 A 
ATOM      7  O   UNL     1      -1.625  -2.676   2.602  0.00  0.00    -0.266 OA
ATOM      8  C   UNL     1      -2.366  -6.482  -0.227  0.00  0.00    +0.046 C 
ENDROOT
BRANCH   3   9
ATOM      9  C   UNL     1      -1.689  -4.728  -2.447  0.00  0.00    +0.032 C 
ATOM     10  C   UNL     1      -0.785  -5.675  -2.816  0.00  0.00    +0.077 C 
ATOM     11  C   UNL     1       0.313  -6.219  -2.082  0.00  0.00    +0.259 C 
ATOM     12  O   UNL     1       0.558  -5.842  -0.950  0.00  0.00    -0.269 OA
ATOM     13  N   UNL     1       1.055  -7.142  -2.667  0.00  0.00    -0.251 N 
ATOM     14  C   UNL     1       0.783  -7.560  -3.924  0.00  0.00    +0.121 C 
ATOM     15  S   UNL     1       1.602  -8.731  -4.866  0.00  0.00    -0.027 S 
ATOM     16  S   UNL     1      -0.652  -6.585  -4.349  0.00  0.00    -0.061 S 
BRANCH  13  17
ATOM     17  C   UNL     1       2.189  -7.722  -1.944  0.00  0.00    +0.150 C 
BRANCH  17  18
ATOM     18  C   UNL     1       1.729  -8.934  -1.175  0.00  0.00    -0.030 A 
ATOM     19  C   UNL     1       1.265  -8.795   0.120  0.00  0.00    +0.005 A 
ATOM     20  C   UNL     1       0.843  -9.906   0.825  0.00  0.00    +0.000 A 
ATOM     21  C   UNL     1       0.883 -11.156   0.235  0.00  0.00    +0.000 A 
ATOM     22  C   UNL     1       1.347 -11.294  -1.060  0.00  0.00    +0.000 A 
ATOM     23  C   UNL     1       1.765 -10.183  -1.767  0.00  0.00    +0.005 A 
ENDBRANCH  17  18
ENDBRANCH  13  17
ENDBRANCH   3   9
BRANCH   2  24
ATOM     24  N   UNL     1      -1.034  -2.042  -1.887  0.00  0.00    -0.320 N 
ATOM     25  C   UNL     1       0.337  -1.992  -2.420  0.00  0.00    +0.088 C 
ATOM     26  C   UNL     1       0.274  -2.172  -3.940  0.00  0.00    -0.060 C 
ATOM     27  N   UNL     1      -0.636  -1.173  -4.513  0.00  0.00    +0.382 N 
ATOM     28  C   UNL     1      -2.003  -1.406  -4.031  0.00  0.00    -0.060 C 
ATOM     29  C   UNL     1      -2.055  -1.192  -2.519  0.00  0.00    +0.088 C 
ATOM     30  H   UNL     1      -0.337  -0.250  -4.238  0.00  0.00    -0.082 HD
BRANCH  27  31
ATOM     31  C   UNL     1      -0.612  -1.275  -5.979  0.00  0.00    -0.082 C 
ATOM     32  C   UNL     1      -1.462  -0.155  -6.582  0.00  0.00    -0.017 C 
ENDBRANCH  27  31
ENDBRANCH   2  24
BRANCH   5  33
ATOM     33  C   UNL     1      -2.318  -5.332   2.413  0.00  0.00    +0.105 C 
ATOM     34  N   UNL     1      -2.577  -5.986   3.305  0.00  0.00    -0.191 NA
ENDBRANCH   5  33
BRANCH   1  35
ATOM     35  C   UNL     1      -0.994  -0.959   0.646  0.00  0.00    +0.126 C 
BRANCH  35  37
ATOM     36  C   UNL     1       0.861   0.618   1.209  0.00  0.00    +0.005 C 
ATOM     37  C   UNL     1       0.496  -0.850   0.977  0.00  0.00    +0.018 C 
ENDBRANCH  35  37
ENDBRANCH   1  35
TORSDOF 8
