REMARK  Name = ZINC09311991
REMARK  17 active torsions:
REMARK  status: ('A' for Active; 'I' for Inactive)
REMARK    1  A    between atoms: C_1  and  C_2
REMARK    2  A    between atoms: C_2  and  N_76
REMARK    3  A    between atoms: C_3  and  C_4
REMARK    4  A    between atoms: C_3  and  N_76
REMARK    5  A    between atoms: C_5  and  C_6
REMARK    6  A    between atoms: C_5  and  N_76
REMARK    7  A    between atoms: C_6  and  N_7
REMARK    8  A    between atoms: C_8  and  C_28
REMARK    9  A    between atoms: C_11  and  C_12
REMARK   10  A    between atoms: C_11  and  O_23
REMARK   11  A    between atoms: C_19  and  C_22
REMARK   12  A    between atoms: C_31  and  O_37
REMARK   13  A    between atoms: C_32  and  O_34
REMARK   14  A    between atoms: O_34  and  C_35
REMARK   15  A    between atoms: C_35  and  C_36
REMARK   16  A    between atoms: O_37  and  C_38
REMARK   17  A    between atoms: C_38  and  C_39
REMARK                            x       y       z     vdW  Elec       q    Type
REMARK                         _______ _______ _______ _____ _____    ______ ____
ROOT
ATOM      1  N   UNL     1      -2.443   4.183   7.866  0.00  0.00    -0.285 N 
ATOM      2  C   UNL     1      -1.111   3.635   7.597  0.00  0.00    +0.144 C 
ATOM      3  C   UNL     1      -1.066   3.310   6.122  0.00  0.00    +0.071 C 
ATOM      4  C   UNL     1      -0.003   2.773   5.422  0.00  0.00    +0.133 C 
ATOM      5  C   UNL     1      -2.324   3.658   5.607  0.00  0.00    +0.249 C 
ATOM      6  O   UNL     1      -2.679   3.541   4.448  0.00  0.00    -0.282 OA
ATOM      7  C   UNL     1      -3.149   4.197   6.722  0.00  0.00    +0.288 C 
ATOM      8  O   UNL     1      -4.292   4.591   6.615  0.00  0.00    -0.266 OA
ENDROOT
BRANCH   4   9
ATOM      9  C   UNL     1      -0.079   2.636   3.959  0.00  0.00    +0.017 A 
ATOM     10  C   UNL     1      -0.508   3.711   3.171  0.00  0.00    +0.015 A 
ATOM     11  C   UNL     1      -0.582   3.581   1.803  0.00  0.00    +0.046 A 
ATOM     12  C   UNL     1      -0.232   2.376   1.188  0.00  0.00    +0.124 A 
ATOM     13  C   UNL     1       0.202   1.313   1.977  0.00  0.00    -0.002 A 
ATOM     14  C   UNL     1       0.277   1.430   3.342  0.00  0.00    +0.019 A 
ATOM     15  C   UNL     1       0.518   0.165   1.037  0.00  0.00    +0.083 C 
ATOM     16  C   UNL     1       0.591   0.884  -0.331  0.00  0.00    +0.175 C 
ATOM     17  O   UNL     1      -0.241   2.039  -0.129  0.00  0.00    -0.488 OA
ATOM     18  C   UNL     1       2.028   1.299  -0.648  0.00  0.00    +0.052 C 
ENDBRANCH   4   9
BRANCH   2  19
ATOM     19  C   UNL     1      -0.057   4.658   7.932  0.00  0.00    -0.019 A 
ATOM     20  C   UNL     1      -0.276   5.993   7.645  0.00  0.00    +0.009 A 
ATOM     21  C   UNL     1       0.688   6.936   7.950  0.00  0.00    +0.050 A 
ATOM     22  C   UNL     1       1.876   6.544   8.546  0.00  0.00    +0.162 A 
ATOM     23  C   UNL     1       2.096   5.201   8.836  0.00  0.00    +0.162 A 
ATOM     24  C   UNL     1       1.124   4.262   8.531  0.00  0.00    +0.055 A 
BRANCH  23  25
ATOM     25  O   UNL     1       3.260   4.812   9.421  0.00  0.00    -0.489 OA
BRANCH  25  26
ATOM     26  C   UNL     1       3.417   3.417   9.689  0.00  0.00    +0.226 C 
ATOM     27  C   UNL     1       4.779   3.173  10.343  0.00  0.00    +0.048 C 
ENDBRANCH  25  26
ENDBRANCH  23  25
BRANCH  22  28
ATOM     28  O   UNL     1       2.825   7.470   8.847  0.00  0.00    -0.489 OA
BRANCH  28  29
ATOM     29  C   UNL     1       2.531   8.830   8.521  0.00  0.00    +0.226 C 
ATOM     30  C   UNL     1       3.708   9.719   8.931  0.00  0.00    +0.048 C 
ENDBRANCH  28  29
ENDBRANCH  22  28
ENDBRANCH   2  19
BRANCH   4  31
ATOM     31  O   UNL     1       1.106   2.373   6.080  0.00  0.00    -0.506 OA
ATOM     32  H   UNL     1       1.770   2.013   5.426  0.00  0.00    +0.292 HD
ENDBRANCH   4  31
BRANCH   1  33
ATOM     33  C   UNL     1      -2.929   4.638   9.171  0.00  0.00    +0.090 C 
BRANCH  33  34
ATOM     34  C   UNL     1      -3.582   3.468   9.908  0.00  0.00    -0.060 C 
BRANCH  34  35
ATOM     35  N   UNL     1      -4.085   3.948  11.213  0.00  0.00    +0.380 N 
ATOM     36  H   UNL     1      -4.667   4.780  11.060  0.00  0.00    -0.082 HD
BRANCH  35  38
ATOM     37  C   UNL     1      -6.283   2.877  11.183  0.00  0.00    -0.017 C 
ATOM     38  C   UNL     1      -4.907   2.899  11.853  0.00  0.00    -0.082 C 
ENDBRANCH  35  38
BRANCH  35  39
ATOM     39  C   UNL     1      -2.952   4.307  12.090  0.00  0.00    -0.082 C 
ATOM     40  C   UNL     1      -3.481   5.138  13.261  0.00  0.00    -0.017 C 
ENDBRANCH  35  39
ENDBRANCH  34  35
ENDBRANCH  33  34
ENDBRANCH   1  33
TORSDOF 12
