REMARK  Name = ZINC08751056
REMARK  8 active torsions:
REMARK  status: ('A' for Active; 'I' for Inactive)
REMARK    1  A    between atoms: C_1  and  C_2
REMARK    2  A    between atoms: C_6  and  C_29
REMARK    3  A    between atoms: C_7  and  N_8
REMARK    4  A    between atoms: C_9  and  C_13
REMARK    5  A    between atoms: C_13  and  C_15
REMARK    6  A    between atoms: C_13  and  N_47
REMARK    7  A    between atoms: C_23  and  C_24
REMARK    8  A    between atoms: C_23  and  N_47
REMARK                            x       y       z     vdW  Elec       q    Type
REMARK                         _______ _______ _______ _____ _____    ______ ____
ROOT
ATOM      1  C   UNL     1      -3.004   5.389   0.634  0.00  0.00    +0.032 C 
ENDROOT
BRANCH   1   2
ATOM      2  C   UNL     1      -3.561   5.645  -0.743  0.00  0.00    -0.036 A 
ATOM      3  C   UNL     1      -2.914   6.516  -1.599  0.00  0.00    +0.005 A 
ATOM      4  C   UNL     1      -3.421   6.747  -2.864  0.00  0.00    +0.020 A 
ATOM      5  C   UNL     1      -4.584   6.116  -3.269  0.00  0.00    +0.042 A 
ATOM      6  C   UNL     1      -5.235   5.249  -2.411  0.00  0.00    +0.040 A 
ATOM      7  C   UNL     1      -4.724   5.013  -1.147  0.00  0.00    +0.044 A 
ATOM      8 CL   UNL     1      -5.541   3.926  -0.068  0.00  0.00    -0.083 Cl
ATOM      9 CL   UNL     1      -5.225   6.412  -4.855  0.00  0.00    -0.083 Cl
ENDBRANCH   1   2
BRANCH   1  11
ATOM     10  N   UNL     1      -0.534   4.756   0.565  0.00  0.00    -0.198 N 
ATOM     11  C   UNL     1      -1.524   5.671   0.637  0.00  0.00    +0.147 A 
ATOM     12  N   UNL     1      -0.960   6.848   0.711  0.00  0.00    -0.114 NA
ATOM     13  N   UNL     1       0.320   6.739   0.690  0.00  0.00    -0.023 NA
ATOM     14  N   UNL     1       0.660   5.498   0.609  0.00  0.00    -0.039 NA
BRANCH  10  21
ATOM     15  C   UNL     1      -1.236   3.635  -1.955  0.00  0.00    +0.046 C 
ATOM     16  C   UNL     1      -1.008   2.776  -0.738  0.00  0.00    -0.025 A 
ATOM     17  C   UNL     1      -1.139   1.403  -0.827  0.00  0.00    +0.005 A 
ATOM     18  C   UNL     1      -0.929   0.614   0.290  0.00  0.00    +0.001 A 
ATOM     19  C   UNL     1      -0.594   1.197   1.498  0.00  0.00    +0.005 A 
ATOM     20  C   UNL     1      -0.458   2.568   1.591  0.00  0.00    -0.025 A 
ATOM     21  C   UNL     1      -0.667   3.363   0.473  0.00  0.00    +0.075 A 
ATOM     22  C   UNL     1      -0.088   3.201   2.908  0.00  0.00    +0.046 C 
ENDBRANCH  10  21
ENDBRANCH   1  11
BRANCH   1  23
ATOM     23  N   UNL     1      -3.670   6.277   1.606  0.00  0.00    +0.393 N 
ATOM     24  H   UNL     1      -4.064   7.086   1.111  0.00  0.00    -0.084 HD
ATOM     25  H   UNL     1      -2.982   6.600   2.296  0.00  0.00    -0.084 HD
BRANCH  23  26
ATOM     26  C   UNL     1      -4.754   5.556   2.300  0.00  0.00    -0.005 C 
BRANCH  26  27
ATOM     27  C   UNL     1      -5.332   6.445   3.370  0.00  0.00    +0.088 A 
ATOM     28  C   UNL     1      -6.354   7.304   3.212  0.00  0.00    +0.042 A 
ATOM     29  C   UNL     1      -6.564   7.927   4.465  0.00  0.00    +0.041 A 
ATOM     30  C   UNL     1      -5.656   7.410   5.313  0.00  0.00    +0.195 A 
ATOM     31  O   UNL     1      -4.917   6.509   4.646  0.00  0.00    -0.470 OA
ENDBRANCH  26  27
ENDBRANCH  23  26
ENDBRANCH   1  23
TORSDOF 6
