REMARK  Name = ZINC00909805
REMARK  7 active torsions:
REMARK  status: ('A' for Active; 'I' for Inactive)
REMARK    1  A    between atoms: C_1  and  C_2
REMARK    2  A    between atoms: C_4  and  C_32
REMARK    3  A    between atoms: C_9  and  C_14
REMARK    4  A    between atoms: C_14  and  C_16
REMARK    5  A    between atoms: C_14  and  N_61
REMARK    6  A    between atoms: N_20  and  C_21
REMARK    7  A    between atoms: C_28  and  O_31
REMARK                            x       y       z     vdW  Elec       q    Type
REMARK                         _______ _______ _______ _____ _____    ______ ____
ROOT
ATOM      1  C   UNL     1      -0.099   0.979   2.425  0.00  0.00    +0.039 C 
ENDROOT
BRANCH   1  10
ATOM      2  C   UNL     1       0.246   4.563   8.955  0.00  0.00    +0.044 C 
ATOM      3  C   UNL     1      -0.548   3.893   7.865  0.00  0.00    -0.050 A 
ATOM      4  C   UNL     1      -1.931   3.815   7.969  0.00  0.00    +0.008 A 
ATOM      5  C   UNL     1      -2.678   3.206   6.984  0.00  0.00    -0.026 A 
ATOM      6  C   UNL     1      -2.042   2.663   5.872  0.00  0.00    +0.052 A 
ATOM      7  C   UNL     1      -0.640   2.744   5.770  0.00  0.00    -0.001 A 
ATOM      8  C   UNL     1       0.097   3.367   6.782  0.00  0.00    +0.013 A 
ATOM      9  C   UNL     1       0.020   2.170   4.596  0.00  0.00    +0.017 A 
ATOM     10  C   UNL     1      -0.747   1.579   3.646  0.00  0.00    +0.011 A 
ATOM     11  C   UNL     1      -2.150   1.530   3.794  0.00  0.00    +0.251 A 
ATOM     12  O   UNL     1      -2.820   0.998   2.926  0.00  0.00    -0.268 OA
ATOM     13  N   UNL     1      -2.764   2.049   4.871  0.00  0.00    -0.322 N 
ATOM     14  H   UNL     1      -3.759   1.989   4.948  0.00  0.00    +0.169 HD
ATOM     15  C   UNL     1      -4.177   3.129   7.111  0.00  0.00    +0.046 C 
ENDBRANCH   1  10
BRANCH   1  21
ATOM     16  C   UNL     1      -0.013   1.086   0.008  0.00  0.00    -0.075 C 
ATOM     17  C   UNL     1      -0.752   1.593  -1.232  0.00  0.00    +0.013 C 
ATOM     18  C   UNL     1      -0.788   3.123  -1.209  0.00  0.00    +0.111 C 
ATOM     19  C   UNL     1      -1.465   3.591   0.082  0.00  0.00    +0.013 C 
ATOM     20  C   UNL     1      -0.705   3.026   1.284  0.00  0.00    -0.075 C 
ATOM     21  N   UNL     1      -0.728   1.550   1.216  0.00  0.00    +0.389 N 
ATOM     22  H   UNL     1      -1.704   1.234   1.167  0.00  0.00    -0.080 HD
BRANCH  18  23
ATOM     23  O   UNL     1      -1.527   3.600  -2.336  0.00  0.00    -0.392 OA
ATOM     24  H   UNL     1      -1.590   4.564  -2.385  0.00  0.00    +0.210 HD
ENDBRANCH  18  23
ENDBRANCH   1  21
BRANCH   1  25
ATOM     25  C   UNL     1      -0.313  -0.513   2.425  0.00  0.00    +0.143 A 
ATOM     26  N   UNL     1      -1.427  -1.144   2.146  0.00  0.00    -0.115 NA
ATOM     27  N   UNL     1      -1.207  -2.409   2.253  0.00  0.00    -0.023 NA
ATOM     28  N   UNL     1       0.018  -2.601   2.602  0.00  0.00    -0.044 NA
ATOM     29  N   UNL     1       0.602  -1.456   2.718  0.00  0.00    -0.227 N 
BRANCH  29  30
ATOM     30  C   UNL     1       1.998  -1.226   3.098  0.00  0.00    +0.111 C 
ATOM     31  C   UNL     1       2.939  -1.950   2.115  0.00  0.00    +0.027 C 
ATOM     32  C   UNL     1       4.098  -2.463   3.007  0.00  0.00    +0.002 C 
ATOM     33  C   UNL     1       3.368  -2.890   4.304  0.00  0.00    +0.002 C 
ATOM     34  C   UNL     1       2.270  -1.823   4.490  0.00  0.00    +0.027 C 
ENDBRANCH  29  30
ENDBRANCH   1  25
TORSDOF 5
