REMARK  Name = ZINC36543698
REMARK  14 active torsions:
REMARK  status: ('A' for Active; 'I' for Inactive)
REMARK    1  A    between atoms: C_1  and  C_2
REMARK    2  A    between atoms: C_2  and  C_3
REMARK    3  A    between atoms: C_2  and  C_4
REMARK    4  A    between atoms: C_2  and  N_5
REMARK    5  A    between atoms: C_6  and  C_8
REMARK    6  A    between atoms: C_8  and  C_10
REMARK    7  A    between atoms: C_8  and  N_19
REMARK    8  A    between atoms: C_11  and  O_18
REMARK    9  A    between atoms: C_13  and  O_17
REMARK   10  A    between atoms: C_15  and  O_16
REMARK   11  A    between atoms: N_19  and  C_20
REMARK   12  A    between atoms: C_27  and  C_29
REMARK   13  A    between atoms: C_32  and  O_35
REMARK   14  A    between atoms: O_35  and  C_36
REMARK                            x       y       z     vdW  Elec       q    Type
REMARK                         _______ _______ _______ _____ _____    ______ ____
ROOT
ATOM      1  C   UNL     1       2.843  -0.410  -2.416  0.00  0.00    +0.204 C 
ENDROOT
BRANCH   1   2
ATOM      2  C   UNL     1       2.804  -1.908  -2.253  0.00  0.00    +0.065 A 
ATOM      3  C   UNL     1       3.750  -2.545  -1.463  0.00  0.00    +0.129 A 
ATOM      4  C   UNL     1       3.714  -3.923  -1.313  0.00  0.00    +0.091 A 
ATOM      5  C   UNL     1       2.732  -4.664  -1.953  0.00  0.00    +0.124 A 
ATOM      6  C   UNL     1       1.786  -4.028  -2.742  0.00  0.00    +0.091 A 
ATOM      7  C   UNL     1       1.819  -2.649  -2.889  0.00  0.00    +0.129 A 
BRANCH   7   8
ATOM      8  O   UNL     1       0.889  -2.025  -3.658  0.00  0.00    -0.506 OA
ATOM      9  H   UNL     1       1.144  -1.935  -4.587  0.00  0.00    +0.292 HD
ENDBRANCH   7   8
BRANCH   5  10
ATOM     10  O   UNL     1       2.697  -6.015  -1.807  0.00  0.00    -0.507 OA
ATOM     11  H   UNL     1       2.161  -6.316  -1.061  0.00  0.00    +0.292 HD
ENDBRANCH   5  10
BRANCH   3  12
ATOM     12  O   UNL     1       4.712  -1.818  -0.836  0.00  0.00    -0.506 OA
ATOM     13  H   UNL     1       4.463  -1.517   0.049  0.00  0.00    +0.292 HD
ENDBRANCH   3  12
ENDBRANCH   1   2
BRANCH   1  15
ATOM     14  N   UNL     1       1.477   0.190  -0.443  0.00  0.00    -0.309 N 
ATOM     15  C   UNL     1       2.669   0.246  -1.071  0.00  0.00    +0.239 C 
ATOM     16  O   UNL     1       3.601   0.824  -0.552  0.00  0.00    -0.273 OA
ATOM     17  H   UNL     1       0.732  -0.272  -0.857  0.00  0.00    +0.149 HD
BRANCH  14  19
ATOM     18  C   UNL     1       1.591   2.327   0.742  0.00  0.00    +0.031 C 
ATOM     19  C   UNL     1       1.308   0.828   0.865  0.00  0.00    +0.026 C 
ATOM     20  C   UNL     1       2.282   0.205   1.866  0.00  0.00    +0.031 C 
ATOM     21  C   UNL     1      -0.127   0.619   1.352  0.00  0.00    +0.031 C 
ENDBRANCH  14  19
ENDBRANCH   1  15
BRANCH   1  22
ATOM     22  N   UNL     1       4.132  -0.015  -2.989  0.00  0.00    -0.250 N 
ATOM     23  C   UNL     1       4.363   1.275  -3.303  0.00  0.00    +0.252 C 
ATOM     24  O   UNL     1       3.536   2.124  -3.030  0.00  0.00    -0.270 OA
BRANCH  22  25
ATOM     25  C   UNL     1       5.124  -0.977  -3.210  0.00  0.00    +0.056 A 
ATOM     26  C   UNL     1       4.948  -1.945  -4.189  0.00  0.00    +0.025 A 
ATOM     27  C   UNL     1       5.929  -2.893  -4.406  0.00  0.00    +0.002 A 
ATOM     28  C   UNL     1       7.086  -2.879  -3.648  0.00  0.00    +0.002 A 
ATOM     29  C   UNL     1       7.265  -1.917  -2.672  0.00  0.00    +0.022 A 
ATOM     30  C   UNL     1       6.290  -0.961  -2.454  0.00  0.00    +0.062 A 
ATOM     31 CL   UNL     1       6.519   0.252  -1.233  0.00  0.00    -0.082 Cl
ENDBRANCH  22  25
BRANCH  23  32
ATOM     32  C   UNL     1       5.618   1.658  -3.978  0.00  0.00    +0.037 A 
ATOM     33  C   UNL     1       6.223   0.780  -4.882  0.00  0.00    +0.016 A 
ATOM     34  C   UNL     1       7.394   1.141  -5.510  0.00  0.00    +0.046 A 
ATOM     35  C   UNL     1       7.975   2.376  -5.245  0.00  0.00    +0.120 A 
ATOM     36  C   UNL     1       7.377   3.251  -4.346  0.00  0.00    +0.046 A 
ATOM     37  C   UNL     1       6.203   2.900  -3.718  0.00  0.00    +0.016 A 
BRANCH  35  38
ATOM     38  O   UNL     1       9.129   2.728  -5.866  0.00  0.00    -0.495 OA
ATOM     39  C   UNL     1       9.672   4.011  -5.548  0.00  0.00    +0.277 C 
ENDBRANCH  35  38
ENDBRANCH  23  32
ENDBRANCH   1  22
TORSDOF 10
