REMARK  Name = ZINC14733183
REMARK  9 active torsions:
REMARK  status: ('A' for Active; 'I' for Inactive)
REMARK    1  A    between atoms: C_1  and  C_2
REMARK    2  A    between atoms: C_10  and  C_13
REMARK    3  A    between atoms: C_13  and  N_65
REMARK    4  A    between atoms: C_15  and  O_29
REMARK    5  A    between atoms: N_18  and  C_22
REMARK    6  A    between atoms: C_22  and  C_23
REMARK    7  A    between atoms: N_26  and  C_28
REMARK    8  A    between atoms: O_29  and  C_30
REMARK    9  A    between atoms: C_30  and  C_31
REMARK                            x       y       z     vdW  Elec       q    Type
REMARK                         _______ _______ _______ _____ _____    ______ ____
ROOT
ATOM      1  C   UNL     1       1.979  -4.695  -2.571  0.00  0.00    -0.044 C 
ATOM      2  C   UNL     1       1.335  -4.517  -1.209  0.00  0.00    +0.120 C 
ATOM      3  C   UNL     1       0.050  -5.343  -1.105  0.00  0.00    +0.137 C 
ATOM      4  N   UNL     1       0.408  -6.709  -0.686  0.00  0.00    -0.296 N 
ATOM      5  C   UNL     1       1.056  -7.515  -1.532  0.00  0.00    +0.199 C 
ATOM      6  O   UNL     1       1.359  -8.637  -1.184  0.00  0.00    -0.278 OA
ATOM      7  C   UNL     1       1.413  -7.034  -2.922  0.00  0.00    +0.019 C 
ATOM      8  N   UNL     1       2.517  -6.052  -2.790  0.00  0.00    +0.390 N 
ATOM      9  H   UNL     1       3.096  -6.312  -1.982  0.00  0.00    -0.081 HD
ENDROOT
BRANCH   8  10
ATOM     10  C   UNL     1       3.354  -6.067  -3.999  0.00  0.00    -0.035 C 
BRANCH  10  20
ATOM     11  C   UNL     1      10.132  -5.461  -0.759  0.00  0.00    +0.044 C 
ATOM     12  C   UNL     1       9.018  -4.922  -1.620  0.00  0.00    -0.050 A 
ATOM     13  C   UNL     1       9.140  -3.668  -2.201  0.00  0.00    +0.007 A 
ATOM     14  C   UNL     1       8.134  -3.158  -2.993  0.00  0.00    +0.047 A 
ATOM     15  C   UNL     1       6.981  -3.903  -3.214  0.00  0.00    +0.138 A 
ATOM     16  C   UNL     1       6.859  -5.172  -2.624  0.00  0.00    +0.064 A 
ATOM     17  C   UNL     1       7.885  -5.677  -1.827  0.00  0.00    +0.018 A 
ATOM     18  C   UNL     1       5.623  -5.941  -2.870  0.00  0.00    +0.194 A 
ATOM     19  O   UNL     1       5.455  -7.045  -2.383  0.00  0.00    -0.287 OA
ATOM     20  C   UNL     1       4.640  -5.340  -3.700  0.00  0.00    +0.018 A 
ATOM     21  C   UNL     1       4.861  -4.117  -4.214  0.00  0.00    +0.201 A 
ATOM     22  O   UNL     1       5.982  -3.425  -3.983  0.00  0.00    -0.462 OA
ENDBRANCH  10  20
ENDBRANCH   8  10
BRANCH   4  23
ATOM     23  C   UNL     1       0.054  -7.182   0.654  0.00  0.00    +0.146 C 
BRANCH  23  24
ATOM     24  C   UNL     1      -1.310  -7.822   0.617  0.00  0.00    +0.007 A 
ATOM     25  C   UNL     1      -2.530  -7.172   0.831  0.00  0.00    +0.139 A 
ATOM     26  N   UNL     1      -3.489  -8.054   0.714  0.00  0.00    -0.180 NA
ATOM     27  N   UNL     1      -2.909  -9.297   0.431  0.00  0.00    -0.274 N 
ATOM     28  C   UNL     1      -1.571  -9.128   0.378  0.00  0.00    +0.113 A 
ATOM     29  C   UNL     1      -3.627 -10.558   0.230  0.00  0.00    +0.172 C 
ENDBRANCH  23  24
ENDBRANCH   4  23
BRANCH   2  30
ATOM     30  O   UNL     1       1.025  -3.137  -1.012  0.00  0.00    -0.372 OA
BRANCH  30  31
ATOM     31  C   UNL     1       1.078  -2.718   0.354  0.00  0.00    +0.197 C 
BRANCH  31  32
ATOM     32  C   UNL     1       0.735  -1.253   0.444  0.00  0.00    -0.004 A 
ATOM     33  C   UNL     1      -0.580  -0.850   0.617  0.00  0.00    +0.009 A 
ATOM     34  C   UNL     1      -0.849   0.508   0.694  0.00  0.00    +0.020 A 
ATOM     35  C   UNL     1       0.196   1.408   0.596  0.00  0.00    +0.111 A 
ATOM     36  N   UNL     1       1.435   0.988   0.433  0.00  0.00    -0.263 NA
ATOM     37  C   UNL     1       1.727  -0.296   0.355  0.00  0.00    +0.116 A 
ENDBRANCH  31  32
ENDBRANCH  30  31
ENDBRANCH   2  30
TORSDOF 7
