REMARK  Name = ZINC14769318
REMARK  14 active torsions:
REMARK  status: ('A' for Active; 'I' for Inactive)
REMARK    1  A    between atoms: C_1  and  C_2
REMARK    2  A    between atoms: C_2  and  C_3
REMARK    3  A    between atoms: C_3  and  C_4
REMARK    4  A    between atoms: C_4  and  C_5
REMARK    5  A    between atoms: C_5  and  O_6
REMARK    6  A    between atoms: O_6  and  C_7
REMARK    7  A    between atoms: C_7  and  C_9
REMARK    8  A    between atoms: C_9  and  C_10
REMARK    9  A    between atoms: N_17  and  C_18
REMARK   10  A    between atoms: C_18  and  N_20
REMARK   11  A    between atoms: C_21  and  C_23
REMARK   12  A    between atoms: C_28  and  O_29
REMARK   13  A    between atoms: O_29  and  C_30
REMARK   14  A    between atoms: C_30  and  C_31
REMARK                            x       y       z     vdW  Elec       q    Type
REMARK                         _______ _______ _______ _____ _____    ______ ____
ROOT
ATOM      1  C   UNL     1       0.040  -0.036  -0.117  0.00  0.00    +0.171 C 
ATOM      2  C   UNL     1      -0.158   1.443   0.080  0.00  0.00    +0.234 C 
ATOM      3  O   UNL     1      -1.289   1.865   0.197  0.00  0.00    -0.274 OA
ATOM      4  N   UNL     1       0.854   2.311   0.126  0.00  0.00    -0.312 N 
ATOM      5  C   UNL     1       2.262   1.944   0.084  0.00  0.00    +0.123 C 
ATOM      6  C   UNL     1       2.444   0.561  -0.545  0.00  0.00    +0.126 C 
ATOM      7  N   UNL     1       1.464  -0.354   0.065  0.00  0.00    -0.299 N 
ATOM      8  H   UNL     1       0.635   3.254   0.192  0.00  0.00    +0.149 HD
ENDROOT
BRANCH   7   9
ATOM      9  C   UNL     1       1.857  -1.439   0.761  0.00  0.00    +0.140 C 
ATOM     10  S   UNL     1       3.524  -1.749   0.994  0.00  0.00    -0.018 S 
BRANCH   9  11
ATOM     11  N   UNL     1       0.937  -2.281   1.273  0.00  0.00    -0.264 N 
ATOM     12  C   UNL     1       1.329  -3.415   1.887  0.00  0.00    +0.253 C 
ATOM     13  O   UNL     1       2.512  -3.679   1.978  0.00  0.00    -0.270 OA
ATOM     14  H   UNL     1      -0.007  -2.070   1.200  0.00  0.00    +0.157 HD
BRANCH  12  15
ATOM     15  C   UNL     1       0.322  -4.335   2.447  0.00  0.00    +0.080 A 
ATOM     16  C   UNL     1      -1.039  -4.035   2.344  0.00  0.00    +0.032 A 
ATOM     17  C   UNL     1      -1.975  -4.901   2.870  0.00  0.00    +0.019 A 
ATOM     18  C   UNL     1      -1.571  -6.068   3.500  0.00  0.00    +0.019 A 
ATOM     19  C   UNL     1      -0.230  -6.375   3.608  0.00  0.00    +0.047 A 
ATOM     20  C   UNL     1       0.725  -5.519   3.081  0.00  0.00    +0.133 A 
ATOM     21 BR   UNL     1      -3.816  -4.494   2.731  0.00  0.00    -0.050 Br
BRANCH  20  22
ATOM     22  O   UNL     1       2.043  -5.823   3.181  0.00  0.00    -0.491 OA
BRANCH  22  23
ATOM     23  C   UNL     1       2.378  -7.046   3.840  0.00  0.00    +0.226 C 
ATOM     24  C   UNL     1       3.898  -7.217   3.857  0.00  0.00    +0.048 C 
ENDBRANCH  22  23
ENDBRANCH  20  22
ENDBRANCH  12  15
ENDBRANCH   9  11
ENDBRANCH   7   9
BRANCH   1  25
ATOM     25  C   UNL     1      -0.396  -0.428  -1.530  0.00  0.00    +0.152 C 
BRANCH  25  26
ATOM     26  C   UNL     1      -0.352  -1.927  -1.672  0.00  0.00    +0.309 C 
ATOM     27  O   UNL     1      -0.146  -2.620  -0.703  0.00  0.00    -0.251 OA
BRANCH  26  28
ATOM     28  O   UNL     1      -0.540  -2.494  -2.874  0.00  0.00    -0.465 OA
BRANCH  28  29
ATOM     29  C   UNL     1      -0.483  -3.943  -2.936  0.00  0.00    +0.232 C 
BRANCH  29  30
ATOM     30  C   UNL     1      -0.719  -4.402  -4.377  0.00  0.00    +0.041 C 
BRANCH  30  31
ATOM     31  C   UNL     1      -0.660  -5.929  -4.442  0.00  0.00    +0.003 C 
BRANCH  31  33
ATOM     32  C   UNL     1      -0.836  -7.915  -5.947  0.00  0.00    +0.004 C 
ATOM     33  C   UNL     1      -0.896  -6.388  -5.882  0.00  0.00    -0.003 C 
ENDBRANCH  31  33
ENDBRANCH  30  31
ENDBRANCH  29  30
ENDBRANCH  28  29
ENDBRANCH  26  28
ENDBRANCH  25  26
ENDBRANCH   1  25
TORSDOF 12
