REMARK  Name = ZINC27529388
REMARK  16 active torsions:
REMARK  status: ('A' for Active; 'I' for Inactive)
REMARK    1  A    between atoms: C_1  and  C_2
REMARK    2  A    between atoms: C_8  and  N_10
REMARK    3  A    between atoms: N_10  and  C_11
REMARK    4  A    between atoms: C_11  and  C_12
REMARK    5  A    between atoms: C_12  and  C_14
REMARK    6  A    between atoms: C_12  and  O_38
REMARK    7  A    between atoms: C_14  and  O_15
REMARK    8  A    between atoms: O_15  and  C_16
REMARK    9  A    between atoms: C_19  and  O_22
REMARK   10  A    between atoms: O_22  and  C_23
REMARK   11  A    between atoms: C_23  and  C_24
REMARK   12  A    between atoms: C_24  and  C_26
REMARK   13  A    between atoms: C_24  and  O_37
REMARK   14  A    between atoms: C_26  and  N_27
REMARK   15  A    between atoms: N_27  and  C_28
REMARK   16  A    between atoms: C_34  and  C_36
REMARK                            x       y       z     vdW  Elec       q    Type
REMARK                         _______ _______ _______ _____ _____    ______ ____
ROOT
ATOM      1  C   UNL     1       0.660  -0.431   8.505  0.00  0.00    +0.121 A 
ATOM      2  C   UNL     1       1.750  -1.289   8.546  0.00  0.00    +0.049 A 
ATOM      3  C   UNL     1       2.300  -1.647   9.761  0.00  0.00    +0.049 A 
ATOM      4  C   UNL     1       1.765  -1.148  10.940  0.00  0.00    +0.121 A 
ATOM      5  C   UNL     1       0.676  -0.290  10.898  0.00  0.00    +0.049 A 
ATOM      6  C   UNL     1       0.128   0.071   9.682  0.00  0.00    +0.049 A 
ENDROOT
BRANCH   1   7
ATOM      7  O   UNL     1       0.118  -0.079   7.308  0.00  0.00    -0.489 OA
BRANCH   7   8
ATOM      8  C   UNL     1       0.717  -0.634   6.136  0.00  0.00    +0.258 C 
BRANCH   8   9
ATOM      9  C   UNL     1      -0.023  -0.127   4.896  0.00  0.00    +0.135 C 
BRANCH   9  10
ATOM     10  O   UNL     1      -1.364  -0.622   4.906  0.00  0.00    -0.390 OA
ATOM     11  H   UNL     1      -1.427  -1.587   4.902  0.00  0.00    +0.210 HD
ENDBRANCH   9  10
BRANCH   9  12
ATOM     12  C   UNL     1       0.693  -0.621   3.637  0.00  0.00    -0.047 C 
BRANCH  12  13
ATOM     13  N   UNL     1       0.054  -0.037   2.450  0.00  0.00    +0.383 N 
ATOM     14  H   UNL     1       0.112   0.969   2.498  0.00  0.00    -0.085 HD
ATOM     15  H   UNL     1      -0.914  -0.317   2.417  0.00  0.00    -0.085 HD
BRANCH  13  22
ATOM     16  C   UNL     1      -0.019   1.526   0.010  0.00  0.00    +0.006 C 
ATOM     17  C   UNL     1       0.002  -0.004   0.002  0.00  0.00    -0.028 C 
ATOM     18  C   UNL     1       0.718  -0.497  -1.257  0.00  0.00    +0.002 C 
ATOM     19  C   UNL     1       2.154   0.032  -1.268  0.00  0.00    +0.000 C 
ATOM     20  C   UNL     1       2.894  -0.475  -0.028  0.00  0.00    -0.002 C 
ATOM     21  C   UNL     1       2.178   0.019   1.231  0.00  0.00    -0.016 C 
ATOM     22  C   UNL     1       0.742  -0.511   1.242  0.00  0.00    -0.069 C 
ENDBRANCH  13  22
ENDBRANCH  12  13
ENDBRANCH   9  12
ENDBRANCH   8   9
ENDBRANCH   7   8
ENDBRANCH   1   7
BRANCH   4  23
ATOM     23  O   UNL     1       2.307  -1.501  12.136  0.00  0.00    -0.489 OA
BRANCH  23  24
ATOM     24  C   UNL     1       1.704  -0.950  13.309  0.00  0.00    +0.258 C 
BRANCH  24  25
ATOM     25  C   UNL     1       2.444  -1.457  14.548  0.00  0.00    +0.135 C 
BRANCH  25  26
ATOM     26  O   UNL     1       3.783  -0.958  14.541  0.00  0.00    -0.390 OA
ATOM     27  H   UNL     1       3.843   0.007  14.548  0.00  0.00    +0.210 HD
ENDBRANCH  25  26
BRANCH  25  28
ATOM     28  C   UNL     1       1.724  -0.969  15.807  0.00  0.00    -0.047 C 
BRANCH  28  29
ATOM     29  N   UNL     1       2.435  -1.455  16.997  0.00  0.00    +0.383 N 
ATOM     30  H   UNL     1       2.452  -2.464  16.990  0.00  0.00    -0.085 HD
ATOM     31  H   UNL     1       3.380  -1.103  16.992  0.00  0.00    -0.085 HD
BRANCH  29  32
ATOM     32  C   UNL     1       1.744  -0.986  18.206  0.00  0.00    -0.069 C 
ATOM     33  C   UNL     1       1.827   0.540  18.281  0.00  0.00    -0.016 C 
ATOM     34  C   UNL     1       1.107   1.028  19.540  0.00  0.00    -0.002 C 
ATOM     35  C   UNL     1       1.773   0.420  20.776  0.00  0.00    +0.000 C 
ATOM     36  C   UNL     1       1.690  -1.106  20.701  0.00  0.00    +0.002 C 
ATOM     37  C   UNL     1       2.409  -1.595  19.442  0.00  0.00    -0.028 C 
ATOM     38  C   UNL     1       3.877  -1.165  19.494  0.00  0.00    +0.006 C 
ENDBRANCH  29  32
ENDBRANCH  28  29
ENDBRANCH  25  28
ENDBRANCH  24  25
ENDBRANCH  23  24
ENDBRANCH   4  23
TORSDOF 14
