REMARK  Name = ZINC06925886
REMARK  5 active torsions:
REMARK  status: ('A' for Active; 'I' for Inactive)
REMARK    1  A    between atoms: C_3  and  O_21
REMARK    2  A    between atoms: C_8  and  C_11
REMARK    3  A    between atoms: N_13  and  C_14
REMARK    4  A    between atoms: C_15  and  C_19
REMARK    5  A    between atoms: O_21  and  C_22
REMARK                            x       y       z     vdW  Elec       q    Type
REMARK                         _______ _______ _______ _____ _____    ______ ____
ROOT
ATOM      1  C   UNL     1       1.189   3.435  -0.017  0.00  0.00    +0.005 A 
ATOM      2  C   UNL     1       1.167   2.047  -0.009  0.00  0.00    +0.046 A 
ATOM      3  C   UNL     1      -0.017   1.350   0.009  0.00  0.00    +0.136 A 
ATOM      4  C   UNL     1      -1.262   2.040   0.015  0.00  0.00    +0.050 A 
ATOM      5  C   UNL     1      -1.198   3.453   0.012  0.00  0.00    +0.025 A 
ATOM      6  C   UNL     1      -0.001   4.136  -0.006  0.00  0.00    +0.016 A 
ATOM      7  S   UNL     1      -2.904   3.945   0.030  0.00  0.00    -0.082 S 
ATOM      8  C   UNL     1      -3.642   2.321   0.048  0.00  0.00    +0.094 A 
ATOM      9  C   UNL     1      -2.558   1.495   0.040  0.00  0.00    +0.071 A 
ATOM     10 CL   UNL     1      -2.777  -0.227   0.052  0.00  0.00    -0.081 Cl
ENDROOT
BRANCH   8  11
ATOM     11  C   UNL     1      -5.063   1.963   0.068  0.00  0.00    +0.256 C 
ATOM     12  O   UNL     1      -5.396   0.792   0.079  0.00  0.00    -0.269 OA
ATOM     13  N   UNL     1      -6.001   2.930   0.074  0.00  0.00    -0.284 N 
ATOM     14  H   UNL     1      -5.738   3.861   0.143  0.00  0.00    +0.155 HD
BRANCH  13  15
ATOM     15  C   UNL     1      -7.333   2.597  -0.019  0.00  0.00    +0.024 C 
ATOM     16  C   UNL     1      -8.338   3.482  -0.111  0.00  0.00    +0.046 C 
ATOM     17  C   UNL     1      -9.666   2.766  -0.200  0.00  0.00    +0.048 C 
ATOM     18  C   UNL     1      -9.310   1.308  -0.568  0.00  0.00    +0.011 C 
ATOM     19  C   UNL     1      -7.869   1.184  -0.025  0.00  0.00    +0.052 C 
BRANCH  16  20
ATOM     20  C   UNL     1      -8.175   4.905  -0.126  0.00  0.00    +0.096 C 
ATOM     21  N   UNL     1      -8.046   6.033  -0.138  0.00  0.00    -0.191 NA
ENDBRANCH  16  20
ENDBRANCH  13  15
ENDBRANCH   8  11
BRANCH   3  22
ATOM     22  O   UNL     1       0.001  -0.007   0.016  0.00  0.00    -0.434 OA
BRANCH  22  23
ATOM     23  C   UNL     1       1.282  -0.639   0.004  0.00  0.00    +0.541 C 
ATOM     24  F   UNL     1       1.978  -0.260  -1.149  0.00  0.00    -0.166 F 
ATOM     25  F   UNL     1       2.006  -0.248   1.135  0.00  0.00    -0.166 F 
ENDBRANCH  22  23
ENDBRANCH   3  22
TORSDOF 5
