REMARK  Name = ZINC07278937
REMARK  5 active torsions:
REMARK  status: ('A' for Active; 'I' for Inactive)
REMARK    1  A    between atoms: C_1  and  C_2
REMARK    2  A    between atoms: C_2  and  C_4
REMARK    3  A    between atoms: C_2  and  N_13
REMARK    4  A    between atoms: C_14  and  C_16
REMARK    5  A    between atoms: C_16  and  N_17
REMARK                            x       y       z     vdW  Elec       q    Type
REMARK                         _______ _______ _______ _____ _____    ______ ____
ROOT
ATOM      1  C   UNL     1      -1.763   4.150   0.039  0.00  0.00    +0.213 C 
ENDROOT
BRANCH   1   2
ATOM      2  N   UNL     1      -0.782   3.062   0.025  0.00  0.00    -0.215 N 
ATOM      3  C   UNL     1       0.556   3.246   0.014  0.00  0.00    +0.251 C 
ATOM      4  O   UNL     1       1.154   4.301   0.014  0.00  0.00    -0.272 OA
ATOM      5  C   UNL     1       1.147   1.860   0.001  0.00  0.00    +0.138 C 
ATOM      6  C   UNL     1       2.019   1.640  -1.242  0.00  0.00    +0.045 C 
ATOM      7  C   UNL     1       3.435   1.949  -0.705  0.00  0.00    +0.038 C 
ATOM      8  C   UNL     1       3.364   1.676   0.783  0.00  0.00    -0.042 A 
ATOM      9  C   UNL     1       2.041   1.627   1.189  0.00  0.00    -0.012 A 
ATOM     10  C   UNL     1       1.740   1.390   2.519  0.00  0.00    +0.006 A 
ATOM     11  C   UNL     1       2.751   1.202   3.441  0.00  0.00    +0.000 A 
ATOM     12  C   UNL     1       4.072   1.251   3.035  0.00  0.00    +0.000 A 
ATOM     13  C   UNL     1       4.376   1.488   1.708  0.00  0.00    +0.004 A 
ATOM     14  N   UNL     1      -0.011   0.966   0.007  0.00  0.00    -0.281 N 
ATOM     15  C   UNL     1      -1.100   1.761   0.016  0.00  0.00    +0.310 C 
ATOM     16  O   UNL     1      -2.242   1.344   0.019  0.00  0.00    -0.252 OA
ATOM     17  H   UNL     1       0.002  -0.004   0.002  0.00  0.00    +0.152 HD
ENDBRANCH   1   2
BRANCH   1  19
ATOM     18  N   UNL     1      -3.002   5.515  -1.610  0.00  0.00    -0.304 N 
ATOM     19  C   UNL     1      -2.112   4.530  -1.377  0.00  0.00    +0.232 C 
ATOM     20  O   UNL     1      -1.593   3.949  -2.306  0.00  0.00    -0.274 OA
ATOM     21  H   UNL     1      -3.417   5.979  -0.867  0.00  0.00    +0.149 HD
BRANCH  18  23
ATOM     22  C   UNL     1      -4.448   4.962  -3.504  0.00  0.00    +0.036 C 
ATOM     23  C   UNL     1      -3.341   5.884  -2.987  0.00  0.00    +0.136 C 
BRANCH  23  24
ATOM     24  C   UNL     1      -3.821   7.312  -3.020  0.00  0.00    +0.126 A 
ATOM     25  C   UNL     1      -3.510   8.204  -3.971  0.00  0.00    +0.055 A 
ATOM     26  C   UNL     1      -4.194   9.450  -3.603  0.00  0.00    +0.020 A 
ATOM     27  C   UNL     1      -4.273  10.721  -4.168  0.00  0.00    +0.011 A 
ATOM     28  C   UNL     1      -5.013  11.692  -3.552  0.00  0.00    +0.001 A 
ATOM     29  C   UNL     1      -5.685  11.418  -2.369  0.00  0.00    +0.004 A 
ATOM     30  C   UNL     1      -5.617  10.167  -1.795  0.00  0.00    +0.047 A 
ATOM     31  C   UNL     1      -4.871   9.166  -2.405  0.00  0.00    +0.135 A 
ATOM     32  O   UNL     1      -4.618   7.878  -2.097  0.00  0.00    -0.458 OA
ENDBRANCH  23  24
ENDBRANCH  18  23
ENDBRANCH   1  19
TORSDOF 4
