REMARK  Name = ZINC25400931
REMARK  7 active torsions:
REMARK  status: ('A' for Active; 'I' for Inactive)
REMARK    1  A    between atoms: C_3  and  C_18
REMARK    2  A    between atoms: C_5  and  S_7
REMARK    3  A    between atoms: S_7  and  N_10
REMARK    4  A    between atoms: N_10  and  C_11
REMARK    5  A    between atoms: C_11  and  C_12
REMARK    6  A    between atoms: N_20  and  N_21
REMARK    7  A    between atoms: C_22  and  C_24
REMARK                            x       y       z     vdW  Elec       q    Type
REMARK                         _______ _______ _______ _____ _____    ______ ____
ROOT
ATOM      1  C   UNL     1      -0.473  -1.124  -3.831  0.00  0.00    +0.003 A 
ATOM      2  C   UNL     1      -1.831  -1.349  -3.923  0.00  0.00    +0.013 A 
ATOM      3  C   UNL     1      -2.644  -1.162  -2.805  0.00  0.00    +0.040 A 
ATOM      4  C   UNL     1      -2.075  -0.753  -1.597  0.00  0.00    +0.041 A 
ATOM      5  C   UNL     1      -0.717  -0.526  -1.520  0.00  0.00    +0.106 A 
ATOM      6  C   UNL     1       0.084  -0.714  -2.633  0.00  0.00    +0.028 A 
ENDROOT
BRANCH   3   7
ATOM      7  C   UNL     1      -4.100  -1.401  -2.896  0.00  0.00    +0.260 C 
ATOM      8  O   UNL     1      -4.805  -1.238  -1.920  0.00  0.00    -0.269 OA
ATOM      9  N   UNL     1      -4.645  -1.802  -4.062  0.00  0.00    -0.230 N 
ATOM     10  H   UNL     1      -4.006  -1.950  -4.945  0.00  0.00    +0.173 HD
BRANCH   9  11
ATOM     11  N   UNL     1      -6.024  -2.029  -4.149  0.00  0.00    -0.230 N 
ATOM     12  C   UNL     1      -6.569  -2.429  -5.315  0.00  0.00    +0.267 C 
ATOM     13  O   UNL     1      -5.863  -2.594  -6.292  0.00  0.00    -0.268 OA
ATOM     14  H   UNL     1      -6.663  -1.881  -3.265  0.00  0.00    +0.173 HD
BRANCH  12  15
ATOM     15  C   UNL     1      -8.013  -2.667  -5.405  0.00  0.00    +0.076 A 
ATOM     16  C   UNL     1      -8.763  -3.076  -6.493  0.00  0.00    +0.024 A 
ATOM     17  C   UNL     1     -10.129  -3.232  -6.324  0.00  0.00    -0.036 A 
ATOM     18  C   UNL     1     -10.630  -2.965  -5.082  0.00  0.00    -0.006 A 
ATOM     19  S   UNL     1      -9.261  -2.512  -4.139  0.00  0.00    -0.088 S 
ATOM     20  C   UNL     1     -12.060  -3.055  -4.646  0.00  0.00    +0.043 C 
ATOM     21  C   UNL     1     -12.944  -3.136  -5.899  0.00  0.00    +0.005 C 
ATOM     22  C   UNL     1     -12.361  -4.189  -6.845  0.00  0.00    +0.005 C 
ATOM     23  C   UNL     1     -11.054  -3.679  -7.453  0.00  0.00    +0.036 C 
ENDBRANCH  12  15
ENDBRANCH   9  11
ENDBRANCH   3   7
BRANCH   5  24
ATOM     24  S   UNL     1       0.002  -0.004   0.002  0.00  0.00    +0.059 S 
ATOM     25  O   UNL     1       1.369  -0.392  -0.040  0.00  0.00    -0.153 OA
ATOM     26  O   UNL     1      -0.878  -0.428   1.034  0.00  0.00    -0.153 OA
BRANCH  24  27
ATOM     27  N   UNL     1      -0.020   1.652   0.011  0.00  0.00    -0.187 NA
ATOM     28  H   UNL     1       0.917   2.203  -0.156  0.00  0.00    +0.148 HD
BRANCH  27  29
ATOM     29  C   UNL     1      -1.299   2.367   0.021  0.00  0.00    +0.137 C 
BRANCH  29  30
ATOM     30  C   UNL     1      -1.062   3.830   0.401  0.00  0.00    +0.134 C 
ATOM     31  C   UNL     1      -2.409   4.574   0.540  0.00  0.00    +0.035 C 
ATOM     32  C   UNL     1      -2.119   5.982  -0.027  0.00  0.00    +0.031 C 
ATOM     33  C   UNL     1      -0.633   5.922  -0.442  0.00  0.00    +0.160 C 
ATOM     34  O   UNL     1      -0.367   4.519  -0.661  0.00  0.00    -0.375 OA
ENDBRANCH  29  30
ENDBRANCH  27  29
ENDBRANCH  24  27
ENDBRANCH   5  24
TORSDOF 7
