REMARK  Name = ZINC64061407
REMARK  11 active torsions:
REMARK  status: ('A' for Active; 'I' for Inactive)
REMARK    1  A    between atoms: C_1  and  C_2
REMARK    2  A    between atoms: C_2  and  N_3
REMARK    3  A    between atoms: C_4  and  C_6
REMARK    4  A    between atoms: N_8  and  C_29
REMARK    5  A    between atoms: C_10  and  C_13
REMARK    6  A    between atoms: N_15  and  C_16
REMARK    7  A    between atoms: C_16  and  C_17
REMARK    8  A    between atoms: C_17  and  C_18
REMARK    9  A    between atoms: C_29  and  C_30
REMARK   10  A    between atoms: C_30  and  C_31
REMARK   11  A    between atoms: C_30  and  C_32
REMARK                            x       y       z     vdW  Elec       q    Type
REMARK                         _______ _______ _______ _____ _____    ______ ____
ROOT
ATOM      1  C   UNL     1       3.110  -1.014  -5.941  0.00  0.00    +0.249 C 
ATOM      2  O   UNL     1       3.494  -1.487  -6.993  0.00  0.00    -0.270 OA
ATOM      3  N   UNL     1       3.207   0.313  -5.723  0.00  0.00    -0.311 N 
ATOM      4  H   UNL     1       2.835   0.701  -4.916  0.00  0.00    +0.149 HD
ENDROOT
BRANCH   1   9
ATOM      5  C   UNL     1       1.409  -2.275  -2.692  0.00  0.00    +0.100 A 
ATOM      6  C   UNL     1       1.475  -3.621  -2.977  0.00  0.00    +0.102 A 
ATOM      7  N   UNL     1       2.021  -4.069  -4.120  0.00  0.00    -0.351 N 
ATOM      8  C   UNL     1       2.538  -3.259  -5.058  0.00  0.00    +0.102 A 
ATOM      9  C   UNL     1       2.539  -1.890  -4.903  0.00  0.00    +0.100 A 
ATOM     10  C   UNL     1       1.951  -1.325  -3.678  0.00  0.00    +0.206 A 
ATOM     11  O   UNL     1       1.918  -0.121  -3.485  0.00  0.00    -0.286 OA
BRANCH   5  13
ATOM     12  N   UNL     1       0.651  -0.476  -1.222  0.00  0.00    -0.311 N 
ATOM     13  C   UNL     1       0.808  -1.798  -1.435  0.00  0.00    +0.249 C 
ATOM     14  O   UNL     1       0.453  -2.597  -0.589  0.00  0.00    -0.270 OA
ATOM     15  H   UNL     1       1.000   0.163  -1.862  0.00  0.00    +0.149 HD
BRANCH  12  17
ATOM     16  C   UNL     1      -0.088   1.524  -0.024  0.00  0.00    +0.024 C 
ATOM     17  C   UNL     1      -0.048  -0.006  -0.023  0.00  0.00    +0.101 C 
ENDBRANCH  12  17
ENDBRANCH   5  13
BRANCH   7  18
ATOM     18  C   UNL     1       2.056  -5.515  -4.353  0.00  0.00    +0.124 C 
BRANCH  18  19
ATOM     19  C   UNL     1       0.779  -5.945  -5.080  0.00  0.00    +0.003 C 
ATOM     20  C   UNL     1       0.747  -5.310  -6.472  0.00  0.00    +0.009 C 
ATOM     21  C   UNL     1       0.757  -7.469  -5.213  0.00  0.00    +0.009 C 
ENDBRANCH  18  19
ENDBRANCH   7  18
ENDBRANCH   1   9
BRANCH   3  22
ATOM     22  C   UNL     1       3.875   1.169  -6.707  0.00  0.00    +0.108 C 
BRANCH  22  23
ATOM     23  C   UNL     1       3.848   2.620  -6.221  0.00  0.00    +0.065 C 
BRANCH  23  24
ATOM     24  C   UNL     1       4.546   3.514  -7.248  0.00  0.00    +0.175 C 
ATOM     25  N   UNL     1       3.764   3.561  -8.490  0.00  0.00    -0.363 N 
ATOM     26  C   UNL     1       3.422   4.800  -8.691  0.00  0.00    +0.060 A 
ATOM     27  C   UNL     1       2.647   5.464  -9.749  0.00  0.00    +0.029 A 
ATOM     28  C   UNL     1       2.450   6.796  -9.693  0.00  0.00    +0.022 A 
ATOM     29  C   UNL     1       2.959   7.595  -8.651  0.00  0.00    +0.043 A 
ATOM     30  C   UNL     1       3.682   7.086  -7.632  0.00  0.00    +0.047 A 
ATOM     31  C   UNL     1       3.961   5.645  -7.590  0.00  0.00    +0.062 A 
ATOM     32  N   UNL     1       4.616   4.894  -6.750  0.00  0.00    -0.363 N 
ATOM     33 CL   UNL     1       2.643   9.302  -8.679  0.00  0.00    -0.083 Cl
ATOM     34  H   UNL     1       3.543   2.805  -9.057  0.00  0.00    +0.162 HD
ATOM     35  H   UNL     1       5.066   5.191  -5.944  0.00  0.00    +0.162 HD
ENDBRANCH  23  24
ENDBRANCH  22  23
ENDBRANCH   3  22
TORSDOF 8
