REMARK  Name = ZINC35449701
REMARK  12 active torsions:
REMARK  status: ('A' for Active; 'I' for Inactive)
REMARK    1  A    between atoms: C_1  and  C_2
REMARK    2  A    between atoms: C_2  and  C_3
REMARK    3  A    between atoms: C_2  and  C_4
REMARK    4  A    between atoms: C_4  and  C_5
REMARK    5  A    between atoms: C_5  and  S_6
REMARK    6  A    between atoms: S_6  and  C_7
REMARK    7  A    between atoms: C_14  and  C_24
REMARK    8  A    between atoms: C_27  and  O_32
REMARK    9  A    between atoms: C_28  and  O_30
REMARK   10  A    between atoms: O_30  and  C_31
REMARK   11  A    between atoms: O_32  and  C_33
REMARK   12  A    between atoms: C_33  and  C_34
REMARK                            x       y       z     vdW  Elec       q    Type
REMARK                         _______ _______ _______ _____ _____    ______ ____
ROOT
ATOM      1  C   UNL     1      -2.929  -4.430  -0.269  0.00  0.00    +0.171 A 
ATOM      2  N   UNL     1      -1.719  -4.943  -0.356  0.00  0.00    -0.208 NA
ATOM      3  C   UNL     1      -1.536  -6.262  -0.479  0.00  0.00    +0.135 A 
ATOM      4  C   UNL     1      -2.630  -7.109  -0.519  0.00  0.00    +0.069 A 
ATOM      5  C   UNL     1      -3.913  -6.559  -0.423  0.00  0.00    +0.258 A 
ATOM      6  O   UNL     1      -4.901  -7.276  -0.452  0.00  0.00    -0.267 OA
ATOM      7  N   UNL     1      -4.038  -5.221  -0.293  0.00  0.00    -0.302 N 
ATOM      8  C   UNL     1      -2.449  -8.590  -0.665  0.00  0.00    +0.093 C 
ATOM      9  C   UNL     1      -1.040  -9.007  -0.325  0.00  0.00    +0.024 C 
ATOM     10  C   UNL     1      -0.033  -8.110  -0.299  0.00  0.00    +0.017 C 
ATOM     11  N   UNL     1      -0.261  -6.787  -0.565  0.00  0.00    -0.302 N 
ATOM     12  C   UNL     1       1.380  -8.537   0.020  0.00  0.00    +0.051 C 
ATOM     13  C   UNL     1       1.352  -9.727   0.982  0.00  0.00    +0.014 C 
ATOM     14  C   UNL     1       0.563 -10.864   0.324  0.00  0.00    +0.080 C 
ATOM     15  C   UNL     1      -0.809 -10.364  -0.035  0.00  0.00    +0.162 C 
ATOM     16  O   UNL     1      -1.737 -11.147  -0.074  0.00  0.00    -0.292 OA
ATOM     17  H   UNL     1       0.479  -6.213  -0.816  0.00  0.00    +0.153 HD
ATOM     18  H   UNL     1      -4.919  -4.822  -0.222  0.00  0.00    +0.171 HD
ENDROOT
BRANCH   8  19
ATOM     19  C   UNL     1      -2.749  -8.986  -2.088  0.00  0.00    -0.032 A 
ATOM     20  C   UNL     1      -2.005  -8.452  -3.124  0.00  0.00    +0.008 A 
ATOM     21  C   UNL     1      -2.276  -8.812  -4.431  0.00  0.00    +0.050 A 
ATOM     22  C   UNL     1      -3.296  -9.709  -4.705  0.00  0.00    +0.162 A 
ATOM     23  C   UNL     1      -4.045 -10.245  -3.663  0.00  0.00    +0.162 A 
ATOM     24  C   UNL     1      -3.765  -9.885  -2.355  0.00  0.00    +0.054 A 
BRANCH  23  25
ATOM     25  O   UNL     1      -5.048 -11.126  -3.927  0.00  0.00    -0.491 OA
ATOM     26  C   UNL     1      -5.774 -11.636  -2.808  0.00  0.00    +0.277 C 
ENDBRANCH  23  25
BRANCH  22  27
ATOM     27  O   UNL     1      -3.565 -10.063  -5.991  0.00  0.00    -0.484 OA
BRANCH  27  28
ATOM     28  C   UNL     1      -2.755  -9.472  -7.009  0.00  0.00    +0.264 C 
BRANCH  28  29
ATOM     29  C   UNL     1      -3.196  -9.979  -8.358  0.00  0.00    -0.010 A 
ATOM     30  C   UNL     1      -2.627 -11.123  -8.886  0.00  0.00    +0.007 A 
ATOM     31  C   UNL     1      -3.031 -11.588 -10.123  0.00  0.00    +0.000 A 
ATOM     32  C   UNL     1      -4.004 -10.909 -10.833  0.00  0.00    +0.000 A 
ATOM     33  C   UNL     1      -4.574  -9.765 -10.305  0.00  0.00    +0.000 A 
ATOM     34  C   UNL     1      -4.173  -9.303  -9.065  0.00  0.00    +0.007 A 
ENDBRANCH  28  29
ENDBRANCH  27  28
ENDBRANCH  22  27
ENDBRANCH   8  19
BRANCH   1  35
ATOM     35  S   UNL     1      -3.118  -2.686  -0.108  0.00  0.00    -0.088 S 
BRANCH  35  36
ATOM     36  C   UNL     1      -1.416  -2.058  -0.121  0.00  0.00    +0.077 C 
BRANCH  36  37
ATOM     37  C   UNL     1      -1.433  -0.534   0.013  0.00  0.00    +0.014 C 
BRANCH  37  39
ATOM     38  C   UNL     1      -0.019   1.526   0.010  0.00  0.00    +0.007 C 
ATOM     39  C   UNL     1       0.002  -0.004   0.002  0.00  0.00    -0.016 C 
ATOM     40  C   UNL     1       0.742  -0.511   1.242  0.00  0.00    +0.007 C 
ENDBRANCH  37  39
ENDBRANCH  36  37
ENDBRANCH  35  36
ENDBRANCH   1  35
TORSDOF 9
