REMARK  Name = ZINC01079367
REMARK  4 active torsions:
REMARK  status: ('A' for Active; 'I' for Inactive)
REMARK    1  A    between atoms: C_1  and  C_2
REMARK    2  A    between atoms: C_5  and  S_8
REMARK    3  A    between atoms: S_8  and  N_11
REMARK    4  A    between atoms: C_17  and  N_29
REMARK                            x       y       z     vdW  Elec       q    Type
REMARK                         _______ _______ _______ _____ _____    ______ ____
ROOT
ATOM      1  N   UNL     1       3.412   2.896   0.361  0.00  0.00    -0.218 N 
ATOM      2  C   UNL     1       2.101   2.797   0.787  0.00  0.00    +0.117 A 
ATOM      3  C   UNL     1       1.432   1.961  -0.001  0.00  0.00    -0.012 A 
ATOM      4  C   UNL     1       2.379   1.474  -0.999  0.00  0.00    +0.047 A 
ATOM      5  C   UNL     1       3.610   2.106  -0.733  0.00  0.00    +0.078 A 
ATOM      6  C   UNL     1       4.705   1.829  -1.551  0.00  0.00    +0.061 A 
ATOM      7  C   UNL     1       4.512   0.931  -2.589  0.00  0.00    +0.132 A 
ATOM      8  C   UNL     1       3.296   0.305  -2.837  0.00  0.00    +0.079 A 
ATOM      9  C   UNL     1       2.198   0.557  -2.043  0.00  0.00    +0.140 A 
ATOM     10  O   UNL     1       0.975  -0.011  -2.200  0.00  0.00    -0.455 OA
ATOM     11  C   UNL     1       0.477  -0.680  -1.119  0.00  0.00    +0.132 A 
ATOM     12  C   UNL     1       0.470  -2.069  -1.128  0.00  0.00    +0.047 A 
ATOM     13  C   UNL     1       0.011  -2.767  -0.029  0.00  0.00    +0.019 A 
ATOM     14  C   UNL     1      -0.445  -2.088   1.087  0.00  0.00    +0.018 A 
ATOM     15  C   UNL     1      -0.450  -0.704   1.099  0.00  0.00    +0.022 A 
ATOM     16  C   UNL     1       0.002  -0.004   0.002  0.00  0.00    +0.000 A 
ATOM     17  C   UNL     1      -0.019   1.517   0.010  0.00  0.00    +0.076 C 
ATOM     18 BR   UNL     1      -1.062  -3.050   2.594  0.00  0.00    -0.050 Br
ENDROOT
BRANCH   1  19
ATOM     19  S   UNL     1       4.573   3.837   1.074  0.00  0.00    +0.084 S 
ATOM     20  O   UNL     1       5.198   4.572   0.031  0.00  0.00    -0.148 OA
ATOM     21  O   UNL     1       3.955   4.470   2.187  0.00  0.00    -0.148 OA
BRANCH  19  26
ATOM     22  C   UNL     1       8.760   0.114   3.311  0.00  0.00    +0.044 C 
ATOM     23  C   UNL     1       7.715   1.044   2.753  0.00  0.00    -0.050 A 
ATOM     24  C   UNL     1       7.832   1.520   1.460  0.00  0.00    +0.005 A 
ATOM     25  C   UNL     1       6.873   2.373   0.947  0.00  0.00    +0.029 A 
ATOM     26  C   UNL     1       5.796   2.750   1.727  0.00  0.00    +0.111 A 
ATOM     27  C   UNL     1       5.681   2.279   3.022  0.00  0.00    +0.029 A 
ATOM     28  C   UNL     1       6.638   1.423   3.533  0.00  0.00    +0.005 A 
ENDBRANCH  19  26
ENDBRANCH   1  19
BRANCH   7  29
ATOM     29  N   UNL     1       5.656   0.625  -3.477  0.00  0.00    +0.057 N 
ATOM     30  O   UNL     1       5.519  -0.159  -4.398  0.00  0.00    -0.126 OA
ATOM     31  O   UNL     1       6.735   1.158  -3.286  0.00  0.00    -0.126 OA
ENDBRANCH   7  29
TORSDOF 3
