REMARK  Name = ZINC38604640
REMARK  8 active torsions:
REMARK  status: ('A' for Active; 'I' for Inactive)
REMARK    1  A    between atoms: C_4  and  S_10
REMARK    2  A    between atoms: C_5  and  N_7
REMARK    3  A    between atoms: S_10  and  N_13
REMARK    4  A    between atoms: N_13  and  C_14
REMARK    5  A    between atoms: C_14  and  C_15
REMARK    6  A    between atoms: C_15  and  C_17
REMARK    7  A    between atoms: C_15  and  N_22
REMARK    8  A    between atoms: N_25  and  C_28
REMARK                            x       y       z     vdW  Elec       q    Type
REMARK                         _______ _______ _______ _____ _____    ______ ____
ROOT
ATOM      1  C   UNL     1       3.519  -3.642   3.691  0.00  0.00    +0.015 C 
ENDROOT
BRANCH   1   2
ATOM      2  N   UNL     1       3.476  -2.717   4.831  0.00  0.00    +0.389 N 
ATOM      3  C   UNL     1       4.339  -1.562   4.555  0.00  0.00    -0.059 C 
ATOM      4  C   UNL     1       4.206  -0.543   5.691  0.00  0.00    +0.086 C 
ATOM      5  N   UNL     1       4.491  -1.224   6.964  0.00  0.00    -0.333 N 
ATOM      6  C   UNL     1       3.787  -2.483   7.249  0.00  0.00    +0.086 C 
ATOM      7  C   UNL     1       3.940  -3.411   6.039  0.00  0.00    -0.059 C 
ATOM      8  H   UNL     1       2.528  -2.401   4.969  0.00  0.00    -0.081 HD
BRANCH   5   9
ATOM      9  C   UNL     1       5.406  -0.689   7.876  0.00  0.00    +0.030 A 
ATOM     10  C   UNL     1       5.965   0.562   7.648  0.00  0.00    +0.026 A 
ATOM     11  C   UNL     1       6.868   1.089   8.551  0.00  0.00    +0.040 A 
ATOM     12  C   UNL     1       7.215   0.371   9.682  0.00  0.00    +0.124 A 
ATOM     13  C   UNL     1       6.659  -0.876   9.912  0.00  0.00    +0.040 A 
ATOM     14  C   UNL     1       5.752  -1.405   9.015  0.00  0.00    +0.026 A 
ATOM     15  F   UNL     1       8.099   0.888  10.564  0.00  0.00    -0.205 F 
ENDBRANCH   5   9
ENDBRANCH   1   2
BRANCH   1  16
ATOM     16  C   UNL     1       2.552  -4.774   3.924  0.00  0.00    +0.093 A 
ATOM     17  C   UNL     1       2.771  -6.069   3.635  0.00  0.00    +0.043 A 
ATOM     18  C   UNL     1       1.608  -6.777   4.015  0.00  0.00    +0.041 A 
ATOM     19  C   UNL     1       0.747  -5.872   4.515  0.00  0.00    +0.195 A 
ATOM     20  O   UNL     1       1.327  -4.661   4.463  0.00  0.00    -0.469 OA
ENDBRANCH   1  16
BRANCH   1  21
ATOM     21  C   UNL     1       3.132  -2.896   2.413  0.00  0.00    +0.098 C 
BRANCH  21  22
ATOM     22  N   UNL     1       1.823  -2.262   2.595  0.00  0.00    -0.191 NA
ATOM     23  H   UNL     1       1.238  -2.556   3.310  0.00  0.00    +0.148 HD
BRANCH  22  24
ATOM     24  S   UNL     1       1.345  -1.043   1.581  0.00  0.00    +0.061 S 
ATOM     25  O   UNL     1       2.423  -0.120   1.519  0.00  0.00    -0.153 OA
ATOM     26  O   UNL     1       0.039  -0.663   1.992  0.00  0.00    -0.153 OA
BRANCH  24  30
ATOM     27  C   UNL     1       0.933  -2.833  -2.556  0.00  0.00    +0.002 A 
ATOM     28  C   UNL     1       1.823  -1.798  -2.336  0.00  0.00    +0.002 A 
ATOM     29  C   UNL     1       1.949  -1.252  -1.073  0.00  0.00    +0.031 A 
ATOM     30  C   UNL     1       1.184  -1.739  -0.029  0.00  0.00    +0.135 A 
ATOM     31  C   UNL     1       0.293  -2.773  -0.250  0.00  0.00    +0.152 A 
ATOM     32  C   UNL     1       0.168  -3.320  -1.513  0.00  0.00    +0.035 A 
BRANCH  31  33
ATOM     33  N   UNL     1      -0.525  -3.296   0.868  0.00  0.00    +0.058 N 
ATOM     34  O   UNL     1      -1.267  -4.233   0.686  0.00  0.00    -0.126 OA
ATOM     35  O   UNL     1      -0.452  -2.785   1.961  0.00  0.00    -0.126 OA
ENDBRANCH  31  33
ENDBRANCH  24  30
ENDBRANCH  22  24
ENDBRANCH  21  22
ENDBRANCH   1  21
TORSDOF 8
