REMARK  Name = ZINC17913449
REMARK  13 active torsions:
REMARK  status: ('A' for Active; 'I' for Inactive)
REMARK    1  A    between atoms: C_1  and  N_66
REMARK    2  A    between atoms: C_2  and  N_66
REMARK    3  A    between atoms: C_3  and  C_5
REMARK    4  A    between atoms: C_3  and  C_30
REMARK    5  A    between atoms: C_3  and  N_66
REMARK    6  A    between atoms: C_5  and  N_6
REMARK    7  A    between atoms: C_7  and  C_9
REMARK    8  A    between atoms: C_9  and  C_10
REMARK    9  A    between atoms: N_12  and  C_24
REMARK   10  A    between atoms: C_14  and  C_15
REMARK   11  A    between atoms: C_18  and  N_21
REMARK   12  A    between atoms: C_33  and  O_36
REMARK   13  A    between atoms: O_36  and  C_37
REMARK                            x       y       z     vdW  Elec       q    Type
REMARK                         _______ _______ _______ _____ _____    ______ ____
ROOT
ATOM      1  C   UNL     1       0.442   2.356  -1.288  0.00  0.00    +0.007 A 
ATOM      2  C   UNL     1       0.065   3.651  -1.224  0.00  0.00    +0.119 A 
ATOM      3  N   UNL     1      -1.238   3.725  -1.601  0.00  0.00    -0.239 N 
ATOM      4  N   UNL     1      -1.674   2.430  -1.910  0.00  0.00    -0.166 NA
ATOM      5  C   UNL     1      -0.668   1.602  -1.718  0.00  0.00    +0.097 A 
ENDROOT
BRANCH   5   6
ATOM      6  C   UNL     1      -0.696   0.133  -1.926  0.00  0.00    +0.003 A 
ATOM      7  C   UNL     1       0.430  -0.526  -2.414  0.00  0.00    +0.012 A 
ATOM      8  C   UNL     1       0.401  -1.893  -2.599  0.00  0.00    +0.033 A 
ATOM      9  C   UNL     1      -0.749  -2.607  -2.313  0.00  0.00    +0.126 A 
ATOM     10  C   UNL     1      -1.872  -1.958  -1.834  0.00  0.00    +0.033 A 
ATOM     11  C   UNL     1      -1.851  -0.591  -1.639  0.00  0.00    +0.012 A 
BRANCH   9  12
ATOM     12  N   UNL     1      -0.777  -4.073  -2.520  0.00  0.00    +0.056 N 
ATOM     13  O   UNL     1      -1.788  -4.704  -2.269  0.00  0.00    -0.126 OA
ATOM     14  O   UNL     1       0.211  -4.648  -2.941  0.00  0.00    -0.126 OA
ENDBRANCH   9  12
ENDBRANCH   5   6
BRANCH   3  15
ATOM     15  C   UNL     1      -2.010   4.892  -1.673  0.00  0.00    +0.065 A 
ATOM     16  C   UNL     1      -1.451   6.118  -1.336  0.00  0.00    +0.028 A 
ATOM     17  C   UNL     1      -2.213   7.267  -1.413  0.00  0.00    +0.002 A 
ATOM     18  C   UNL     1      -3.534   7.197  -1.815  0.00  0.00    +0.000 A 
ATOM     19  C   UNL     1      -4.096   5.977  -2.145  0.00  0.00    +0.002 A 
ATOM     20  C   UNL     1      -3.337   4.825  -2.075  0.00  0.00    +0.028 A 
ENDBRANCH   3  15
BRANCH   1  21
ATOM     21  C   UNL     1       1.808   1.812  -0.955  0.00  0.00    +0.134 C 
BRANCH  21  23
ATOM     22  N   UNL     1       3.887   1.232  -2.163  0.00  0.00    -0.316 N 
ATOM     23  C   UNL     1       2.623   1.698  -2.217  0.00  0.00    +0.217 C 
ATOM     24  O   UNL     1       2.143   2.025  -3.282  0.00  0.00    -0.275 OA
ATOM     25  H   UNL     1       4.271   0.970  -1.312  0.00  0.00    +0.149 HD
BRANCH  22  26
ATOM     26  C   UNL     1       4.680   1.120  -3.390  0.00  0.00    +0.093 C 
BRANCH  26  27
ATOM     27  C   UNL     1       6.066   0.569  -3.053  0.00  0.00    -0.021 C 
BRANCH  27  28
ATOM     28  C   UNL     1       6.839   0.338  -4.326  0.00  0.00    -0.059 A 
ATOM     29  C   UNL     1       6.270  -0.386  -5.357  0.00  0.00    +0.005 A 
ATOM     30  C   UNL     1       6.973  -0.593  -6.528  0.00  0.00    +0.046 A 
ATOM     31  C   UNL     1       8.257  -0.085  -6.663  0.00  0.00    +0.120 A 
ATOM     32  C   UNL     1       8.828   0.637  -5.625  0.00  0.00    +0.046 A 
ATOM     33  C   UNL     1       8.118   0.847  -4.459  0.00  0.00    +0.005 A 
BRANCH  31  34
ATOM     34  O   UNL     1       8.954  -0.293  -7.811  0.00  0.00    -0.495 OA
ATOM     35  C   UNL     1       8.303  -1.044  -8.838  0.00  0.00    +0.277 C 
ENDBRANCH  31  34
ENDBRANCH  27  28
BRANCH  27  38
ATOM     36  C   UNL     1       5.198  -1.690  -3.137  0.00  0.00    -0.096 C 
ATOM     37  C   UNL     1       7.236  -1.222  -1.917  0.00  0.00    -0.096 C 
ATOM     38  N   UNL     1       5.910  -0.697  -2.305  0.00  0.00    +0.382 N 
ATOM     39  H   UNL     1       5.361  -0.518  -1.457  0.00  0.00    -0.082 HD
ENDBRANCH  27  38
ENDBRANCH  26  27
ENDBRANCH  22  26
ENDBRANCH  21  23
ENDBRANCH   1  21
TORSDOF 10
