REMARK  Name = ZINC65146339
REMARK  6 active torsions:
REMARK  status: ('A' for Active; 'I' for Inactive)
REMARK    1  A    between atoms: C_3  and  S_20
REMARK    2  A    between atoms: C_6  and  C_7
REMARK    3  A    between atoms: N_9  and  N_10
REMARK    4  A    between atoms: N_13  and  C_14
REMARK    5  A    between atoms: C_14  and  C_15
REMARK    6  A    between atoms: S_20  and  C_23
REMARK                            x       y       z     vdW  Elec       q    Type
REMARK                         _______ _______ _______ _____ _____    ______ ____
ROOT
ATOM      1  C   UNL     1      -1.266  -0.764   0.011  0.00  0.00    +0.260 C 
ATOM      2  O   UNL     1      -2.329  -0.173   0.024  0.00  0.00    -0.269 OA
ATOM      3  N   UNL     1      -1.244  -2.111   0.003  0.00  0.00    -0.229 N 
ATOM      4  H   UNL     1      -0.397  -2.583  -0.008  0.00  0.00    +0.173 HD
ENDROOT
BRANCH   1  10
ATOM      5  C   UNL     1      -0.017   1.391   0.010  0.00  0.00    +0.015 A 
ATOM      6  C   UNL     1       1.170   2.095   0.002  0.00  0.00    +0.028 A 
ATOM      7  C   UNL     1       2.378   1.419  -0.013  0.00  0.00    +0.098 A 
ATOM      8  C   UNL     1       2.403   0.036  -0.022  0.00  0.00    +0.028 A 
ATOM      9  C   UNL     1       1.224  -0.679  -0.014  0.00  0.00    +0.015 A 
ATOM     10  C   UNL     1       0.002  -0.004   0.002  0.00  0.00    +0.038 A 
BRANCH   7  11
ATOM     11  S   UNL     1       3.889   2.325  -0.024  0.00  0.00    +0.091 S 
ATOM     12  O   UNL     1       4.829   1.455  -0.640  0.00  0.00    -0.161 OA
ATOM     13  O   UNL     1       3.560   3.573  -0.617  0.00  0.00    -0.161 OA
BRANCH  11  14
ATOM     14  C   UNL     1       4.306   2.555   1.727  0.00  0.00    +0.526 C 
ATOM     15  F   UNL     1       4.456   1.306   2.339  0.00  0.00    -0.150 F 
ATOM     16  F   UNL     1       5.504   3.271   1.830  0.00  0.00    -0.150 F 
ATOM     17  F   UNL     1       3.282   3.265   2.361  0.00  0.00    -0.150 F 
ENDBRANCH  11  14
ENDBRANCH   7  11
ENDBRANCH   1  10
BRANCH   3  18
ATOM     18  N   UNL     1      -2.446  -2.831   0.011  0.00  0.00    -0.218 N 
ATOM     19  C   UNL     1      -2.425  -4.179   0.004  0.00  0.00    +0.316 C 
ATOM     20  O   UNL     1      -3.468  -4.804   0.011  0.00  0.00    -0.251 OA
ATOM     21  N   UNL     1      -1.247  -4.834  -0.011  0.00  0.00    -0.296 N 
ATOM     22  H   UNL     1      -3.294  -2.360   0.022  0.00  0.00    +0.174 HD
ATOM     23  H   UNL     1      -0.415  -4.335  -0.017  0.00  0.00    +0.150 HD
BRANCH  21  24
ATOM     24  C   UNL     1      -1.223  -6.299  -0.020  0.00  0.00    +0.137 C 
BRANCH  24  25
ATOM     25  C   UNL     1       0.227  -6.785  -0.037  0.00  0.00    +0.135 C 
ATOM     26  C   UNL     1       0.262  -8.324  -0.161  0.00  0.00    +0.035 C 
ATOM     27  C   UNL     1       1.431  -8.705   0.787  0.00  0.00    +0.031 C 
ATOM     28  C   UNL     1       1.281  -7.625   1.888  0.00  0.00    +0.160 C 
ATOM     29  O   UNL     1       0.871  -6.436   1.194  0.00  0.00    -0.375 OA
ENDBRANCH  24  25
ENDBRANCH  21  24
ENDBRANCH   3  18
TORSDOF 6
