REMARK  Name = ZINC39934577
REMARK  5 active torsions:
REMARK  status: ('A' for Active; 'I' for Inactive)
REMARK    1  A    between atoms: C_7  and  C_10
REMARK    2  A    between atoms: C_13  and  S_19
REMARK    3  A    between atoms: N_15  and  C_16
REMARK    4  A    between atoms: S_19  and  C_20
REMARK    5  A    between atoms: C_20  and  C_21
REMARK                            x       y       z     vdW  Elec       q    Type
REMARK                         _______ _______ _______ _____ _____    ______ ____
ROOT
ATOM      1  C   UNL     1       0.684  -3.157   0.170  0.00  0.00    +0.147 C 
ATOM      2  N   UNL     1      -0.617  -3.038   0.212  0.00  0.00    -0.169 NA
ATOM      3  N   UNL     1      -1.248  -4.259  -0.053  0.00  0.00    -0.237 N 
ATOM      4  C   UNL     1      -0.177  -5.242  -0.285  0.00  0.00    +0.237 C 
ATOM      5  N   UNL     1       1.065  -4.467  -0.133  0.00  0.00    -0.282 N 
ATOM      6  H   UNL     1      -2.204  -4.424  -0.079  0.00  0.00    +0.171 HD
ENDROOT
BRANCH   1  13
ATOM      7  C   UNL     1       0.051   1.150   1.446  0.00  0.00    +0.001 A 
ATOM      8  C   UNL     1       1.236   1.881   1.554  0.00  0.00    +0.002 A 
ATOM      9  C   UNL     1       2.445   1.325   1.295  0.00  0.00    +0.026 A 
ATOM     10  C   UNL     1       2.527  -0.036   0.902  0.00  0.00    +0.043 A 
ATOM     11  N   UNL     1       3.561  -0.796   0.599  0.00  0.00    -0.380 N 
ATOM     12  C   UNL     1       3.089  -2.141   0.257  0.00  0.00    +0.152 C 
ATOM     13  C   UNL     1       1.583  -2.103   0.394  0.00  0.00    +0.022 C 
ATOM     14  C   UNL     1       1.274  -0.801   0.789  0.00  0.00    +0.006 A 
ATOM     15  C   UNL     1       0.052  -0.156   1.075  0.00  0.00    +0.010 A 
ATOM     16  H   UNL     1       4.488  -0.510   0.603  0.00  0.00    +0.160 HD
ENDBRANCH   1  13
BRANCH   5  17
ATOM     17  C   UNL     1       2.434  -4.971  -0.270  0.00  0.00    +0.078 C 
ATOM     18  C   UNL     1       2.610  -6.431  -0.694  0.00  0.00    +0.024 C 
ATOM     19  C   UNL     1       2.909  -6.011   0.747  0.00  0.00    +0.024 C 
ENDBRANCH   5  17
BRANCH   4  20
ATOM     20  S   UNL     1      -0.295  -5.925  -1.961  0.00  0.00    -0.114 S 
BRANCH  20  21
ATOM     21  C   UNL     1      -0.165  -4.471  -3.038  0.00  0.00    +0.120 C 
BRANCH  21  22
ATOM     22  C   UNL     1      -0.251  -4.910  -4.501  0.00  0.00    +0.221 C 
ATOM     23  C   UNL     1      -0.127  -3.685  -5.417  0.00  0.00    +0.274 C 
ATOM     24  O   UNL     1      -0.197  -4.132  -6.775  0.00  0.00    -0.485 OA
ATOM     25  C   UNL     1       0.561  -5.214  -7.103  0.00  0.00    +0.162 A 
ATOM     26  C   UNL     1       0.828  -5.480  -8.438  0.00  0.00    +0.049 A 
ATOM     27  C   UNL     1       1.593  -6.576  -8.786  0.00  0.00    +0.004 A 
ATOM     28  C   UNL     1       2.095  -7.412  -7.805  0.00  0.00    +0.004 A 
ATOM     29  C   UNL     1       1.834  -7.152  -6.473  0.00  0.00    +0.049 A 
ATOM     30  C   UNL     1       1.068  -6.052  -6.117  0.00  0.00    +0.163 A 
ATOM     31  O   UNL     1       0.825  -5.806  -4.800  0.00  0.00    -0.481 OA
ENDBRANCH  21  22
ENDBRANCH  20  21
ENDBRANCH   4  20
TORSDOF 5
