REMARK  Name = ZINC34747509
REMARK  8 active torsions:
REMARK  status: ('A' for Active; 'I' for Inactive)
REMARK    1  A    between atoms: C_1  and  C_2
REMARK    2  A    between atoms: C_2  and  N_3
REMARK    3  A    between atoms: N_3  and  C_4
REMARK    4  A    between atoms: C_4  and  C_5
REMARK    5  A    between atoms: C_6  and  C_8
REMARK    6  A    between atoms: C_8  and  N_9
REMARK    7  A    between atoms: N_22  and  C_25
REMARK    8  A    between atoms: C_25  and  C_26
REMARK                            x       y       z     vdW  Elec       q    Type
REMARK                         _______ _______ _______ _____ _____    ______ ____
ROOT
ATOM      1  N   UNL     1      -0.207  -1.381  -4.722  0.00  0.00    -0.271 N 
ATOM      2  C   UNL     1      -0.749  -2.594  -4.937  0.00  0.00    +0.264 A 
ATOM      3  O   UNL     1      -0.369  -3.562  -4.300  0.00  0.00    -0.267 OA
ATOM      4  C   UNL     1      -1.777  -2.732  -5.923  0.00  0.00    +0.076 A 
ATOM      5  C   UNL     1      -2.498  -3.943  -6.319  0.00  0.00    -0.023 A 
ATOM      6  C   UNL     1      -3.432  -3.811  -7.282  0.00  0.00    -0.004 A 
ATOM      7  S   UNL     1      -3.409  -2.092  -7.715  0.00  0.00    -0.073 S 
ATOM      8  C   UNL     1      -2.139  -1.554  -6.597  0.00  0.00    +0.117 A 
ATOM      9  N   UNL     1      -1.563  -0.386  -6.337  0.00  0.00    -0.208 NA
ATOM     10  C   UNL     1      -0.623  -0.286  -5.420  0.00  0.00    +0.202 A 
ATOM     11  N   UNL     1      -0.050   0.935  -5.168  0.00  0.00    -0.304 N 
ATOM     12  C   UNL     1       1.141   1.380  -5.909  0.00  0.00    +0.089 C 
ATOM     13  C   UNL     1       0.877   2.788  -6.452  0.00  0.00    -0.059 C 
ATOM     14  N   UNL     1       0.486   3.672  -5.347  0.00  0.00    +0.387 N 
ATOM     15  C   UNL     1      -0.790   3.224  -4.776  0.00  0.00    -0.059 C 
ATOM     16  C   UNL     1      -0.613   1.840  -4.153  0.00  0.00    +0.089 C 
ATOM     17  C   UNL     1      -4.299  -4.888  -7.860  0.00  0.00    +0.043 C 
ATOM     18  C   UNL     1      -3.713  -6.249  -7.457  0.00  0.00    +0.005 C 
ATOM     19  C   UNL     1      -3.407  -6.227  -5.957  0.00  0.00    +0.005 C 
ATOM     20  C   UNL     1      -2.221  -5.302  -5.683  0.00  0.00    +0.037 C 
ATOM     21  H   UNL     1       1.199   3.652  -4.633  0.00  0.00    -0.081 HD
ENDROOT
BRANCH   1  22
ATOM     22  C   UNL     1       0.846  -1.233  -3.714  0.00  0.00    +0.224 C 
BRANCH  22  24
ATOM     23  N   UNL     1       1.000  -0.880  -1.271  0.00  0.00    -0.301 N 
ATOM     24  C   UNL     1       0.219  -1.039  -2.357  0.00  0.00    +0.236 C 
ATOM     25  O   UNL     1      -0.988  -1.026  -2.244  0.00  0.00    -0.274 OA
BRANCH  23  27
ATOM     26  C   UNL     1       0.175   0.801   0.301  0.00  0.00    +0.024 C 
ATOM     27  C   UNL     1       0.391  -0.692   0.048  0.00  0.00    +0.104 C 
ENDBRANCH  23  27
BRANCH  23  28
ATOM     28  C   UNL     1       2.459  -0.896  -1.408  0.00  0.00    +0.104 C 
ATOM     29  C   UNL     1       2.970  -2.330  -1.250  0.00  0.00    +0.024 C 
ENDBRANCH  23  28
ENDBRANCH  22  24
ENDBRANCH   1  22
BRANCH  14  30
ATOM     30  C   UNL     1       0.341   5.045  -5.849  0.00  0.00    +0.019 C 
BRANCH  30  31
ATOM     31  C   UNL     1       0.060   5.974  -4.696  0.00  0.00    +0.199 C 
ATOM     32  O   UNL     1      -0.012   5.536  -3.568  0.00  0.00    -0.278 OA
ATOM     33  N   UNL     1      -0.111   7.293  -4.919  0.00  0.00    -0.303 N 
ATOM     34  C   UNL     1      -0.033   7.837  -6.282  0.00  0.00    +0.107 C 
ATOM     35  C   UNL     1      -1.308   8.638  -6.566  0.00  0.00    +0.019 C 
ATOM     36  C   UNL     1      -1.496   9.695  -5.476  0.00  0.00    +0.003 C 
ATOM     37  C   UNL     1      -1.651   9.008  -4.118  0.00  0.00    +0.019 C 
ATOM     38  C   UNL     1      -0.386   8.211  -3.806  0.00  0.00    +0.107 C 
ENDBRANCH  30  31
ENDBRANCH  14  30
TORSDOF 6
