REMARK  Name = ZINC30005223
REMARK  11 active torsions:
REMARK  status: ('A' for Active; 'I' for Inactive)
REMARK    1  A    between atoms: C_1  and  C_2
REMARK    2  A    between atoms: C_4  and  C_22
REMARK    3  A    between atoms: C_5  and  C_21
REMARK    4  A    between atoms: N_6  and  C_7
REMARK    5  A    between atoms: C_9  and  C_17
REMARK    6  A    between atoms: C_11  and  C_13
REMARK    7  A    between atoms: C_13  and  O_15
REMARK    8  A    between atoms: O_15  and  C_16
REMARK    9  A    between atoms: C_17  and  O_19
REMARK   10  A    between atoms: O_19  and  C_20
REMARK   11  A    between atoms: C_25  and  N_27
REMARK                            x       y       z     vdW  Elec       q    Type
REMARK                         _______ _______ _______ _____ _____    ______ ____
ROOT
ATOM      1  C   UNL     1      -0.009   1.492   0.091  0.00  0.00    +0.064 C 
ATOM      2  C   UNL     1       0.010  -0.015   0.069  0.00  0.00    +0.022 A 
ATOM      3  C   UNL     1       0.014  -0.786  -1.035  0.00  0.00    +0.033 A 
ATOM      4  C   UNL     1       0.034  -2.138  -0.609  0.00  0.00    +0.022 A 
ATOM      5  C   UNL     1       0.042  -2.130   0.751  0.00  0.00    +0.030 A 
ATOM      6  N   UNL     1       0.032  -0.829   1.166  0.00  0.00    -0.317 N 
ATOM      7  C   UNL     1       0.063  -3.344   1.644  0.00  0.00    +0.064 C 
ENDROOT
BRANCH   6   8
ATOM      8  C   UNL     1       0.040  -0.399   2.501  0.00  0.00    +0.048 A 
ATOM      9  C   UNL     1       1.143  -0.650   3.302  0.00  0.00    +0.041 A 
ATOM     10  C   UNL     1       1.155  -0.223   4.631  0.00  0.00    +0.062 A 
ATOM     11  C   UNL     1       0.056   0.457   5.152  0.00  0.00    +0.030 A 
ATOM     12  C   UNL     1      -1.051   0.708   4.344  0.00  0.00    +0.062 A 
ATOM     13  C   UNL     1      -1.054   0.282   3.014  0.00  0.00    +0.041 A 
BRANCH  12  14
ATOM     14  C   UNL     1      -2.219   1.428   4.893  0.00  0.00    +0.339 C 
ATOM     15  O   UNL     1      -3.184   1.646   4.187  0.00  0.00    -0.245 OA
BRANCH  14  16
ATOM     16  O   UNL     1      -2.214   1.843   6.174  0.00  0.00    -0.464 OA
ATOM     17  C   UNL     1      -3.376   2.533   6.637  0.00  0.00    +0.280 C 
ENDBRANCH  14  16
ENDBRANCH  12  14
BRANCH  10  18
ATOM     18  C   UNL     1       2.332  -0.492   5.484  0.00  0.00    +0.339 C 
ATOM     19  O   UNL     1       3.289  -1.085   5.029  0.00  0.00    -0.245 OA
BRANCH  18  20
ATOM     20  O   UNL     1       2.342  -0.080   6.766  0.00  0.00    -0.464 OA
ATOM     21  C   UNL     1       3.512  -0.374   7.532  0.00  0.00    +0.280 C 
ENDBRANCH  18  20
ENDBRANCH  10  18
ENDBRANCH   6   8
BRANCH   4  22
ATOM     22  C   UNL     1       0.045  -3.338  -1.483  0.00  0.00    +0.082 A 
ATOM     23  C   UNL     1       0.041  -3.199  -2.842  0.00  0.00    +0.077 A 
ATOM     24  S   UNL     1       0.059  -4.912  -3.354  0.00  0.00    -0.056 S 
ATOM     25  C   UNL     1       0.069  -5.634  -1.718  0.00  0.00    +0.196 A 
ATOM     26  N   UNL     1       0.064  -4.550  -0.952  0.00  0.00    -0.221 NA
BRANCH  25  27
ATOM     27  N   UNL     1       0.084  -6.944  -1.356  0.00  0.00    -0.189 NA
ATOM     28  C   UNL     1      -1.044  -7.562  -1.077  0.00  0.00    +0.195 C 
ATOM     29  N   UNL     1      -2.241  -6.919  -1.259  0.00  0.00    -0.370 N 
ATOM     30  N   UNL     1      -1.023  -8.849  -0.606  0.00  0.00    -0.370 N 
ATOM     31  H   UNL     1      -2.262  -6.037  -1.663  0.00  0.00    +0.159 HD
ATOM     32  H   UNL     1      -3.068  -7.345  -0.983  0.00  0.00    +0.159 HD
ATOM     33  H   UNL     1      -0.176  -9.304  -0.478  0.00  0.00    +0.159 HD
ATOM     34  H   UNL     1      -1.854  -9.305  -0.401  0.00  0.00    +0.159 HD
ENDBRANCH  25  27
ENDBRANCH   4  22
TORSDOF 7
