REMARK  Name = ZINC15947346
REMARK  8 active torsions:
REMARK  status: ('A' for Active; 'I' for Inactive)
REMARK    1  A    between atoms: C_1  and  C_2
REMARK    2  A    between atoms: C_2  and  O_3
REMARK    3  A    between atoms: O_3  and  C_4
REMARK    4  A    between atoms: C_8  and  C_11
REMARK    5  A    between atoms: C_9  and  O_10
REMARK    6  A    between atoms: N_20  and  C_23
REMARK    7  A    between atoms: C_23  and  C_24
REMARK    8  A    between atoms: C_30  and  O_32
REMARK                            x       y       z     vdW  Elec       q    Type
REMARK                         _______ _______ _______ _____ _____    ______ ____
ROOT
ATOM      1  C   UNL     1       2.274  -4.308   3.755  0.00  0.00    +0.227 C 
ATOM      2  N   UNL     1       1.781  -5.677   3.991  0.00  0.00    -0.313 N 
ATOM      3  C   UNL     1       0.611  -5.788   4.708  0.00  0.00    +0.080 A 
ATOM      4  C   UNL     1       0.194  -4.794   5.603  0.00  0.00    +0.067 A 
ATOM      5  C   UNL     1      -1.065  -5.047   6.275  0.00  0.00    -0.027 A 
ATOM      6  C   UNL     1      -1.656  -6.220   5.944  0.00  0.00    -0.021 A 
ATOM      7  S   UNL     1      -0.561  -6.960   4.768  0.00  0.00    -0.080 S 
ATOM      8  C   UNL     1      -2.951  -6.739   6.483  0.00  0.00    -0.035 C 
ATOM      9  N   UNL     1      -3.291  -5.971   7.695  0.00  0.00    +0.386 N 
ATOM     10  C   UNL     1      -3.198  -4.533   7.409  0.00  0.00    -0.073 C 
ATOM     11  C   UNL     1      -1.730  -4.114   7.279  0.00  0.00    +0.018 C 
ATOM     12  C   UNL     1       1.076  -3.611   5.771  0.00  0.00    +0.220 C 
ATOM     13  N   UNL     1       2.040  -3.448   4.907  0.00  0.00    -0.223 NA
ATOM     14  H   UNL     1       2.254  -6.456   3.659  0.00  0.00    +0.149 HD
ATOM     15  H   UNL     1      -2.648  -6.209   8.435  0.00  0.00    -0.081 HD
ENDROOT
BRANCH   1  20
ATOM     16  C   UNL     1       0.802  -1.825   1.306  0.00  0.00    +0.162 A 
ATOM     17  C   UNL     1       0.261  -2.673   0.353  0.00  0.00    +0.049 A 
ATOM     18  C   UNL     1       0.372  -4.043   0.502  0.00  0.00    +0.004 A 
ATOM     19  C   UNL     1       1.024  -4.570   1.602  0.00  0.00    +0.011 A 
ATOM     20  C   UNL     1       1.566  -3.730   2.557  0.00  0.00    +0.040 A 
ATOM     21  C   UNL     1       1.462  -2.356   2.410  0.00  0.00    +0.165 A 
BRANCH  21  22
ATOM     22  O   UNL     1       2.000  -1.528   3.345  0.00  0.00    -0.503 OA
ATOM     23  H   UNL     1       1.395  -1.301   4.064  0.00  0.00    +0.292 HD
ENDBRANCH  21  22
BRANCH  16  24
ATOM     24  O   UNL     1       0.693  -0.477   1.160  0.00  0.00    -0.489 OA
BRANCH  24  26
ATOM     25  C   UNL     1      -0.019   1.526   0.010  0.00  0.00    +0.048 C 
ATOM     26  C   UNL     1       0.002  -0.004   0.002  0.00  0.00    +0.226 C 
ENDBRANCH  24  26
ENDBRANCH  16  24
ENDBRANCH   1  20
BRANCH  12  27
ATOM     27  O   UNL     1       0.885  -2.733   6.782  0.00  0.00    -0.492 OA
ATOM     28  H   UNL     1       1.518  -2.002   6.793  0.00  0.00    +0.294 HD
ENDBRANCH  12  27
BRANCH   9  29
ATOM     29  C   UNL     1      -4.661  -6.298   8.113  0.00  0.00    -0.043 C 
BRANCH  29  30
ATOM     30  C   UNL     1      -4.727  -7.746   8.527  0.00  0.00    -0.064 A 
ATOM     31  C   UNL     1      -5.022  -8.720   7.591  0.00  0.00    +0.002 A 
ATOM     32  C   UNL     1      -5.082 -10.047   7.970  0.00  0.00    +0.000 A 
ATOM     33  C   UNL     1      -4.848 -10.402   9.285  0.00  0.00    +0.000 A 
ATOM     34  C   UNL     1      -4.553  -9.428  10.221  0.00  0.00    +0.000 A 
ATOM     35  C   UNL     1      -4.488  -8.101   9.841  0.00  0.00    +0.002 A 
ENDBRANCH  29  30
ENDBRANCH   9  29
TORSDOF 7
