REMARK  Name = ZINC18130553
REMARK  7 active torsions:
REMARK  status: ('A' for Active; 'I' for Inactive)
REMARK    1  A    between atoms: C_1  and  C_2
REMARK    2  A    between atoms: C_2  and  C_3
REMARK    3  A    between atoms: C_3  and  C_4
REMARK    4  A    between atoms: C_6  and  C_12
REMARK    5  A    between atoms: C_7  and  O_11
REMARK    6  A    between atoms: C_9  and  O_10
REMARK    7  A    between atoms: C_13  and  C_18
REMARK                            x       y       z     vdW  Elec       q    Type
REMARK                         _______ _______ _______ _____ _____    ______ ____
ROOT
ATOM      1  C   UNL     1      -1.275  -4.704  -2.845  0.00  0.00    +0.077 A 
ATOM      2  C   UNL     1      -2.071  -5.752  -2.401  0.00  0.00    +0.027 A 
ATOM      3  C   UNL     1      -2.630  -6.363  -3.537  0.00  0.00    +0.143 A 
ATOM      4  N   UNL     1      -2.205  -5.732  -4.600  0.00  0.00    -0.181 NA
ATOM      5  N   UNL     1      -1.362  -4.687  -4.206  0.00  0.00    -0.276 N 
ATOM      6  H   UNL     1      -0.915  -4.062  -4.798  0.00  0.00    +0.189 HD
ENDROOT
BRANCH   2   7
ATOM      7  C   UNL     1      -2.290  -6.152  -0.990  0.00  0.00    -0.011 A 
ATOM      8  C   UNL     1      -1.200  -6.445  -0.171  0.00  0.00    +0.012 A 
ATOM      9  C   UNL     1      -1.403  -6.818   1.143  0.00  0.00    +0.050 A 
ATOM     10  C   UNL     1      -2.692  -6.900   1.647  0.00  0.00    +0.162 A 
ATOM     11  C   UNL     1      -3.780  -6.609   0.836  0.00  0.00    +0.162 A 
ATOM     12  C   UNL     1      -3.586  -6.230  -0.480  0.00  0.00    +0.058 A 
ATOM     13  O   UNL     1      -5.043  -6.693   1.347  0.00  0.00    -0.488 OA
ATOM     14  C   UNL     1      -5.501  -8.008   1.668  0.00  0.00    +0.232 C 
ATOM     15  C   UNL     1      -5.034  -8.418   3.056  0.00  0.00    +0.082 C 
ATOM     16  C   UNL     1      -3.521  -8.538   3.144  0.00  0.00    +0.232 C 
ATOM     17  O   UNL     1      -2.898  -7.267   2.946  0.00  0.00    -0.488 OA
ENDBRANCH   2   7
BRANCH   1  20
ATOM     18  C   UNL     1       1.635  -2.923  -1.280  0.00  0.00    -0.005 A 
ATOM     19  C   UNL     1       0.904  -3.788  -2.067  0.00  0.00    +0.020 A 
ATOM     20  C   UNL     1      -0.490  -3.779  -2.004  0.00  0.00    +0.042 A 
ATOM     21  C   UNL     1      -1.142  -2.889  -1.140  0.00  0.00    +0.129 A 
ATOM     22  C   UNL     1      -0.399  -2.025  -0.355  0.00  0.00    +0.091 A 
ATOM     23  C   UNL     1       0.987  -2.045  -0.420  0.00  0.00    +0.124 A 
BRANCH  23  24
ATOM     24  O   UNL     1       1.713  -1.199   0.357  0.00  0.00    -0.506 OA
ATOM     25  H   UNL     1       1.899  -0.346  -0.058  0.00  0.00    +0.292 HD
ENDBRANCH  23  24
BRANCH  21  26
ATOM     26  O   UNL     1      -2.498  -2.874  -1.074  0.00  0.00    -0.506 OA
ATOM     27  H   UNL     1      -2.866  -3.475  -0.412  0.00  0.00    +0.292 HD
ENDBRANCH  21  26
BRANCH  18  28
ATOM     28  C   UNL     1       3.140  -2.933  -1.348  0.00  0.00    +0.038 C 
BRANCH  28  30
ATOM     29  C   UNL     1       5.147  -1.788  -2.298  0.00  0.00    +0.004 C 
ATOM     30  C   UNL     1       3.619  -1.777  -2.228  0.00  0.00    +0.001 C 
ENDBRANCH  28  30
ENDBRANCH  18  28
ENDBRANCH   1  20
TORSDOF 6
