REMARK  Name = ZINC36329829
REMARK  9 active torsions:
REMARK  status: ('A' for Active; 'I' for Inactive)
REMARK    1  A    between atoms: C_1  and  N_2
REMARK    2  A    between atoms: N_5  and  S_8
REMARK    3  A    between atoms: S_8  and  C_11
REMARK    4  A    between atoms: C_14  and  N_20
REMARK    5  A    between atoms: C_15  and  N_17
REMARK    6  A    between atoms: N_20  and  C_21
REMARK    7  A    between atoms: C_21  and  C_22
REMARK    8  A    between atoms: C_22  and  C_24
REMARK    9  A    between atoms: C_22  and  N_29
REMARK                            x       y       z     vdW  Elec       q    Type
REMARK                         _______ _______ _______ _____ _____    ______ ____
ROOT
ATOM      1  C   UNL     1      -0.119  -4.426   1.410  0.00  0.00    +0.108 A 
ATOM      2  C   UNL     1      -0.972  -4.793   0.385  0.00  0.00    +0.030 A 
ATOM      3  C   UNL     1      -0.645  -5.849  -0.442  0.00  0.00    +0.027 A 
ATOM      4  C   UNL     1       0.541  -6.544  -0.244  0.00  0.00    +0.058 A 
ATOM      5  C   UNL     1       1.395  -6.174   0.787  0.00  0.00    +0.149 A 
ATOM      6  C   UNL     1       1.065  -5.112   1.607  0.00  0.00    +0.063 A 
ENDROOT
BRANCH   1   7
ATOM      7  S   UNL     1      -0.538  -3.077   2.463  0.00  0.00    +0.061 S 
ATOM      8  O   UNL     1       0.167  -3.277   3.680  0.00  0.00    -0.153 OA
ATOM      9  O   UNL     1      -1.952  -2.948   2.414  0.00  0.00    -0.153 OA
BRANCH   7  14
ATOM     10  C   UNL     1       0.771   2.434   1.703  0.00  0.00    +0.105 C 
ATOM     11  N   UNL     1       0.704   0.990   1.439  0.00  0.00    -0.303 NA
ATOM     12  C   UNL     1      -0.687   0.550   1.268  0.00  0.00    +0.101 C 
ATOM     13  C   UNL     1      -0.704  -0.915   0.819  0.00  0.00    +0.125 C 
ATOM     14  N   UNL     1       0.086  -1.706   1.774  0.00  0.00    -0.174 NA
ATOM     15  C   UNL     1       1.445  -1.248   2.102  0.00  0.00    +0.125 C 
ATOM     16  C   UNL     1       1.377   0.230   2.501  0.00  0.00    +0.101 C 
ENDBRANCH   7  14
ENDBRANCH   1   7
BRANCH   5  17
ATOM     17  N   UNL     1       2.660  -6.912   1.002  0.00  0.00    +0.058 N 
ATOM     18  O   UNL     1       2.687  -8.114   0.877  0.00  0.00    -0.126 OA
ATOM     19  O   UNL     1       3.666  -6.312   1.304  0.00  0.00    -0.126 OA
ENDBRANCH   5  17
BRANCH   4  20
ATOM     20  N   UNL     1       0.874  -7.614  -1.078  0.00  0.00    -0.343 N 
ATOM     21  H   UNL     1       1.735  -8.050  -0.987  0.00  0.00    +0.146 HD
BRANCH  20  22
ATOM     22  C   UNL     1      -0.079  -8.076  -2.091  0.00  0.00    +0.094 C 
BRANCH  22  23
ATOM     23  C   UNL     1       0.483  -9.315  -2.791  0.00  0.00    +0.016 C 
BRANCH  23  24
ATOM     24  N   UNL     1       1.824  -9.018  -3.312  0.00  0.00    +0.387 N 
ATOM     25  C   UNL     1       1.760  -7.834  -4.177  0.00  0.00    -0.078 C 
ATOM     26  C   UNL     1       3.167  -7.471  -4.657  0.00  0.00    -0.019 C 
ATOM     27  C   UNL     1       3.751  -8.648  -5.443  0.00  0.00    -0.004 C 
ATOM     28  C   UNL     1       3.745  -9.896  -4.555  0.00  0.00    -0.019 C 
ATOM     29  C   UNL     1       2.316 -10.168  -4.079  0.00  0.00    -0.078 C 
ATOM     30  H   UNL     1       2.450  -8.835  -2.542  0.00  0.00    -0.081 HD
ENDBRANCH  23  24
BRANCH  23  31
ATOM     31  C   UNL     1      -0.423  -9.703  -3.931  0.00  0.00    +0.093 A 
ATOM     32  C   UNL     1      -1.311 -10.714  -3.921  0.00  0.00    +0.043 A 
ATOM     33  C   UNL     1      -1.941 -10.718  -5.186  0.00  0.00    +0.041 A 
ATOM     34  C   UNL     1      -1.402  -9.709  -5.894  0.00  0.00    +0.195 A 
ATOM     35  O   UNL     1      -0.487  -9.094  -5.126  0.00  0.00    -0.469 OA
ENDBRANCH  23  31
ENDBRANCH  22  23
ENDBRANCH  20  22
ENDBRANCH   4  20
TORSDOF 8
