REMARK  Name = ZINC39597526
REMARK  5 active torsions:
REMARK  status: ('A' for Active; 'I' for Inactive)
REMARK    1  A    between atoms: C_7  and  C_10
REMARK    2  A    between atoms: C_10  and  C_11
REMARK    3  A    between atoms: C_11  and  N_12
REMARK    4  A    between atoms: C_13  and  C_15
REMARK    5  A    between atoms: C_26  and  C_28
REMARK                            x       y       z     vdW  Elec       q    Type
REMARK                         _______ _______ _______ _____ _____    ______ ____
ROOT
ATOM      1  C   UNL     1      -5.369   7.689  -2.445  0.00  0.00    +0.100 C 
ATOM      2  C   UNL     1      -6.827   7.457  -1.992  0.00  0.00    +0.121 C 
ATOM      3  N   UNL     1      -7.637   8.335  -2.870  0.00  0.00    -0.296 N 
ATOM      4  C   UNL     1      -6.992   8.221  -4.200  0.00  0.00    +0.115 C 
ATOM      5  C   UNL     1      -5.481   8.190  -3.895  0.00  0.00    -0.004 C 
ATOM      6  C   UNL     1      -4.889   9.591  -4.018  0.00  0.00    -0.010 C 
ATOM      7  C   UNL     1      -4.961  10.044  -5.479  0.00  0.00    -0.082 C 
ATOM      8  N   UNL     1      -4.217   9.101  -6.322  0.00  0.00    +0.379 N 
ATOM      9  C   UNL     1      -4.848   7.777  -6.271  0.00  0.00    -0.082 C 
ATOM     10  C   UNL     1      -4.772   7.228  -4.843  0.00  0.00    -0.010 C 
ATOM     11  C   UNL     1      -8.715   9.070  -2.535  0.00  0.00    +0.248 C 
ATOM     12  O   UNL     1      -9.333   9.669  -3.393  0.00  0.00    -0.270 OA
ATOM     13  H   UNL     1      -4.214   9.434  -7.275  0.00  0.00    -0.086 HD
ATOM     14  H   UNL     1      -3.267   9.032  -5.990  0.00  0.00    -0.086 HD
ENDROOT
BRANCH  11  15
ATOM     15  C   UNL     1      -9.147   9.149  -1.124  0.00  0.00    +0.055 A 
ATOM     16  C   UNL     1      -9.021   8.036  -0.289  0.00  0.00    +0.014 A 
ATOM     17  C   UNL     1      -9.425   8.116   1.027  0.00  0.00    +0.001 A 
ATOM     18  C   UNL     1      -9.955   9.295   1.522  0.00  0.00    +0.001 A 
ATOM     19  C   UNL     1     -10.084  10.401   0.702  0.00  0.00    +0.021 A 
ATOM     20  C   UNL     1      -9.677  10.338  -0.617  0.00  0.00    +0.053 A 
ATOM     21 CL   UNL     1      -9.831  11.729  -1.643  0.00  0.00    -0.083 Cl
ENDBRANCH  11  15
BRANCH   1  23
ATOM     22  N   UNL     1      -3.263   6.421  -2.171  0.00  0.00    -0.315 N 
ATOM     23  C   UNL     1      -4.592   6.399  -2.394  0.00  0.00    +0.218 C 
ATOM     24  O   UNL     1      -5.163   5.341  -2.554  0.00  0.00    -0.275 OA
ATOM     25  H   UNL     1      -2.806   7.267  -2.044  0.00  0.00    +0.149 HD
BRANCH  22  26
ATOM     26  C   UNL     1      -2.508   5.167  -2.122  0.00  0.00    +0.109 C 
BRANCH  26  27
ATOM     27  C   UNL     1      -1.032   5.470  -1.857  0.00  0.00    +0.056 C 
BRANCH  27  34
ATOM     28  C   UNL     1       0.929   2.775  -5.154  0.00  0.00    +0.001 A 
ATOM     29  C   UNL     1       1.557   1.653  -4.631  0.00  0.00    +0.002 A 
ATOM     30  C   UNL     1       1.564   1.419  -3.274  0.00  0.00    +0.026 A 
ATOM     31  C   UNL     1       0.935   2.315  -2.415  0.00  0.00    +0.047 A 
ATOM     32  N   UNL     1       0.770   2.362  -1.049  0.00  0.00    -0.360 N 
ATOM     33  C   UNL     1       0.059   3.479  -0.705  0.00  0.00    +0.087 A 
ATOM     34  C   UNL     1      -0.255   4.180  -1.806  0.00  0.00    -0.021 A 
ATOM     35  C   UNL     1       0.301   3.451  -2.950  0.00  0.00    +0.003 A 
ATOM     36  C   UNL     1       0.311   3.671  -4.328  0.00  0.00    +0.010 A 
ATOM     37  H   UNL     1       1.107   1.701  -0.424  0.00  0.00    +0.165 HD
ENDBRANCH  27  34
ENDBRANCH  26  27
ENDBRANCH  22  26
ENDBRANCH   1  23
TORSDOF 5
