REMARK  Name = ZINC37666607
REMARK  3 active torsions:
REMARK  status: ('A' for Active; 'I' for Inactive)
REMARK    1  A    between atoms: C_1  and  C_2
REMARK    2  A    between atoms: N_12  and  C_13
REMARK    3  A    between atoms: C_15  and  N_20
REMARK                            x       y       z     vdW  Elec       q    Type
REMARK                         _______ _______ _______ _____ _____    ______ ____
ROOT
ATOM      1  C   UNL     1      -0.716   1.430   1.000  0.00  0.00    +0.028 C 
ATOM      2  C   UNL     1      -0.408   0.026   0.477  0.00  0.00    +0.076 C 
ATOM      3  C   UNL     1      -1.572  -0.918   0.806  0.00  0.00    +0.027 C 
ATOM      4  C   UNL     1      -1.273  -2.295   0.214  0.00  0.00    +0.039 C 
ATOM      5  C   UNL     1       0.098  -2.761   0.629  0.00  0.00    -0.026 A 
ATOM      6  C   UNL     1       0.391  -4.114   0.574  0.00  0.00    +0.005 A 
ATOM      7  C   UNL     1       1.640  -4.572   0.945  0.00  0.00    +0.000 A 
ATOM      8  C   UNL     1       2.607  -3.682   1.374  0.00  0.00    +0.002 A 
ATOM      9  C   UNL     1       2.324  -2.333   1.433  0.00  0.00    +0.024 A 
ATOM     10  C   UNL     1       1.066  -1.869   1.061  0.00  0.00    +0.037 A 
ATOM     11  N   UNL     1       0.797  -0.497   1.135  0.00  0.00    -0.297 N 
ENDROOT
BRANCH  11  12
ATOM     12  C   UNL     1       1.658   0.360   1.825  0.00  0.00    +0.039 A 
ATOM     13  C   UNL     1       1.542   0.502   3.201  0.00  0.00    +0.046 A 
ATOM     14  C   UNL     1       2.398   1.354   3.883  0.00  0.00    +0.029 A 
ATOM     15  C   UNL     1       3.370   2.063   3.188  0.00  0.00    +0.061 A 
ATOM     16  C   UNL     1       3.485   1.920   1.817  0.00  0.00    +0.127 A 
ATOM     17  C   UNL     1       2.635   1.067   1.135  0.00  0.00    +0.062 A 
ATOM     18  F   UNL     1       4.430   2.610   1.143  0.00  0.00    -0.205 F 
BRANCH  14  19
ATOM     19  N   UNL     1       2.283   1.499   5.268  0.00  0.00    -0.358 N 
ATOM     20  H   UNL     1       1.605   1.004   5.752  0.00  0.00    +0.142 HD
ATOM     21  H   UNL     1       2.882   2.095   5.744  0.00  0.00    +0.142 HD
ENDBRANCH  14  19
ENDBRANCH  11  12
TORSDOF 2
