REMARK  Name = ZINC16446323
REMARK  11 active torsions:
REMARK  status: ('A' for Active; 'I' for Inactive)
REMARK    1  A    between atoms: C_1  and  C_2
REMARK    2  A    between atoms: C_2  and  C_3
REMARK    3  A    between atoms: C_2  and  C_4
REMARK    4  A    between atoms: C_4  and  N_5
REMARK    5  A    between atoms: N_5  and  C_6
REMARK    6  A    between atoms: C_7  and  N_22
REMARK    7  A    between atoms: N_8  and  C_15
REMARK    8  A    between atoms: C_15  and  C_16
REMARK    9  A    between atoms: C_23  and  C_25
REMARK   10  A    between atoms: C_25  and  S_26
REMARK   11  A    between atoms: S_26  and  C_27
REMARK                            x       y       z     vdW  Elec       q    Type
REMARK                         _______ _______ _______ _____ _____    ______ ____
ROOT
ATOM      1  C   UNL     1       1.262   3.502  -0.092  0.00  0.00    +0.140 A 
ATOM      2  C   UNL     1       0.330   3.916   0.838  0.00  0.00    +0.128 A 
ATOM      3  N   UNL     1      -0.979   3.515   0.701  0.00  0.00    -0.276 N 
ATOM      4  C   UNL     1      -1.347   2.734  -0.330  0.00  0.00    +0.331 A 
ATOM      5  O   UNL     1      -2.510   2.394  -0.436  0.00  0.00    -0.246 OA
ATOM      6  N   UNL     1      -0.452   2.317  -1.243  0.00  0.00    -0.273 N 
ATOM      7  H   UNL     1      -0.751   1.730  -1.996  0.00  0.00    +0.173 HD
ATOM      8  C   UNL     1       0.842   2.681  -1.155  0.00  0.00    +0.277 A 
ATOM      9  O   UNL     1       1.645   2.300  -1.991  0.00  0.00    -0.266 OA
ENDROOT
BRANCH   1  10
ATOM     10  N   UNL     1       2.612   3.896   0.021  0.00  0.00    -0.263 N 
ATOM     11  C   UNL     1       2.939   5.204  -0.031  0.00  0.00    +0.230 C 
ATOM     12  O   UNL     1       2.067   6.046  -0.081  0.00  0.00    -0.274 OA
BRANCH  10  13
ATOM     13  C   UNL     1       3.658   2.886   0.194  0.00  0.00    +0.117 C 
BRANCH  13  15
ATOM     14  C   UNL     1       2.617   1.948   2.263  0.00  0.00    +0.009 C 
ATOM     15  C   UNL     1       3.866   2.618   1.686  0.00  0.00    +0.001 C 
ATOM     16  C   UNL     1       5.072   1.696   1.876  0.00  0.00    +0.009 C 
ENDBRANCH  13  15
ENDBRANCH  10  13
BRANCH  11  17
ATOM     17  C   UNL     1       4.388   5.619  -0.028  0.00  0.00    +0.170 C 
BRANCH  17  18
ATOM     18  S   UNL     1       4.499   7.428   0.045  0.00  0.00    -0.116 S 
BRANCH  18  19
ATOM     19  C   UNL     1       6.232   7.749   0.041  0.00  0.00    +0.008 A 
ATOM     20  C   UNL     1       7.135   6.695  -0.005  0.00  0.00    +0.016 A 
ATOM     21  C   UNL     1       8.492   6.950  -0.013  0.00  0.00    +0.021 A 
ATOM     22  C   UNL     1       8.953   8.254   0.036  0.00  0.00    +0.041 A 
ATOM     23  C   UNL     1       8.056   9.306   0.088  0.00  0.00    +0.021 A 
ATOM     24  C   UNL     1       6.697   9.058   0.090  0.00  0.00    +0.016 A 
ATOM     25 CL   UNL     1      10.660   8.570   0.032  0.00  0.00    -0.084 Cl
ENDBRANCH  18  19
ENDBRANCH  17  18
ENDBRANCH  11  17
ENDBRANCH   1  10
BRANCH   2  26
ATOM     26  N   UNL     1       0.705   4.718   1.889  0.00  0.00    -0.343 N 
ATOM     27  H   UNL     1       1.615   5.051   1.944  0.00  0.00    +0.144 HD
ATOM     28  H   UNL     1       0.061   4.952   2.575  0.00  0.00    +0.144 HD
ENDBRANCH   2  26
BRANCH   3  29
ATOM     29  C   UNL     1      -1.979   3.947   1.681  0.00  0.00    +0.163 C 
BRANCH  29  30
ATOM     30  C   UNL     1      -2.592   5.248   1.233  0.00  0.00    -0.028 A 
ATOM     31  C   UNL     1      -2.032   6.449   1.628  0.00  0.00    +0.005 A 
ATOM     32  C   UNL     1      -2.592   7.642   1.213  0.00  0.00    +0.000 A 
ATOM     33  C   UNL     1      -3.719   7.636   0.411  0.00  0.00    +0.000 A 
ATOM     34  C   UNL     1      -4.282   6.435   0.021  0.00  0.00    +0.000 A 
ATOM     35  C   UNL     1      -3.719   5.241   0.431  0.00  0.00    +0.005 A 
ENDBRANCH  29  30
ENDBRANCH   3  29
TORSDOF 9
