REMARK  Name = ZINC48311378
REMARK  7 active torsions:
REMARK  status: ('A' for Active; 'I' for Inactive)
REMARK    1  A    between atoms: C_4  and  C_7
REMARK    2  A    between atoms: C_12  and  N_22
REMARK    3  A    between atoms: C_14  and  C_16
REMARK    4  A    between atoms: N_22  and  C_23
REMARK    5  A    between atoms: C_23  and  C_24
REMARK    6  A    between atoms: C_29  and  C_30
REMARK    7  A    between atoms: C_30  and  O_31
REMARK                            x       y       z     vdW  Elec       q    Type
REMARK                         _______ _______ _______ _____ _____    ______ ____
ROOT
ATOM      1  C   UNL     1       3.719  -0.651  -0.007  0.00  0.00    +0.002 A 
ATOM      2  C   UNL     1       4.647  -0.378  -0.955  0.00  0.00    +0.056 A 
ATOM      3  S   UNL     1       5.987  -1.484  -0.555  0.00  0.00    -0.076 S 
ATOM      4  C   UNL     1       5.279  -2.282   0.862  0.00  0.00    +0.115 A 
ATOM      5  C   UNL     1       4.017  -1.666   0.997  0.00  0.00    +0.055 A 
ATOM      6  C   UNL     1       3.223  -2.125   2.083  0.00  0.00    +0.132 A 
ATOM      7  N   UNL     1       3.698  -3.067   2.879  0.00  0.00    -0.211 NA
ATOM      8  C   UNL     1       4.900  -3.603   2.698  0.00  0.00    +0.181 A 
ATOM      9  N   UNL     1       5.680  -3.220   1.696  0.00  0.00    -0.219 NA
ENDROOT
BRANCH   1  13
ATOM     10  C   UNL     1       0.010   1.426   0.050  0.00  0.00    +0.000 A 
ATOM     11  C   UNL     1       0.367   0.683  -1.061  0.00  0.00    +0.001 A 
ATOM     12  C   UNL     1       1.569   0.007  -1.086  0.00  0.00    +0.008 A 
ATOM     13  C   UNL     1       2.426   0.074   0.013  0.00  0.00    -0.017 A 
ATOM     14  C   UNL     1       2.061   0.824   1.130  0.00  0.00    +0.008 A 
ATOM     15  C   UNL     1       0.856   1.496   1.143  0.00  0.00    +0.001 A 
ENDBRANCH   1  13
BRANCH   8  16
ATOM     16  C   UNL     1       5.375  -4.657   3.627  0.00  0.00    +0.108 A 
ATOM     17  C   UNL     1       6.636  -5.220   3.447  0.00  0.00    +0.031 A 
ATOM     18  C   UNL     1       7.066  -6.203   4.323  0.00  0.00    +0.004 A 
ATOM     19  C   UNL     1       6.218  -6.591   5.350  0.00  0.00    +0.020 A 
ATOM     20  C   UNL     1       4.978  -5.989   5.470  0.00  0.00    +0.111 A 
ATOM     21  N   UNL     1       4.596  -5.053   4.626  0.00  0.00    -0.252 NA
ENDBRANCH   8  16
BRANCH   6  22
ATOM     22  N   UNL     1       1.966  -1.591   2.305  0.00  0.00    -0.324 N 
ATOM     23  H   UNL     1       1.585  -0.966   1.668  0.00  0.00    +0.148 HD
BRANCH  22  24
ATOM     24  C   UNL     1       1.209  -1.971   3.501  0.00  0.00    +0.138 C 
BRANCH  24  25
ATOM     25  C   UNL     1      -0.117  -1.255   3.504  0.00  0.00    -0.025 A 
ATOM     26  C   UNL     1      -0.288  -0.119   4.273  0.00  0.00    +0.005 A 
ATOM     27  C   UNL     1      -1.504   0.537   4.276  0.00  0.00    +0.000 A 
ATOM     28  C   UNL     1      -2.550   0.057   3.510  0.00  0.00    +0.000 A 
ATOM     29  C   UNL     1      -2.380  -1.078   2.740  0.00  0.00    +0.006 A 
ATOM     30  C   UNL     1      -1.161  -1.732   2.734  0.00  0.00    -0.018 A 
BRANCH  30  31
ATOM     31  C   UNL     1      -0.974  -2.967   1.891  0.00  0.00    +0.191 C 
BRANCH  31  32
ATOM     32  O   UNL     1      -2.187  -3.257   1.194  0.00  0.00    -0.390 OA
ATOM     33  H   UNL     1      -2.139  -4.041   0.630  0.00  0.00    +0.210 HD
ENDBRANCH  31  32
ENDBRANCH  30  31
ENDBRANCH  24  25
ENDBRANCH  22  24
ENDBRANCH   6  22
TORSDOF 7
