REMARK  Name = ZINC18270068
REMARK  8 active torsions:
REMARK  status: ('A' for Active; 'I' for Inactive)
REMARK    1  A    between atoms: C_1  and  C_2
REMARK    2  A    between atoms: C_7  and  N_8
REMARK    3  A    between atoms: C_9  and  C_11
REMARK    4  A    between atoms: C_11  and  N_12
REMARK    5  A    between atoms: N_12  and  C_13
REMARK    6  A    between atoms: C_14  and  C_16
REMARK    7  A    between atoms: C_16  and  C_17
REMARK    8  A    between atoms: C_26  and  O_29
REMARK                            x       y       z     vdW  Elec       q    Type
REMARK                         _______ _______ _______ _____ _____    ______ ____
ROOT
ATOM      1  N   UNL     1      -0.240  -0.903   5.989  0.00  0.00    -0.296 N 
ATOM      2  C   UNL     1       0.988  -1.366   6.640  0.00  0.00    +0.132 C 
ATOM      3  C   UNL     1      -1.438  -1.359   6.407  0.00  0.00    +0.216 C 
ATOM      4  O   UNL     1      -2.454  -0.976   5.868  0.00  0.00    -0.276 OA
ENDROOT
BRANCH   1   5
ATOM      5  C   UNL     1      -0.167   0.054   4.882  0.00  0.00    +0.203 C 
BRANCH   5   7
ATOM      6  N   UNL     1       0.026  -0.014   2.417  0.00  0.00    -0.284 N 
ATOM      7  C   UNL     1      -0.056  -0.694   3.578  0.00  0.00    +0.235 C 
ATOM      8  O   UNL     1      -0.040  -1.906   3.574  0.00  0.00    -0.274 OA
ATOM      9  H   UNL     1       0.079   0.955   2.425  0.00  0.00    +0.155 HD
BRANCH   6  16
ATOM     10  C   UNL     1      -1.265   1.183   0.182  0.00  0.00    +0.046 C 
ATOM     11  C   UNL     1      -0.584  -0.158   0.085  0.00  0.00    -0.028 A 
ATOM     12  C   UNL     1      -0.570  -0.840  -1.116  0.00  0.00    +0.020 A 
ATOM     13  C   UNL     1       0.055  -2.071  -1.206  0.00  0.00    +0.018 A 
ATOM     14  C   UNL     1       0.666  -2.623  -0.094  0.00  0.00    +0.017 A 
ATOM     15  C   UNL     1       0.655  -1.945   1.109  0.00  0.00    +0.024 A 
ATOM     16  C   UNL     1       0.034  -0.706   1.201  0.00  0.00    +0.036 A 
ATOM     17 BR   UNL     1       0.072  -3.002  -2.852  0.00  0.00    -0.050 Br
ENDBRANCH   6  16
ENDBRANCH   5   7
ENDBRANCH   1   5
BRANCH   3  18
ATOM     18  C   UNL     1      -1.514  -2.343   7.546  0.00  0.00    +0.103 C 
BRANCH  18  19
ATOM     19  C   UNL     1      -2.977  -2.695   7.819  0.00  0.00    -0.018 C 
ATOM     20  C   UNL     1      -3.746  -1.425   8.191  0.00  0.00    +0.011 C 
ATOM     21  C   UNL     1      -5.210  -1.777   8.465  0.00  0.00    -0.007 C 
ATOM     22  C   UNL     1      -5.828  -2.398   7.211  0.00  0.00    +0.007 C 
ATOM     23  C   UNL     1      -5.059  -3.668   6.839  0.00  0.00    -0.007 C 
ATOM     24  C   UNL     1      -3.596  -3.317   6.565  0.00  0.00    +0.011 C 
ATOM     25  C   UNL     1      -5.136  -4.668   7.995  0.00  0.00    +0.038 C 
ATOM     26  C   UNL     1      -4.518  -4.046   9.248  0.00  0.00    +0.067 C 
ATOM     27  C   UNL     1      -5.287  -2.777   9.620  0.00  0.00    +0.038 C 
ATOM     28  C   UNL     1      -3.054  -3.695   8.975  0.00  0.00    +0.042 C 
BRANCH  26  29
ATOM     29  O   UNL     1      -4.590  -4.980  10.328  0.00  0.00    -0.389 OA
ATOM     30  H   UNL     1      -5.490  -5.248  10.557  0.00  0.00    +0.210 HD
ENDBRANCH  26  29
ENDBRANCH  18  19
ENDBRANCH   3  18
TORSDOF 6
