REMARK  Name = ZINC36525767
REMARK  19 active torsions:
REMARK  status: ('A' for Active; 'I' for Inactive)
REMARK    1  A    between atoms: C_1  and  C_2
REMARK    2  A    between atoms: C_4  and  C_15
REMARK    3  A    between atoms: C_12  and  C_13
REMARK    4  A    between atoms: C_12  and  C_14
REMARK    5  A    between atoms: N_17  and  C_18
REMARK    6  A    between atoms: N_17  and  C_19
REMARK    7  A    between atoms: C_19  and  C_21
REMARK    8  A    between atoms: C_19  and  C_30
REMARK    9  A    between atoms: C_24  and  O_29
REMARK   10  A    between atoms: C_25  and  O_27
REMARK   11  A    between atoms: O_27  and  C_28
REMARK   12  A    between atoms: N_32  and  C_33
REMARK   13  A    between atoms: C_33  and  C_34
REMARK   14  A    between atoms: C_33  and  C_35
REMARK   15  A    between atoms: C_33  and  C_36
REMARK   16  A    between atoms: C_36  and  C_37
REMARK   17  A    between atoms: C_37  and  C_38
REMARK   18  A    between atoms: C_37  and  C_39
REMARK   19  A    between atoms: C_37  and  C_40
REMARK                            x       y       z     vdW  Elec       q    Type
REMARK                         _______ _______ _______ _____ _____    ______ ____
ROOT
ATOM      1  C   UNL     1      -1.256  -3.941  -3.912  0.00  0.00    +0.192 C 
ENDROOT
BRANCH   1   2
ATOM      2  C   UNL     1      -2.420  -3.061  -4.287  0.00  0.00    -0.015 A 
ATOM      3  C   UNL     1      -2.297  -2.161  -5.330  0.00  0.00    +0.010 A 
ATOM      4  C   UNL     1      -3.362  -1.351  -5.677  0.00  0.00    +0.049 A 
ATOM      5  C   UNL     1      -4.557  -1.440  -4.980  0.00  0.00    +0.158 A 
ATOM      6  C   UNL     1      -4.680  -2.346  -3.931  0.00  0.00    +0.162 A 
ATOM      7  C   UNL     1      -3.611  -3.158  -3.591  0.00  0.00    +0.055 A 
BRANCH   6   8
ATOM      8  O   UNL     1      -5.851  -2.437  -3.244  0.00  0.00    -0.491 OA
ATOM      9  C   UNL     1      -5.905  -3.389  -2.179  0.00  0.00    +0.277 C 
ENDBRANCH   6   8
BRANCH   5  10
ATOM     10  O   UNL     1      -5.605  -0.644  -5.320  0.00  0.00    -0.503 OA
ATOM     11  H   UNL     1      -6.193  -1.030  -5.984  0.00  0.00    +0.292 HD
ENDBRANCH   5  10
ENDBRANCH   1   2
BRANCH   1  14
ATOM     12  C   UNL     1       0.336  -3.237  -2.207  0.00  0.00    +0.220 C 
ATOM     13  O   UNL     1      -0.109  -4.097  -1.476  0.00  0.00    -0.275 OA
ATOM     14  N   UNL     1      -0.138  -3.107  -3.462  0.00  0.00    -0.289 N 
ATOM     15  C   UNL     1       0.463  -2.133  -4.375  0.00  0.00    +0.133 C 
BRANCH  12  18
ATOM     16  C   UNL     1       1.387  -0.977   0.432  0.00  0.00    +0.008 C 
ATOM     17  C   UNL     1       1.522  -2.362  -0.193  0.00  0.00    +0.001 C 
ATOM     18  C   UNL     1       1.421  -2.314  -1.712  0.00  0.00    +0.079 C 
ATOM     19  C   UNL     1       2.743  -2.611  -2.409  0.00  0.00    +0.017 C 
ATOM     20  C   UNL     1       3.673  -3.462  -1.543  0.00  0.00    -0.004 C 
ATOM     21  C   UNL     1       2.931  -4.398  -0.576  0.00  0.00    +0.008 C 
ATOM     22  C   UNL     1       2.752  -3.121   0.288  0.00  0.00    -0.001 C 
ATOM     23  C   UNL     1       4.109  -2.701  -0.274  0.00  0.00    -0.029 C 
ATOM     24  C   UNL     1       5.302  -3.365   0.439  0.00  0.00    +0.011 C 
ATOM     25  C   UNL     1       4.358  -1.210  -0.479  0.00  0.00    +0.011 C 
ENDBRANCH  12  18
ENDBRANCH   1  14
BRANCH   1  26
ATOM     26  C   UNL     1      -0.829  -4.747  -5.112  0.00  0.00    +0.238 C 
ATOM     27  O   UNL     1       0.297  -4.636  -5.548  0.00  0.00    -0.273 OA
ATOM     28  N   UNL     1      -1.700  -5.591  -5.701  0.00  0.00    -0.308 N 
ATOM     29  H   UNL     1      -2.600  -5.680  -5.352  0.00  0.00    +0.149 HD
BRANCH  28  30
ATOM     30  C   UNL     1      -1.285  -6.375  -6.867  0.00  0.00    +0.030 C 
ATOM     31  C   UNL     1      -1.007  -5.434  -8.041  0.00  0.00    +0.031 C 
ATOM     32  C   UNL     1      -0.015  -7.159  -6.530  0.00  0.00    +0.031 C 
BRANCH  30  33
ATOM     33  C   UNL     1      -2.400  -7.350  -7.249  0.00  0.00    +0.031 C 
BRANCH  33  34
ATOM     34  C   UNL     1      -3.166  -7.766  -5.991  0.00  0.00    -0.036 C 
ATOM     35  C   UNL     1      -4.195  -6.690  -5.641  0.00  0.00    +0.010 C 
ATOM     36  C   UNL     1      -3.884  -9.093  -6.247  0.00  0.00    +0.010 C 
ATOM     37  C   UNL     1      -2.185  -7.933  -4.829  0.00  0.00    +0.010 C 
ENDBRANCH  33  34
ENDBRANCH  30  33
ENDBRANCH  28  30
ENDBRANCH   1  26
TORSDOF 9
