REMARK  Name = ZINC22074853
REMARK  12 active torsions:
REMARK  status: ('A' for Active; 'I' for Inactive)
REMARK    1  A    between atoms: C_1  and  C_2
REMARK    2  A    between atoms: C_2  and  O_3
REMARK    3  A    between atoms: O_3  and  C_4
REMARK    4  A    between atoms: C_5  and  C_12
REMARK    5  A    between atoms: C_12  and  N_13
REMARK    6  A    between atoms: N_13  and  C_14
REMARK    7  A    between atoms: C_14  and  C_15
REMARK    8  A    between atoms: C_15  and  N_16
REMARK    9  A    between atoms: N_16  and  C_17
REMARK   10  A    between atoms: C_17  and  C_18
REMARK   11  A    between atoms: C_18  and  C_20
REMARK   12  A    between atoms: C_18  and  O_21
REMARK                            x       y       z     vdW  Elec       q    Type
REMARK                         _______ _______ _______ _____ _____    ______ ____
ROOT
ATOM      1  C   UNL     1      -1.599  -0.863   2.338  0.00  0.00    +0.120 C 
ENDROOT
BRANCH   1   3
ATOM      2  C   UNL     1      -0.149   1.182   2.380  0.00  0.00    +0.139 A 
ATOM      3  C   UNL     1      -0.560   0.009   2.995  0.00  0.00    +0.010 A 
ATOM      4  C   UNL     1      -0.015  -0.362   4.209  0.00  0.00    +0.023 A 
ATOM      5  C   UNL     1       0.935   0.440   4.816  0.00  0.00    +0.019 A 
ATOM      6  C   UNL     1       1.344   1.613   4.207  0.00  0.00    +0.034 A 
ATOM      7  C   UNL     1       0.804   1.986   2.990  0.00  0.00    +0.061 A 
ATOM      8 BR   UNL     1       1.363   3.589   2.158  0.00  0.00    -0.046 Br
ATOM      9 BR   UNL     1       1.675  -0.067   6.481  0.00  0.00    -0.050 Br
BRANCH   2  10
ATOM     10  O   UNL     1      -0.682   1.547   1.184  0.00  0.00    -0.491 OA
BRANCH  10  12
ATOM     11  C   UNL     1      -0.753   1.593  -1.232  0.00  0.00    +0.048 C 
ATOM     12  C   UNL     1      -0.013   1.086   0.008  0.00  0.00    +0.226 C 
ENDBRANCH  10  12
ENDBRANCH   2  10
ENDBRANCH   1   3
BRANCH   1  13
ATOM     13  N   UNL     1      -0.965  -1.677   1.292  0.00  0.00    -0.314 NA
ATOM     14  H   UNL     1      -0.510  -1.017   0.539  0.00  0.00    +0.122 HD
BRANCH  13  15
ATOM     15  C   UNL     1      -1.950  -2.541   0.628  0.00  0.00    +0.062 C 
BRANCH  15  16
ATOM     16  C   UNL     1      -1.253  -3.372  -0.452  0.00  0.00    -0.067 C 
BRANCH  16  17
ATOM     17  N   UNL     1      -2.238  -4.236  -1.116  0.00  0.00    +0.382 N 
ATOM     18  H   UNL     1      -2.695  -4.908  -0.374  0.00  0.00    -0.086 HD
ATOM     19  H   UNL     1      -3.019  -3.615  -1.578  0.00  0.00    -0.086 HD
BRANCH  17  20
ATOM     20  C   UNL     1      -1.604  -5.050  -2.161  0.00  0.00    -0.051 C 
BRANCH  20  21
ATOM     21  C   UNL     1      -2.658  -5.935  -2.829  0.00  0.00    +0.095 C 
ATOM     22  C   UNL     1      -1.998  -6.783  -3.917  0.00  0.00    +0.035 C 
BRANCH  21  23
ATOM     23  O   UNL     1      -3.249  -6.793  -1.850  0.00  0.00    -0.394 OA
ATOM     24  H   UNL     1      -4.034  -7.505  -2.145  0.00  0.00    +0.210 HD
ENDBRANCH  21  23
ENDBRANCH  20  21
ENDBRANCH  17  20
ENDBRANCH  16  17
ENDBRANCH  15  16
ENDBRANCH  13  15
ENDBRANCH   1  13
TORSDOF 10
