REMARK  Name = ZINC25680046
REMARK  9 active torsions:
REMARK  status: ('A' for Active; 'I' for Inactive)
REMARK    1  A    between atoms: C_1  and  N_2
REMARK    2  A    between atoms: N_2  and  C_3
REMARK    3  A    between atoms: N_2  and  C_14
REMARK    4  A    between atoms: C_3  and  C_4
REMARK    5  A    between atoms: C_6  and  N_11
REMARK    6  A    between atoms: C_14  and  C_15
REMARK    7  A    between atoms: N_20  and  S_23
REMARK    8  A    between atoms: S_23  and  C_26
REMARK    9  A    between atoms: C_31  and  C_32
REMARK                            x       y       z     vdW  Elec       q    Type
REMARK                         _______ _______ _______ _____ _____    ______ ____
ROOT
ATOM      1  C   UNL     1       2.045  -1.028   5.026  0.00  0.00    +0.199 C 
ATOM      2  O   UNL     1       1.623  -2.161   5.104  0.00  0.00    -0.278 OA
ATOM      3  N   UNL     1       1.949  -0.352   3.864  0.00  0.00    -0.300 N 
ATOM      4  C   UNL     1       1.334  -0.976   2.684  0.00  0.00    +0.125 C 
ATOM      5  C   UNL     1       2.332  -0.914   1.520  0.00  0.00    +0.128 C 
ATOM      6  N   UNL     1       2.840   0.461   1.410  0.00  0.00    -0.174 NA
ATOM      7  C   UNL     1       3.459   1.084   2.588  0.00  0.00    +0.128 C 
ATOM      8  C   UNL     1       2.457   1.023   3.753  0.00  0.00    +0.125 C 
ENDROOT
BRANCH   6   9
ATOM      9  S   UNL     1       2.721   1.291  -0.018  0.00  0.00    +0.062 S 
ATOM     10  O   UNL     1       2.632   0.317  -1.048  0.00  0.00    -0.153 OA
ATOM     11  O   UNL     1       3.737   2.285   0.005  0.00  0.00    -0.153 OA
BRANCH   9  12
ATOM     12  C   UNL     1       1.180   2.145   0.002  0.00  0.00    +0.123 A 
ATOM     13  C   UNL     1       1.154   3.525   0.010  0.00  0.00    +0.030 A 
ATOM     14  C   UNL     1      -0.055   4.197   0.025  0.00  0.00    +0.002 A 
ATOM     15  C   UNL     1      -1.246   3.492   0.032  0.00  0.00    +0.001 A 
ATOM     16  C   UNL     1      -1.234   2.113   0.019  0.00  0.00    +0.021 A 
ATOM     17  C   UNL     1      -0.017   1.428   0.010  0.00  0.00    +0.078 A 
BRANCH  17  18
ATOM     18  C   UNL     1       0.002  -0.004   0.002  0.00  0.00    +0.101 C 
ATOM     19  N   UNL     1       0.018  -1.140  -0.004  0.00  0.00    -0.191 NA
ENDBRANCH  17  18
ENDBRANCH   9  12
ENDBRANCH   6   9
BRANCH   1  20
ATOM     20  C   UNL     1       2.678  -0.374   6.227  0.00  0.00    +0.019 C 
BRANCH  20  22
ATOM     21  C   UNL     1       3.526  -2.469   7.096  0.00  0.00    -0.095 C 
ATOM     22  N   UNL     1       2.662  -1.310   7.359  0.00  0.00    +0.386 N 
ATOM     23  H   UNL     1       1.632  -1.677   7.480  0.00  0.00    -0.081 HD
BRANCH  22  24
ATOM     24  C   UNL     1       3.051  -0.636   8.605  0.00  0.00    -0.041 C 
BRANCH  24  25
ATOM     25  C   UNL     1       2.789  -1.551   9.774  0.00  0.00    -0.043 A 
ATOM     26  C   UNL     1       3.842  -2.190  10.401  0.00  0.00    +0.036 A 
ATOM     27  C   UNL     1       3.603  -3.025  11.476  0.00  0.00    +0.126 A 
ATOM     28  C   UNL     1       2.309  -3.230  11.918  0.00  0.00    +0.034 A 
ATOM     29  C   UNL     1       1.254  -2.596  11.288  0.00  0.00    +0.022 A 
ATOM     30  C   UNL     1       1.494  -1.756  10.215  0.00  0.00    +0.042 A 
ATOM     31 CL   UNL     1       0.170  -0.959   9.424  0.00  0.00    -0.083 Cl
BRANCH  27  32
ATOM     32  N   UNL     1       4.731  -3.705  12.150  0.00  0.00    +0.056 N 
ATOM     33  O   UNL     1       4.520  -4.445  13.095  0.00  0.00    -0.126 OA
ATOM     34  O   UNL     1       5.871  -3.525  11.761  0.00  0.00    -0.126 OA
ENDBRANCH  27  32
ENDBRANCH  24  25
ENDBRANCH  22  24
ENDBRANCH  20  22
ENDBRANCH   1  20
TORSDOF 8
