REMARK  Name = ZINC60377479
REMARK  13 active torsions:
REMARK  status: ('A' for Active; 'I' for Inactive)
REMARK    1  A    between atoms: C_1  and  C_2
REMARK    2  A    between atoms: C_2  and  C_4
REMARK    3  A    between atoms: C_2  and  N_19
REMARK    4  A    between atoms: N_6  and  C_7
REMARK    5  A    between atoms: C_7  and  C_8
REMARK    6  A    between atoms: C_8  and  C_9
REMARK    7  A    between atoms: C_12  and  S_15
REMARK    8  A    between atoms: S_15  and  N_18
REMARK    9  A    between atoms: C_22  and  C_25
REMARK   10  A    between atoms: C_25  and  N_26
REMARK   11  A    between atoms: N_26  and  C_27
REMARK   12  A    between atoms: N_26  and  C_28
REMARK   13  A    between atoms: C_28  and  C_29
REMARK                            x       y       z     vdW  Elec       q    Type
REMARK                         _______ _______ _______ _____ _____    ______ ____
ROOT
ATOM      1  C   UNL     1       1.453   0.984  -0.663  0.00  0.00    -0.004 C 
ATOM      2  C   UNL     1       0.630  -0.221  -0.203  0.00  0.00    +0.016 C 
ENDROOT
BRANCH   2   3
ATOM      3  N   UNL     1       0.733  -1.294  -1.201  0.00  0.00    +0.387 N 
ATOM      4  C   UNL     1      -0.118  -2.419  -0.796  0.00  0.00    -0.078 C 
ATOM      5  C   UNL     1       0.047  -3.572  -1.789  0.00  0.00    -0.017 C 
ATOM      6  C   UNL     1      -0.362  -3.097  -3.187  0.00  0.00    -0.031 C 
ATOM      7  C   UNL     1       0.481  -1.877  -3.568  0.00  0.00    -0.017 C 
ATOM      8  C   UNL     1       0.300  -0.787  -2.509  0.00  0.00    -0.078 C 
ATOM      9  H   UNL     1       1.691  -1.604  -1.262  0.00  0.00    -0.081 HD
BRANCH   6  10
ATOM     10  C   UNL     1      -0.124  -4.219  -4.199  0.00  0.00    -0.075 C 
BRANCH  10  11
ATOM     11  N   UNL     1      -0.998  -5.357  -3.882  0.00  0.00    +0.381 N 
ATOM     12  C   UNL     1      -2.401  -4.967  -4.081  0.00  0.00    -0.096 C 
ATOM     13  H   UNL     1      -0.858  -5.632  -2.921  0.00  0.00    -0.082 HD
BRANCH  11  14
ATOM     14  C   UNL     1      -0.673  -6.485  -4.766  0.00  0.00    -0.043 C 
BRANCH  14  15
ATOM     15  C   UNL     1      -1.483  -7.689  -4.361  0.00  0.00    -0.064 A 
ATOM     16  C   UNL     1      -0.985  -8.574  -3.423  0.00  0.00    +0.002 A 
ATOM     17  C   UNL     1      -1.727  -9.679  -3.052  0.00  0.00    +0.000 A 
ATOM     18  C   UNL     1      -2.969  -9.900  -3.619  0.00  0.00    +0.000 A 
ATOM     19  C   UNL     1      -3.468  -9.014  -4.556  0.00  0.00    +0.000 A 
ATOM     20  C   UNL     1      -2.727  -7.907  -4.924  0.00  0.00    +0.002 A 
ENDBRANCH  14  15
ENDBRANCH  11  14
ENDBRANCH  10  11
ENDBRANCH   6  10
ENDBRANCH   2   3
BRANCH   2  21
ATOM     21  C   UNL     1       1.157  -0.713   1.120  0.00  0.00    +0.199 C 
ATOM     22  O   UNL     1       1.993  -1.591   1.151  0.00  0.00    -0.278 OA
ATOM     23  N   UNL     1       0.700  -0.177   2.269  0.00  0.00    -0.316 N 
ATOM     24  H   UNL     1       0.032   0.525   2.244  0.00  0.00    +0.149 HD
BRANCH  23  25
ATOM     25  C   UNL     1       1.212  -0.656   3.555  0.00  0.00    +0.109 C 
BRANCH  25  26
ATOM     26  C   UNL     1       0.534   0.112   4.692  0.00  0.00    +0.054 C 
BRANCH  26  27
ATOM     27  C   UNL     1       1.062  -0.381   6.015  0.00  0.00    -0.046 A 
ATOM     28  C   UNL     1       0.439  -1.434   6.658  0.00  0.00    +0.005 A 
ATOM     29  C   UNL     1       0.923  -1.886   7.872  0.00  0.00    +0.029 A 
ATOM     30  C   UNL     1       2.029  -1.284   8.442  0.00  0.00    +0.105 A 
ATOM     31  C   UNL     1       2.652  -0.231   7.799  0.00  0.00    +0.029 A 
ATOM     32  C   UNL     1       2.171   0.218   6.583  0.00  0.00    +0.005 A 
BRANCH  30  33
ATOM     33  S   UNL     1       2.645  -1.859   9.990  0.00  0.00    +0.056 S 
ATOM     34  O   UNL     1       3.357  -0.775  10.571  0.00  0.00    -0.153 OA
ATOM     35  O   UNL     1       1.558  -2.497  10.648  0.00  0.00    -0.153 OA
BRANCH  33  36
ATOM     36  N   UNL     1       3.760  -3.039   9.665  0.00  0.00    -0.204 NA
ATOM     37  H   UNL     1       4.505  -3.182  10.271  0.00  0.00    +0.144 HD
ATOM     38  H   UNL     1       3.669  -3.587   8.870  0.00  0.00    +0.144 HD
ENDBRANCH  33  36
ENDBRANCH  30  33
ENDBRANCH  26  27
ENDBRANCH  25  26
ENDBRANCH  23  25
ENDBRANCH   2  21
TORSDOF 11
