REMARK  Name = ZINC06162914
REMARK  11 active torsions:
REMARK  status: ('A' for Active; 'I' for Inactive)
REMARK    1  A    between atoms: C_1  and  O_2
REMARK    2  A    between atoms: O_2  and  C_3
REMARK    3  A    between atoms: C_10  and  C_15
REMARK    4  A    between atoms: C_15  and  C_17
REMARK    5  A    between atoms: C_15  and  N_29
REMARK    6  A    between atoms: N_21  and  C_22
REMARK    7  A    between atoms: C_22  and  C_23
REMARK    8  A    between atoms: N_29  and  C_30
REMARK    9  A    between atoms: N_29  and  C_37
REMARK   10  A    between atoms: C_30  and  C_31
REMARK   11  A    between atoms: C_37  and  C_38
REMARK                            x       y       z     vdW  Elec       q    Type
REMARK                         _______ _______ _______ _____ _____    ______ ____
ROOT
ATOM      1  C   UNL     1       2.666  -6.153  -3.431  0.00  0.00    +0.040 C 
ENDROOT
BRANCH   1   9
ATOM      2  C   UNL     1       1.734  -1.557   0.623  0.00  0.00    +0.121 A 
ATOM      3  C   UNL     1       2.001  -0.518  -0.266  0.00  0.00    +0.047 A 
ATOM      4  C   UNL     1       2.338  -0.782  -1.574  0.00  0.00    +0.030 A 
ATOM      5  C   UNL     1       2.415  -2.098  -2.020  0.00  0.00    +0.049 A 
ATOM      6  C   UNL     1       2.147  -3.151  -1.126  0.00  0.00    +0.002 A 
ATOM      7  C   UNL     1       1.811  -2.870   0.203  0.00  0.00    +0.055 A 
ATOM      8  C   UNL     1       2.232  -4.531  -1.608  0.00  0.00    +0.017 A 
ATOM      9  C   UNL     1       2.568  -4.745  -2.904  0.00  0.00    +0.011 A 
ATOM     10  C   UNL     1       2.828  -3.654  -3.760  0.00  0.00    +0.251 A 
ATOM     11  O   UNL     1       3.129  -3.869  -4.922  0.00  0.00    -0.268 OA
ATOM     12  N   UNL     1       2.752  -2.384  -3.327  0.00  0.00    -0.322 N 
ATOM     13  H   UNL     1       2.937  -1.657  -3.943  0.00  0.00    +0.169 HD
BRANCH   2  15
ATOM     14  C   UNL     1       1.341   0.102   2.281  0.00  0.00    +0.277 C 
ATOM     15  O   UNL     1       1.403  -1.277   1.911  0.00  0.00    -0.495 OA
ENDBRANCH   2  15
ENDBRANCH   1   9
BRANCH   1  16
ATOM     16  C   UNL     1       1.603  -6.372  -4.477  0.00  0.00    +0.143 A 
ATOM     17  N   UNL     1       1.662  -6.020  -5.738  0.00  0.00    -0.115 NA
ATOM     18  N   UNL     1       0.562  -6.381  -6.304  0.00  0.00    -0.023 NA
ATOM     19  N   UNL     1      -0.197  -6.954  -5.436  0.00  0.00    -0.044 NA
ATOM     20  N   UNL     1       0.412  -6.973  -4.299  0.00  0.00    -0.228 N 
BRANCH  20  21
ATOM     21  C   UNL     1      -0.099  -7.539  -3.048  0.00  0.00    +0.178 C 
BRANCH  21  22
ATOM     22  C   UNL     1      -1.022  -6.525  -2.369  0.00  0.00    +0.140 C 
ATOM     23  C   UNL     1      -1.645  -7.138  -1.089  0.00  0.00    +0.035 C 
ATOM     24  C   UNL     1      -1.960  -5.856  -0.272  0.00  0.00    +0.031 C 
ATOM     25  C   UNL     1      -0.796  -4.921  -0.667  0.00  0.00    +0.160 C 
ATOM     26  O   UNL     1      -0.269  -5.390  -1.915  0.00  0.00    -0.375 OA
ENDBRANCH  21  22
ENDBRANCH  20  21
ENDBRANCH   1  16
BRANCH   1  27
ATOM     27  N   UNL     1       3.991  -6.362  -4.029  0.00  0.00    +0.397 N 
ATOM     28  H   UNL     1       4.110  -5.736  -4.811  0.00  0.00    -0.079 HD
BRANCH  27  29
ATOM     29  C   UNL     1       4.106  -7.752  -4.492  0.00  0.00    -0.039 C 
BRANCH  29  30
ATOM     30  C   UNL     1       3.843  -8.688  -3.341  0.00  0.00    -0.046 A 
ATOM     31  C   UNL     1       4.864  -9.035  -2.470  0.00  0.00    +0.005 A 
ATOM     32  C   UNL     1       4.576  -9.899  -1.425  0.00  0.00    +0.020 A 
ATOM     33  C   UNL     1       3.288 -10.384  -1.288  0.00  0.00    +0.111 A 
ATOM     34  N   UNL     1       2.342 -10.033  -2.136  0.00  0.00    -0.263 NA
ATOM     35  C   UNL     1       2.579  -9.208  -3.138  0.00  0.00    +0.112 A 
ENDBRANCH  29  30
ENDBRANCH  27  29
BRANCH  27  36
ATOM     36  C   UNL     1       5.029  -6.093  -3.024  0.00  0.00    -0.001 C 
BRANCH  36  37
ATOM     37  C   UNL     1       6.386  -6.151  -3.677  0.00  0.00    +0.089 A 
ATOM     38  C   UNL     1       7.071  -5.101  -4.163  0.00  0.00    +0.042 A 
ATOM     39  C   UNL     1       8.285  -5.607  -4.681  0.00  0.00    +0.041 A 
ATOM     40  C   UNL     1       8.270  -6.937  -4.479  0.00  0.00    +0.195 A 
ATOM     41  O   UNL     1       7.120  -7.260  -3.865  0.00  0.00    -0.470 OA
ENDBRANCH  36  37
ENDBRANCH  27  36
ENDBRANCH   1  27
TORSDOF 10
