REMARK  Name = ZINC14476202
REMARK  10 active torsions:
REMARK  status: ('A' for Active; 'I' for Inactive)
REMARK    1  A    between atoms: C_1  and  C_2
REMARK    2  A    between atoms: C_2  and  C_3
REMARK    3  A    between atoms: C_3  and  N_4
REMARK    4  A    between atoms: N_4  and  C_5
REMARK    5  A    between atoms: C_5  and  C_6
REMARK    6  A    between atoms: C_6  and  C_7
REMARK    7  A    between atoms: C_8  and  C_10
REMARK    8  A    between atoms: C_23  and  C_26
REMARK    9  A    between atoms: C_28  and  N_33
REMARK   10  A    between atoms: C_31  and  O_32
REMARK                            x       y       z     vdW  Elec       q    Type
REMARK                         _______ _______ _______ _____ _____    ______ ____
ROOT
ATOM      1  C   UNL     1       3.149  -1.891  -0.520  0.00  0.00    +0.037 A 
ATOM      2  C   UNL     1       3.126  -0.499  -0.400  0.00  0.00    +0.015 A 
ATOM      3  C   UNL     1       4.275   0.174  -0.062  0.00  0.00    +0.024 A 
ATOM      4  C   UNL     1       5.462  -0.525   0.161  0.00  0.00    +0.031 A 
ATOM      5  C   UNL     1       5.490  -1.908   0.055  0.00  0.00    -0.019 A 
ATOM      6  C   UNL     1       4.335  -2.588  -0.286  0.00  0.00    +0.019 A 
ATOM      7  C   UNL     1       6.734  -2.709   0.321  0.00  0.00    +0.049 C 
ATOM      8  C   UNL     1       6.376  -3.809   1.307  0.00  0.00    -0.023 C 
ATOM      9  C   UNL     1       6.776  -3.495   2.512  0.00  0.00    -0.030 C 
ATOM     10  C   UNL     1       7.471  -2.150   2.519  0.00  0.00    +0.033 C 
ATOM     11  C   UNL     1       7.827  -1.903   1.018  0.00  0.00    +0.029 C 
ATOM     12  C   UNL     1       7.899  -0.448   0.663  0.00  0.00    +0.108 C 
ATOM     13  N   UNL     1       6.607   0.184   0.484  0.00  0.00    -0.336 N 
ATOM     14  H   UNL     1       6.545   1.148   0.570  0.00  0.00    +0.147 HD
ENDROOT
BRANCH  12  15
ATOM     15  C   UNL     1       8.609   0.279   1.776  0.00  0.00    +0.017 A 
ATOM     16  C   UNL     1       7.881   0.883   2.783  0.00  0.00    +0.041 A 
ATOM     17  C   UNL     1       8.532   1.551   3.803  0.00  0.00    +0.127 A 
ATOM     18  C   UNL     1       9.913   1.616   3.819  0.00  0.00    +0.036 A 
ATOM     19  C   UNL     1      10.646   1.014   2.815  0.00  0.00    +0.048 A 
ATOM     20  C   UNL     1       9.995   0.339   1.792  0.00  0.00    +0.122 A 
BRANCH  17  21
ATOM     21  N   UNL     1       7.749   2.197   4.880  0.00  0.00    +0.056 N 
ATOM     22  O   UNL     1       6.542   2.140   4.867  0.00  0.00    -0.126 OA
ATOM     23  O   UNL     1       8.317   2.781   5.773  0.00  0.00    -0.126 OA
ENDBRANCH  17  21
BRANCH  20  24
ATOM     24  O   UNL     1      10.714  -0.259   0.806  0.00  0.00    -0.506 OA
ATOM     25  H   UNL     1      10.895   0.315   0.049  0.00  0.00    +0.292 HD
ENDBRANCH  20  24
ENDBRANCH  12  15
BRANCH   1  27
ATOM     26  N   UNL     1       1.149  -2.178  -1.899  0.00  0.00    -0.298 N 
ATOM     27  C   UNL     1       1.922  -2.623  -0.888  0.00  0.00    +0.247 C 
ATOM     28  O   UNL     1       1.607  -3.627  -0.278  0.00  0.00    -0.270 OA
BRANCH  26  29
ATOM     29  C   UNL     1      -0.112  -2.856  -2.210  0.00  0.00    +0.108 C 
BRANCH  29  31
ATOM     30  C   UNL     1      -1.168  -4.690  -3.538  0.00  0.00    +0.005 C 
ATOM     31  C   UNL     1       0.149  -3.982  -3.213  0.00  0.00    +0.016 C 
ENDBRANCH  29  31
ENDBRANCH  26  29
BRANCH  26  32
ATOM     32  C   UNL     1       1.571  -1.017  -2.686  0.00  0.00    +0.108 C 
BRANCH  32  33
ATOM     33  C   UNL     1       0.740   0.203  -2.281  0.00  0.00    +0.016 C 
ATOM     34  C   UNL     1       1.280   1.446  -2.991  0.00  0.00    +0.005 C 
ENDBRANCH  32  33
ENDBRANCH  26  32
ENDBRANCH   1  27
TORSDOF 8
