REMARK  Name = ZINC17731405
REMARK  7 active torsions:
REMARK  status: ('A' for Active; 'I' for Inactive)
REMARK    1  A    between atoms: C_6  and  N_7
REMARK    2  A    between atoms: C_11  and  S_15
REMARK    3  A    between atoms: S_15  and  C_16
REMARK    4  A    between atoms: N_18  and  N_19
REMARK    5  A    between atoms: C_20  and  C_21
REMARK    6  A    between atoms: C_24  and  O_28
REMARK    7  A    between atoms: C_25  and  O_27
REMARK                            x       y       z     vdW  Elec       q    Type
REMARK                         _______ _______ _______ _____ _____    ______ ____
ROOT
ATOM      1  C   UNL     1      -2.273  -4.887  -1.499  0.00  0.00    +0.146 C 
ATOM      2  N   UNL     1      -1.520  -5.151  -0.466  0.00  0.00    -0.380 N 
ATOM      3  N   UNL     1      -2.385  -5.802  -2.521  0.00  0.00    -0.217 N 
ATOM      4  H   UNL     1      -1.040  -5.992  -0.419  0.00  0.00    +0.158 HD
ATOM      5  H   UNL     1      -2.944  -5.606  -3.289  0.00  0.00    +0.176 HD
ATOM      6  H   UNL     1      -1.441  -4.506   0.254  0.00  0.00    +0.158 HD
ENDROOT
BRANCH   3   7
ATOM      7  N   UNL     1      -1.691  -7.017  -2.452  0.00  0.00    -0.188 NA
ATOM      8  C   UNL     1      -1.796  -7.880  -3.416  0.00  0.00    +0.138 C 
BRANCH   8   9
ATOM      9  C   UNL     1      -1.066  -9.159  -3.344  0.00  0.00    -0.002 A 
ATOM     10  C   UNL     1      -0.265  -9.446  -2.236  0.00  0.00    +0.013 A 
ATOM     11  C   UNL     1       0.417 -10.643  -2.170  0.00  0.00    +0.050 A 
ATOM     12  C   UNL     1       0.309 -11.564  -3.201  0.00  0.00    +0.158 A 
ATOM     13  C   UNL     1      -0.488 -11.285  -4.309  0.00  0.00    +0.159 A 
ATOM     14  C   UNL     1      -1.179 -10.089  -4.380  0.00  0.00    +0.058 A 
BRANCH  13  15
ATOM     15  O   UNL     1      -0.590 -12.190  -5.319  0.00  0.00    -0.503 OA
ATOM     16  H   UNL     1      -1.312 -12.824  -5.207  0.00  0.00    +0.292 HD
ENDBRANCH  13  15
BRANCH  12  17
ATOM     17  O   UNL     1       0.984 -12.743  -3.131  0.00  0.00    -0.503 OA
ATOM     18  H   UNL     1       0.487 -13.455  -2.707  0.00  0.00    +0.292 HD
ENDBRANCH  12  17
ENDBRANCH   8   9
ENDBRANCH   3   7
BRANCH   1  19
ATOM     19  S   UNL     1      -3.145  -3.358  -1.585  0.00  0.00    -0.078 S 
BRANCH  19  24
ATOM     20  N   UNL     1      -1.202  -0.723   0.010  0.00  0.00    -0.209 N 
ATOM     21  C   UNL     1      -2.398  -0.131   0.118  0.00  0.00    +0.228 C 
ATOM     22  O   UNL     1      -2.585   1.062   0.218  0.00  0.00    -0.275 OA
ATOM     23  C   UNL     1      -3.480  -1.189   0.094  0.00  0.00    +0.120 C 
ATOM     24  C   UNL     1      -2.694  -2.508  -0.048  0.00  0.00    +0.149 C 
ATOM     25  C   UNL     1      -1.250  -2.057  -0.095  0.00  0.00    +0.240 C 
ATOM     26  O   UNL     1      -0.289  -2.787  -0.207  0.00  0.00    -0.274 OA
BRANCH  20  32
ATOM     27  C   UNL     1       0.775   0.044  -1.150  0.00  0.00    +0.025 A 
ATOM     28  C   UNL     1       1.961   0.753  -1.155  0.00  0.00    +0.017 A 
ATOM     29  C   UNL     1       2.378   1.415  -0.014  0.00  0.00    +0.018 A 
ATOM     30  C   UNL     1       1.609   1.368   1.135  0.00  0.00    +0.017 A 
ATOM     31  C   UNL     1       0.423   0.660   1.146  0.00  0.00    +0.025 A 
ATOM     32  C   UNL     1       0.002  -0.004   0.002  0.00  0.00    +0.044 A 
ATOM     33 BR   UNL     1       4.001   2.384  -0.025  0.00  0.00    -0.050 Br
ENDBRANCH  20  32
ENDBRANCH  19  24
ENDBRANCH   1  19
TORSDOF 7
