REMARK  Name = ZINC60375659
REMARK  6 active torsions:
REMARK  status: ('A' for Active; 'I' for Inactive)
REMARK    1  A    between atoms: C_4  and  C_7
REMARK    2  A    between atoms: C_7  and  C_8
REMARK    3  A    between atoms: C_8  and  C_9
REMARK    4  A    between atoms: C_9  and  N_10
REMARK    5  A    between atoms: N_19  and  C_20
REMARK    6  A    between atoms: C_20  and  C_22
REMARK                            x       y       z     vdW  Elec       q    Type
REMARK                         _______ _______ _______ _____ _____    ______ ____
ROOT
ATOM      1  N   UNL     1       5.960  -1.962   2.751  0.00  0.00    -0.312 N 
ATOM      2  C   UNL     1       6.753  -1.113   3.516  0.00  0.00    +0.068 A 
ATOM      3  C   UNL     1       7.339   0.119   3.262  0.00  0.00    +0.029 A 
ATOM      4  C   UNL     1       8.091   0.738   4.240  0.00  0.00    +0.022 A 
ATOM      5  C   UNL     1       8.263   0.135   5.476  0.00  0.00    +0.043 A 
ATOM      6  C   UNL     1       7.683  -1.091   5.739  0.00  0.00    +0.047 A 
ATOM      7  C   UNL     1       6.926  -1.721   4.761  0.00  0.00    +0.067 A 
ATOM      8  N   UNL     1       6.234  -2.928   4.728  0.00  0.00    -0.326 N 
ATOM      9  C   UNL     1       5.652  -3.053   3.504  0.00  0.00    +0.201 A 
ATOM     10  N   UNL     1       4.907  -4.076   3.108  0.00  0.00    -0.142 NA
ATOM     11 CL   UNL     1       9.210   0.923   6.698  0.00  0.00    -0.083 Cl
ATOM     12  H   UNL     1       6.175  -3.569   5.454  0.00  0.00    +0.169 HD
ENDROOT
BRANCH  10  13
ATOM     13  C   UNL     1       4.763  -5.147   3.900  0.00  0.00    +0.275 C 
ATOM     14  O   UNL     1       5.238  -5.142   5.023  0.00  0.00    -0.268 OA
BRANCH  13  15
ATOM     15  C   UNL     1       4.030  -6.332   3.414  0.00  0.00    +0.102 A 
ATOM     16  C   UNL     1       3.872  -7.436   4.221  0.00  0.00    +0.100 A 
ATOM     17  N   UNL     1       3.212  -8.530   3.814  0.00  0.00    -0.360 N 
ATOM     18  H   UNL     1       3.131  -9.279   4.426  0.00  0.00    +0.165 HD
ATOM     19  C   UNL     1       2.644  -8.636   2.564  0.00  0.00    +0.050 A 
ATOM     20  C   UNL     1       1.968  -9.795   2.187  0.00  0.00    +0.026 A 
ATOM     21  C   UNL     1       1.406  -9.883   0.932  0.00  0.00    +0.002 A 
ATOM     22  C   UNL     1       1.506  -8.829   0.035  0.00  0.00    +0.001 A 
ATOM     23  C   UNL     1       2.165  -7.683   0.384  0.00  0.00    +0.014 A 
ATOM     24  C   UNL     1       2.740  -7.573   1.650  0.00  0.00    +0.046 A 
ATOM     25  C   UNL     1       3.453  -6.350   2.062  0.00  0.00    +0.202 A 
ATOM     26  O   UNL     1       3.563  -5.396   1.311  0.00  0.00    -0.286 OA
ENDBRANCH  13  15
ENDBRANCH  10  13
BRANCH   1  27
ATOM     27  C   UNL     1       5.525  -1.721   1.373  0.00  0.00    +0.125 C 
BRANCH  27  28
ATOM     28  C   UNL     1       4.193  -0.967   1.382  0.00  0.00    +0.026 C 
BRANCH  28  29
ATOM     29  C   UNL     1       3.739  -0.715  -0.057  0.00  0.00    +0.037 C 
BRANCH  29  33
ATOM     30  C   UNL     1       0.022   1.390  -0.032  0.00  0.00    +0.000 A 
ATOM     31  C   UNL     1       1.214   2.091  -0.038  0.00  0.00    +0.000 A 
ATOM     32  C   UNL     1       2.417   1.410  -0.046  0.00  0.00    +0.003 A 
ATOM     33  C   UNL     1       2.428   0.027  -0.047  0.00  0.00    -0.047 A 
ATOM     34  C   UNL     1       1.237  -0.674  -0.039  0.00  0.00    +0.003 A 
ATOM     35  C   UNL     1       0.034   0.007  -0.033  0.00  0.00    +0.000 A 
ENDBRANCH  29  33
ENDBRANCH  28  29
ENDBRANCH  27  28
ENDBRANCH   1  27
TORSDOF 6
