REMARK  Name = ZINC63330662
REMARK  4 active torsions:
REMARK  status: ('A' for Active; 'I' for Inactive)
REMARK    1  A    between atoms: C_4  and  C_7
REMARK    2  A    between atoms: C_7  and  O_8
REMARK    3  A    between atoms: O_8  and  C_9
REMARK    4  A    between atoms: C_12  and  C_15
REMARK                            x       y       z     vdW  Elec       q    Type
REMARK                         _______ _______ _______ _____ _____    ______ ____
ROOT
ATOM      1  C   UNL     1       9.022  -3.675   1.977  0.00  0.00    +0.073 C 
ATOM      2  C   UNL     1       9.997  -2.786   2.752  0.00  0.00    +0.148 C 
ATOM      3  C   UNL     1       9.564  -2.792   4.199  0.00  0.00    +0.106 C 
ATOM      4  N   UNL     1       9.283  -1.702   4.844  0.00  0.00    -0.151 NA
ATOM      5  C   UNL     1       9.331  -0.492   4.271  0.00  0.00    +0.331 C 
ATOM      6  O   UNL     1       9.080   0.493   4.940  0.00  0.00    -0.250 OA
ATOM      7  N   UNL     1       9.649  -0.339   2.975  0.00  0.00    -0.238 N 
ATOM      8  C   UNL     1       9.972  -1.391   2.199  0.00  0.00    +0.231 C 
ATOM      9  O   UNL     1      10.247  -1.212   1.032  0.00  0.00    -0.275 OA
ATOM     10  N   UNL     1       9.468  -4.018   4.799  0.00  0.00    -0.307 N 
ATOM     11  C   UNL     1       8.986  -5.071   4.055  0.00  0.00    +0.016 C 
ATOM     12  C   UNL     1       8.776  -4.961   2.732  0.00  0.00    +0.020 C 
ATOM     13  C   UNL     1       8.310  -6.063   1.987  0.00  0.00    +0.161 C 
ATOM     14  O   UNL     1       8.125  -5.937   0.793  0.00  0.00    -0.292 OA
ATOM     15  C   UNL     1       8.037  -7.391   2.635  0.00  0.00    +0.080 C 
ATOM     16  C   UNL     1       8.944  -7.543   3.862  0.00  0.00    +0.014 C 
ATOM     17  C   UNL     1       8.694  -6.361   4.785  0.00  0.00    +0.051 C 
ATOM     18  H   UNL     1       9.649   0.551   2.589  0.00  0.00    +0.159 HD
ATOM     19  H   UNL     1       9.733  -4.141   5.724  0.00  0.00    +0.153 HD
ENDROOT
BRANCH   1  23
ATOM     20  C   UNL     1       5.319  -1.605   1.466  0.00  0.00    +0.121 A 
ATOM     21  C   UNL     1       6.048  -2.007   0.357  0.00  0.00    +0.046 A 
ATOM     22  C   UNL     1       7.245  -2.676   0.525  0.00  0.00    +0.008 A 
ATOM     23  C   UNL     1       7.716  -2.945   1.797  0.00  0.00    -0.038 A 
ATOM     24  C   UNL     1       6.990  -2.545   2.904  0.00  0.00    +0.008 A 
ATOM     25  C   UNL     1       5.796  -1.871   2.742  0.00  0.00    +0.046 A 
BRANCH  20  26
ATOM     26  O   UNL     1       4.141  -0.946   1.304  0.00  0.00    -0.487 OA
BRANCH  26  27
ATOM     27  C   UNL     1       3.711  -0.707  -0.038  0.00  0.00    +0.264 C 
BRANCH  27  31
ATOM     28  C   UNL     1      -0.017   1.378   0.010  0.00  0.00    +0.000 A 
ATOM     29  C   UNL     1       1.171   2.086   0.002  0.00  0.00    +0.000 A 
ATOM     30  C   UNL     1       2.377   1.411  -0.013  0.00  0.00    +0.007 A 
ATOM     31  C   UNL     1       2.396   0.029  -0.020  0.00  0.00    -0.010 A 
ATOM     32  C   UNL     1       1.208  -0.679  -0.012  0.00  0.00    +0.007 A 
ATOM     33  C   UNL     1       0.002  -0.004   0.002  0.00  0.00    +0.000 A 
ENDBRANCH  27  31
ENDBRANCH  26  27
ENDBRANCH  20  26
ENDBRANCH   1  23
TORSDOF 4
