REMARK  Name = ZINC12602994
REMARK  9 active torsions:
REMARK  status: ('A' for Active; 'I' for Inactive)
REMARK    1  A    between atoms: C_1  and  C_2
REMARK    2  A    between atoms: N_4  and  C_5
REMARK    3  A    between atoms: C_5  and  C_6
REMARK    4  A    between atoms: C_6  and  N_7
REMARK    5  A    between atoms: N_7  and  C_8
REMARK    6  A    between atoms: C_11  and  C_34
REMARK    7  A    between atoms: C_14  and  C_30
REMARK    8  A    between atoms: C_30  and  O_32
REMARK    9  A    between atoms: O_32  and  C_33
REMARK                            x       y       z     vdW  Elec       q    Type
REMARK                         _______ _______ _______ _____ _____    ______ ____
ROOT
ATOM      1  C   UNL     1       3.264   5.763  -0.024  0.00  0.00    -0.068 C 
ATOM      2  C   UNL     1       1.940   6.436   0.346  0.00  0.00    +0.008 C 
ATOM      3  C   UNL     1       0.782   5.682  -0.314  0.00  0.00    +0.087 C 
ATOM      4  N   UNL     1       0.787   4.284   0.131  0.00  0.00    -0.274 NA
ATOM      5  C   UNL     1      -0.398   3.553  -0.332  0.00  0.00    +0.172 C 
ATOM      6  C   UNL     1      -0.547   2.254   0.470  0.00  0.00    +0.068 C 
ATOM      7  C   UNL     1       0.792   1.561   0.501  0.00  0.00    -0.016 A 
ATOM      8  C   UNL     1       1.109   0.197   0.860  0.00  0.00    +0.003 A 
ATOM      9  C   UNL     1       0.325  -0.883   1.280  0.00  0.00    +0.010 A 
ATOM     10  C   UNL     1       0.979  -2.062   1.540  0.00  0.00    +0.001 A 
ATOM     11  C   UNL     1       2.351  -2.189   1.398  0.00  0.00    +0.002 A 
ATOM     12  C   UNL     1       3.151  -1.139   0.983  0.00  0.00    +0.026 A 
ATOM     13  C   UNL     1       2.515   0.070   0.711  0.00  0.00    +0.047 A 
ATOM     14  N   UNL     1       2.990   1.280   0.291  0.00  0.00    -0.356 N 
ATOM     15  H   UNL     1       4.066   1.414   0.108  0.00  0.00    +0.166 HD
ATOM     16  C   UNL     1       1.956   2.167   0.168  0.00  0.00    +0.038 A 
ATOM     17  C   UNL     1       2.032   3.609  -0.266  0.00  0.00    +0.103 C 
ATOM     18  C   UNL     1       3.223   4.293   0.406  0.00  0.00    +0.009 C 
ENDROOT
BRANCH   3  19
ATOM     19  C   UNL     1       0.941   5.725  -1.812  0.00  0.00    -0.029 A 
ATOM     20  C   UNL     1       1.048   6.941  -2.461  0.00  0.00    +0.005 A 
ATOM     21  C   UNL     1       1.194   6.981  -3.834  0.00  0.00    +0.002 A 
ATOM     22  C   UNL     1       1.234   5.806  -4.560  0.00  0.00    +0.020 A 
ATOM     23  C   UNL     1       1.128   4.589  -3.912  0.00  0.00    +0.041 A 
ATOM     24  C   UNL     1       0.987   4.549  -2.535  0.00  0.00    +0.025 A 
ATOM     25 CL   UNL     1       1.178   3.112  -4.822  0.00  0.00    -0.084 Cl
ENDBRANCH   3  19
BRANCH   1  26
ATOM     26  N   UNL     1       3.465   5.843  -1.477  0.00  0.00    +0.382 N 
ATOM     27  H   UNL     1       2.489   5.749  -1.974  0.00  0.00    -0.085 HD
ATOM     28  H   UNL     1       4.116   5.013  -1.789  0.00  0.00    -0.085 HD
BRANCH  26  29
ATOM     29  C   UNL     1       4.086   7.120  -1.853  0.00  0.00    -0.063 C 
BRANCH  29  30
ATOM     30  C   UNL     1       4.280   7.166  -3.370  0.00  0.00    +0.085 C 
BRANCH  30  34
ATOM     31  C   UNL     1       5.802  10.014  -5.425  0.00  0.00    +0.109 C 
ATOM     32  C   UNL     1       5.166   8.704  -5.039  0.00  0.00    +0.210 C 
ATOM     33  O   UNL     1       4.894   7.887  -5.893  0.00  0.00    -0.276 OA
ATOM     34  N   UNL     1       4.899   8.440  -3.744  0.00  0.00    -0.317 N 
ATOM     35  H   UNL     1       5.145   9.180  -2.970  0.00  0.00    +0.149 HD
ENDBRANCH  30  34
ENDBRANCH  29  30
ENDBRANCH  26  29
ENDBRANCH   1  26
BRANCH   5  36
ATOM     36  C   UNL     1      -1.623   4.408  -0.138  0.00  0.00    +0.325 C 
ATOM     37  O   UNL     1      -2.511   4.386  -0.957  0.00  0.00    -0.249 OA
BRANCH  36  38
ATOM     38  O   UNL     1      -1.728   5.195   0.945  0.00  0.00    -0.467 OA
ATOM     39  C   UNL     1      -2.936   5.991   1.066  0.00  0.00    +0.280 C 
ENDBRANCH  36  38
ENDBRANCH   5  36
TORSDOF 7
