REMARK  Name = ZINC35378075
REMARK  8 active torsions:
REMARK  status: ('A' for Active; 'I' for Inactive)
REMARK    1  A    between atoms: C_1  and  C_2
REMARK    2  A    between atoms: C_4  and  N_10
REMARK    3  A    between atoms: C_5  and  C_9
REMARK    4  A    between atoms: N_10  and  S_11
REMARK    5  A    between atoms: S_11  and  C_14
REMARK    6  A    between atoms: C_16  and  C_22
REMARK    7  A    between atoms: C_19  and  O_20
REMARK    8  A    between atoms: O_20  and  C_21
REMARK                            x       y       z     vdW  Elec       q    Type
REMARK                         _______ _______ _______ _____ _____    ______ ____
ROOT
ATOM      1  C   UNL     1       2.572  -2.199  -3.287  0.00  0.00    +0.150 A 
ATOM      2  C   UNL     1       3.296  -3.041  -4.105  0.00  0.00    +0.042 A 
ATOM      3  C   UNL     1       4.674  -3.165  -3.929  0.00  0.00    +0.004 A 
ATOM      4  C   UNL     1       5.315  -2.438  -2.928  0.00  0.00    +0.014 A 
ATOM      5  C   UNL     1       4.585  -1.598  -2.113  0.00  0.00    +0.048 A 
ATOM      6  C   UNL     1       3.214  -1.472  -2.294  0.00  0.00    +0.147 A 
ENDROOT
BRANCH   3   7
ATOM      7  C   UNL     1       5.456  -4.070  -4.807  0.00  0.00    +0.091 A 
ATOM      8  C   UNL     1       6.853  -4.193  -4.625  0.00  0.00    +0.035 A 
ATOM      9  C   UNL     1       7.539  -5.035  -5.450  0.00  0.00    +0.073 A 
ATOM     10  C   UNL     1       6.810  -5.733  -6.438  0.00  0.00    +0.265 A 
ATOM     11  O   UNL     1       7.381  -6.498  -7.198  0.00  0.00    -0.266 OA
ATOM     12  N   UNL     1       5.479  -5.550  -6.533  0.00  0.00    -0.243 N 
ATOM     13  N   UNL     1       4.848  -4.757  -5.745  0.00  0.00    -0.171 NA
ATOM     14  H   UNL     1       4.984  -6.032  -7.213  0.00  0.00    +0.192 HD
ENDBRANCH   3   7
BRANCH   1  15
ATOM     15  S   UNL     1       0.831  -2.040  -3.509  0.00  0.00    +0.076 S 
ATOM     16  O   UNL     1       0.470  -2.943  -4.544  0.00  0.00    -0.150 OA
ATOM     17  O   UNL     1       0.556  -0.648  -3.581  0.00  0.00    -0.150 OA
BRANCH  15  18
ATOM     18  N   UNL     1       0.109  -2.594  -2.125  0.00  0.00    -0.216 N 
ATOM     19  H   UNL     1      -0.361  -1.977  -1.543  0.00  0.00    +0.174 HD
BRANCH  18  23
ATOM     20  C   UNL     1       2.625  -6.816  -2.087  0.00  0.00    +0.045 C 
ATOM     21  C   UNL     1       1.385  -6.022  -1.765  0.00  0.00    -0.035 A 
ATOM     22  C   UNL     1       1.321  -4.681  -2.092  0.00  0.00    +0.029 A 
ATOM     23  C   UNL     1       0.178  -3.950  -1.796  0.00  0.00    +0.051 A 
ATOM     24  C   UNL     1      -0.897  -4.570  -1.171  0.00  0.00    -0.027 A 
ATOM     25  C   UNL     1      -0.827  -5.910  -0.847  0.00  0.00    +0.020 A 
ATOM     26  C   UNL     1       0.311  -6.638  -1.148  0.00  0.00    +0.021 A 
ATOM     27 BR   UNL     1       0.401  -8.475  -0.709  0.00  0.00    -0.050 Br
ATOM     28  C   UNL     1      -2.139  -3.780  -0.847  0.00  0.00    +0.046 C 
ENDBRANCH  18  23
ENDBRANCH  15  18
ENDBRANCH   1  15
BRANCH   6  29
ATOM     29  O   UNL     1       2.498  -0.639  -1.494  0.00  0.00    -0.493 OA
ATOM     30  C   UNL     1       3.234   0.157  -0.562  0.00  0.00    +0.277 C 
ENDBRANCH   6  29
TORSDOF 5
