REMARK  Name = ZINC21584752
REMARK  9 active torsions:
REMARK  status: ('A' for Active; 'I' for Inactive)
REMARK    1  A    between atoms: C_1  and  C_2
REMARK    2  A    between atoms: N_11  and  C_12
REMARK    3  A    between atoms: C_12  and  C_13
REMARK    4  A    between atoms: N_15  and  C_16
REMARK    5  A    between atoms: C_17  and  C_25
REMARK    6  A    between atoms: N_27  and  C_28
REMARK    7  A    between atoms: C_28  and  C_29
REMARK    8  A    between atoms: C_29  and  O_30
REMARK    9  A    between atoms: O_30  and  C_31
REMARK                            x       y       z     vdW  Elec       q    Type
REMARK                         _______ _______ _______ _____ _____    ______ ____
ROOT
ATOM      1  C   UNL     1      -3.071   0.511  -1.167  0.00  0.00    +0.084 A 
ATOM      2  C   UNL     1      -2.447   0.874   0.018  0.00  0.00    +0.069 A 
ATOM      3  C   UNL     1      -3.086   0.476   1.262  0.00  0.00    -0.023 A 
ATOM      4  C   UNL     1      -4.243  -0.205   1.121  0.00  0.00    -0.004 A 
ATOM      5  S   UNL     1      -4.483  -0.335  -0.628  0.00  0.00    -0.077 S 
ATOM      6  C   UNL     1      -5.117  -0.736   2.216  0.00  0.00    +0.043 C 
ATOM      7  C   UNL     1      -4.319  -0.710   3.528  0.00  0.00    +0.005 C 
ATOM      8  C   UNL     1      -3.652   0.661   3.672  0.00  0.00    +0.005 C 
ATOM      9  C   UNL     1      -2.531   0.805   2.642  0.00  0.00    +0.037 C 
ENDROOT
BRANCH   1  12
ATOM     10  C   UNL     1      -3.406   0.329  -3.504  0.00  0.00    +0.201 C 
ATOM     11  O   UNL     1      -4.432  -0.283  -3.300  0.00  0.00    -0.278 OA
ATOM     12  N   UNL     1      -2.662   0.764  -2.468  0.00  0.00    -0.281 N 
ATOM     13  H   UNL     1      -1.731   1.320  -2.654  0.00  0.00    +0.155 HD
BRANCH  10  14
ATOM     14  C   UNL     1      -2.961   0.604  -4.918  0.00  0.00    +0.020 C 
BRANCH  14  24
ATOM     15  C   UNL     1      -2.142  -0.814  -7.298  0.00  0.00    -0.008 C 
ATOM     16  C   UNL     1      -3.410   0.039  -7.229  0.00  0.00    -0.039 C 
ATOM     17  C   UNL     1      -4.471  -0.542  -8.159  0.00  0.00    -0.051 A 
ATOM     18  C   UNL     1      -4.201  -1.028  -9.437  0.00  0.00    +0.010 A 
ATOM     19  C   UNL     1      -5.202  -1.532 -10.195  0.00  0.00    +0.045 A 
ATOM     20  S   UNL     1      -6.614  -1.339  -9.116  0.00  0.00    -0.101 S 
ATOM     21  C   UNL     1      -5.767  -0.606  -7.745  0.00  0.00    -0.010 A 
ATOM     22  C   UNL     1      -6.306  -0.150  -6.429  0.00  0.00    +0.024 C 
ATOM     23  C   UNL     1      -5.230   0.720  -5.758  0.00  0.00    -0.072 C 
ATOM     24  N   UNL     1      -3.935   0.032  -5.857  0.00  0.00    +0.390 N 
ATOM     25  H   UNL     1      -4.104  -1.020  -5.582  0.00  0.00    -0.080 HD
ENDBRANCH  14  24
ENDBRANCH  10  14
ENDBRANCH   1  12
BRANCH   2  26
ATOM     26  C   UNL     1      -1.187   1.624   0.017  0.00  0.00    +0.247 C 
ATOM     27  O   UNL     1      -1.204   2.841   0.023  0.00  0.00    -0.270 OA
ATOM     28  N   UNL     1      -0.011   0.966   0.007  0.00  0.00    -0.309 N 
ATOM     29  H   UNL     1       0.004  -0.134   0.006  0.00  0.00    +0.149 HD
BRANCH  28  30
ATOM     30  C   UNL     1       1.248   1.716  -0.001  0.00  0.00    +0.132 C 
BRANCH  30  31
ATOM     31  C   UNL     1       2.424   0.737  -0.017  0.00  0.00    +0.178 C 
BRANCH  31  32
ATOM     32  O   UNL     1       2.414   0.001  -1.242  0.00  0.00    -0.381 OA
ATOM     33  C   UNL     1       3.478  -0.946  -1.360  0.00  0.00    +0.194 C 
ENDBRANCH  31  32
ENDBRANCH  30  31
ENDBRANCH  28  30
ENDBRANCH   2  26
TORSDOF 7
