REMARK  Name = ZINC59287158
REMARK  10 active torsions:
REMARK  status: ('A' for Active; 'I' for Inactive)
REMARK    1  A    between atoms: C_1  and  C_2
REMARK    2  A    between atoms: C_2  and  C_3
REMARK    3  A    between atoms: C_2  and  C_4
REMARK    4  A    between atoms: C_2  and  C_5
REMARK    5  A    between atoms: C_5  and  C_7
REMARK    6  A    between atoms: C_5  and  N_18
REMARK    7  A    between atoms: C_7  and  N_8
REMARK    8  A    between atoms: C_19  and  C_21
REMARK    9  A    between atoms: C_27  and  C_29
REMARK   10  A    between atoms: C_30  and  C_31
REMARK                            x       y       z     vdW  Elec       q    Type
REMARK                         _______ _______ _______ _____ _____    ______ ____
ROOT
ATOM      1  N   UNL     1       0.724  -1.954  -1.254  0.00  0.00    -0.314 N 
ATOM      2  C   UNL     1      -0.327  -2.641  -1.742  0.00  0.00    +0.216 C 
ATOM      3  O   UNL     1      -1.293  -2.047  -2.173  0.00  0.00    -0.276 OA
ATOM      4  H   UNL     1       1.496  -2.429  -0.909  0.00  0.00    +0.149 HD
ENDROOT
BRANCH   2   5
ATOM      5  C   UNL     1      -0.303  -4.148  -1.753  0.00  0.00    +0.078 C 
ATOM      6  C   UNL     1      -0.154  -4.666  -0.321  0.00  0.00    +0.032 C 
ATOM      7  C   UNL     1      -0.095  -6.197  -0.339  0.00  0.00    +0.109 C 
ATOM      8  N   UNL     1      -1.278  -6.707  -1.046  0.00  0.00    -0.298 N 
ATOM      9  C   UNL     1      -1.565  -6.205  -2.396  0.00  0.00    +0.109 C 
ATOM     10  C   UNL     1      -1.608  -4.675  -2.355  0.00  0.00    +0.032 C 
ATOM     11  C   UNL     1      -2.084  -7.619  -0.466  0.00  0.00    +0.239 C 
ATOM     12  O   UNL     1      -1.785  -8.096   0.613  0.00  0.00    -0.271 OA
BRANCH  11  13
ATOM     13  C   UNL     1      -3.318  -8.035  -1.134  0.00  0.00    +0.068 C 
ATOM     14  C   UNL     1      -4.176  -8.866  -0.509  0.00  0.00    +0.013 C 
BRANCH  14  15
ATOM     15  C   UNL     1      -5.418  -9.284  -1.180  0.00  0.00    -0.025 A 
ATOM     16  C   UNL     1      -5.708  -8.826  -2.469  0.00  0.00    +0.008 A 
ATOM     17  C   UNL     1      -6.873  -9.222  -3.092  0.00  0.00    +0.001 A 
ATOM     18  C   UNL     1      -7.753 -10.071  -2.445  0.00  0.00    +0.000 A 
ATOM     19  C   UNL     1      -7.473 -10.528  -1.169  0.00  0.00    +0.001 A 
ATOM     20  C   UNL     1      -6.310 -10.146  -0.535  0.00  0.00    +0.008 A 
ENDBRANCH  14  15
ENDBRANCH  11  13
ENDBRANCH   2   5
BRANCH   1  21
ATOM     21  C   UNL     1       0.701  -0.489  -1.243  0.00  0.00    +0.062 C 
BRANCH  21  23
ATOM     22  C   UNL     1      -0.042   1.530   0.028  0.00  0.00    +0.012 C 
ATOM     23  C   UNL     1      -0.017   0.000   0.016  0.00  0.00    -0.021 C 
ATOM     24  C   UNL     1       0.724  -0.507   1.255  0.00  0.00    +0.012 C 
ATOM     25  C   UNL     1      -1.451  -0.533   0.026  0.00  0.00    +0.012 C 
ENDBRANCH  21  23
BRANCH  21  26
ATOM     26  C   UNL     1       2.135   0.044  -1.252  0.00  0.00    -0.055 C 
BRANCH  26  27
ATOM     27  N   UNL     1       2.860  -0.522  -2.398  0.00  0.00    +0.384 N 
ATOM     28  C   UNL     1       4.267  -0.097  -2.348  0.00  0.00    -0.074 C 
ATOM     29  C   UNL     1       5.064  -0.929  -3.353  0.00  0.00    +0.017 C 
ATOM     30  C   UNL     1       4.385  -0.893  -4.698  0.00  0.00    -0.048 A 
ATOM     31  C   UNL     1       5.104  -1.283  -5.817  0.00  0.00    +0.004 A 
ATOM     32  C   UNL     1       4.514  -1.266  -7.065  0.00  0.00    +0.000 A 
ATOM     33  C   UNL     1       3.200  -0.857  -7.199  0.00  0.00    +0.000 A 
ATOM     34  C   UNL     1       2.484  -0.467  -6.086  0.00  0.00    +0.002 A 
ATOM     35  C   UNL     1       3.076  -0.482  -4.831  0.00  0.00    -0.061 A 
ATOM     36  C   UNL     1       2.260  -0.040  -3.645  0.00  0.00    -0.043 C 
ATOM     37  H   UNL     1       2.809  -1.529  -2.366  0.00  0.00    -0.081 HD
ENDBRANCH  26  27
ENDBRANCH  21  26
ENDBRANCH   1  21
TORSDOF 7
