REMARK  Name = ZINC09747586
REMARK  11 active torsions:
REMARK  status: ('A' for Active; 'I' for Inactive)
REMARK    1  A    between atoms: C_1  and  C_2
REMARK    2  A    between atoms: C_2  and  C_3
REMARK    3  A    between atoms: C_3  and  C_4
REMARK    4  A    between atoms: C_4  and  N_70
REMARK    5  A    between atoms: C_5  and  C_6
REMARK    6  A    between atoms: C_5  and  N_70
REMARK    7  A    between atoms: C_7  and  C_8
REMARK    8  A    between atoms: C_7  and  N_70
REMARK    9  A    between atoms: C_11  and  C_13
REMARK   10  A    between atoms: C_13  and  N_14
REMARK   11  A    between atoms: C_15  and  C_17
REMARK                            x       y       z     vdW  Elec       q    Type
REMARK                         _______ _______ _______ _____ _____    ______ ____
ROOT
ATOM      1  N   UNL     1      -2.600   4.979   3.260  0.00  0.00    -0.308 N 
ATOM      2  C   UNL     1      -2.342   6.136   3.902  0.00  0.00    +0.218 C 
ATOM      3  O   UNL     1      -1.599   6.953   3.402  0.00  0.00    -0.275 OA
ATOM      4  H   UNL     1      -3.194   4.324   3.660  0.00  0.00    +0.149 HD
ENDROOT
BRANCH   2   5
ATOM      5  C   UNL     1      -2.976   6.413   5.240  0.00  0.00    +0.092 C 
ATOM      6  C   UNL     1      -2.521   7.784   5.747  0.00  0.00    +0.016 C 
ATOM      7  C   UNL     1      -3.216   8.084   7.078  0.00  0.00    +0.020 C 
ATOM      8  C   UNL     1      -4.733   8.030   6.880  0.00  0.00    +0.107 C 
ATOM      9  N   UNL     1      -5.117   6.699   6.395  0.00  0.00    -0.307 N 
ATOM     10  C   UNL     1      -4.499   6.408   5.095  0.00  0.00    +0.119 C 
ATOM     11  C   UNL     1      -6.499   6.573   6.328  0.00  0.00    +0.186 A 
ATOM     12  N   UNL     1      -7.261   6.250   5.301  0.00  0.00    -0.124 NA
ATOM     13  N   UNL     1      -8.626   6.183   5.455  0.00  0.00    -0.124 NA
ATOM     14  C   UNL     1      -9.167   6.441   6.629  0.00  0.00    +0.192 A 
ATOM     15  S   UNL     1      -7.720   6.799   7.613  0.00  0.00    -0.015 S 
ATOM     16  N   UNL     1     -10.508   6.432   7.004  0.00  0.00    -0.249 N 
ATOM     17  C   UNL     1     -11.619   6.112   6.099  0.00  0.00    +0.116 C 
ATOM     18  C   UNL     1     -12.889   6.643   6.801  0.00  0.00    +0.029 C 
ATOM     19  C   UNL     1     -12.461   6.617   8.287  0.00  0.00    +0.098 C 
ATOM     20  C   UNL     1     -10.952   6.709   8.243  0.00  0.00    +0.221 C 
ATOM     21  O   UNL     1     -10.245   6.993   9.186  0.00  0.00    -0.275 OA
ENDBRANCH   2   5
BRANCH   1  22
ATOM     22  C   UNL     1      -1.984   4.709   1.959  0.00  0.00    +0.178 C 
BRANCH  22  26
ATOM     23  C   UNL     1      -2.493   1.197   1.100  0.00  0.00    +0.089 A 
ATOM     24  C   UNL     1      -3.555   1.728   0.469  0.00  0.00    +0.043 A 
ATOM     25  C   UNL     1      -3.516   3.122   0.701  0.00  0.00    +0.046 A 
ATOM     26  C   UNL     1      -2.432   3.359   1.461  0.00  0.00    +0.122 A 
ATOM     27  O   UNL     1      -1.819   2.189   1.704  0.00  0.00    -0.465 OA
BRANCH  23  28
ATOM     28  C   UNL     1      -2.125  -0.264   1.130  0.00  0.00    -0.003 C 
BRANCH  28  29
ATOM     29  N   UNL     1      -1.294  -0.568  -0.055  0.00  0.00    +0.384 N 
ATOM     30  H   UNL     1      -1.691  -0.088  -0.872  0.00  0.00    -0.081 HD
BRANCH  29  31
ATOM     31  C   UNL     1       0.087  -0.087   0.161  0.00  0.00    -0.082 C 
ATOM     32  C   UNL     1       0.754  -0.864   1.297  0.00  0.00    -0.017 C 
ENDBRANCH  29  31
BRANCH  29  33
ATOM     33  C   UNL     1      -1.289  -2.024  -0.308  0.00  0.00    -0.078 C 
BRANCH  33  34
ATOM     34  C   UNL     1      -0.614  -2.287  -1.656  0.00  0.00    -0.019 C 
BRANCH  34  36
ATOM     35  C   UNL     1       0.054  -4.053  -3.292  0.00  0.00    +0.004 C 
ATOM     36  C   UNL     1      -0.620  -3.790  -1.944  0.00  0.00    -0.005 C 
ENDBRANCH  34  36
ENDBRANCH  33  34
ENDBRANCH  29  33
ENDBRANCH  28  29
ENDBRANCH  23  28
ENDBRANCH  22  26
ENDBRANCH   1  22
TORSDOF 9
