REMARK  Name = ZINC09725620
REMARK  11 active torsions:
REMARK  status: ('A' for Active; 'I' for Inactive)
REMARK    1  A    between atoms: C_1  and  C_2
REMARK    2  A    between atoms: C_2  and  N_3
REMARK    3  A    between atoms: N_3  and  C_4
REMARK    4  A    between atoms: N_3  and  C_6
REMARK    5  A    between atoms: C_4  and  C_5
REMARK    6  A    between atoms: C_9  and  C_12
REMARK    7  A    between atoms: C_12  and  N_14
REMARK    8  A    between atoms: N_16  and  C_28
REMARK    9  A    between atoms: C_20  and  S_24
REMARK   10  A    between atoms: S_24  and  N_27
REMARK   11  A    between atoms: C_28  and  C_29
REMARK                            x       y       z     vdW  Elec       q    Type
REMARK                         _______ _______ _______ _____ _____    ______ ____
ROOT
ATOM      1  N   UNL     1      -5.184  -2.698  -2.916  0.00  0.00    -0.152 NA
ATOM      2  C   UNL     1      -6.156  -3.426  -3.453  0.00  0.00    +0.167 A 
ATOM      3  N   UNL     1      -6.629  -4.635  -3.045  0.00  0.00    -0.317 N 
ATOM      4  C   UNL     1      -7.658  -5.246  -3.737  0.00  0.00    +0.058 A 
ATOM      5  C   UNL     1      -8.274  -6.479  -3.472  0.00  0.00    +0.029 A 
ATOM      6  C   UNL     1      -9.293  -6.942  -4.271  0.00  0.00    +0.030 A 
ATOM      7  C   UNL     1      -9.744  -6.210  -5.356  0.00  0.00    +0.106 A 
ATOM      8  C   UNL     1      -9.155  -4.990  -5.640  0.00  0.00    +0.045 A 
ATOM      9  C   UNL     1      -8.135  -4.527  -4.843  0.00  0.00    +0.041 A 
ATOM     10  S   UNL     1      -7.133  -3.061  -4.839  0.00  0.00    -0.052 S 
ENDROOT
BRANCH   7  11
ATOM     11  S   UNL     1     -11.053  -6.823  -6.364  0.00  0.00    +0.056 S 
ATOM     12  O   UNL     1     -11.794  -7.730  -5.559  0.00  0.00    -0.153 OA
ATOM     13  O   UNL     1     -11.649  -5.694  -6.986  0.00  0.00    -0.153 OA
BRANCH  11  14
ATOM     14  N   UNL     1     -10.361  -7.720  -7.572  0.00  0.00    -0.204 NA
ATOM     15  H   UNL     1     -10.842  -8.469  -7.957  0.00  0.00    +0.144 HD
ATOM     16  H   UNL     1      -9.474  -7.495  -7.896  0.00  0.00    +0.144 HD
ENDBRANCH  11  14
ENDBRANCH   7  11
BRANCH   1  17
ATOM     17  C   UNL     1      -4.851  -1.522  -3.459  0.00  0.00    +0.269 C 
ATOM     18  O   UNL     1      -5.441  -1.118  -4.447  0.00  0.00    -0.268 OA
BRANCH  17  22
ATOM     19  C   UNL     1      -1.740   0.808  -1.741  0.00  0.00    +0.030 A 
ATOM     20  C   UNL     1      -2.081  -0.418  -1.179  0.00  0.00    +0.024 A 
ATOM     21  C   UNL     1      -3.093  -1.172  -1.730  0.00  0.00    +0.015 A 
ATOM     22  C   UNL     1      -3.769  -0.711  -2.862  0.00  0.00    +0.039 A 
ATOM     23  C   UNL     1      -3.421   0.518  -3.428  0.00  0.00    +0.015 A 
ATOM     24  C   UNL     1      -2.412   1.270  -2.869  0.00  0.00    +0.024 A 
BRANCH  19  25
ATOM     25  N   UNL     1      -0.721   1.571  -1.179  0.00  0.00    -0.330 N 
BRANCH  25  27
ATOM     26  C   UNL     1      -0.729   1.579   1.267  0.00  0.00    +0.024 C 
ATOM     27  C   UNL     1      -0.013   1.086   0.008  0.00  0.00    +0.102 C 
ENDBRANCH  25  27
BRANCH  25  28
ATOM     28  C   UNL     1      -0.357   2.860  -1.774  0.00  0.00    +0.102 C 
ATOM     29  C   UNL     1       0.732   2.646  -2.826  0.00  0.00    +0.024 C 
ENDBRANCH  25  28
ENDBRANCH  19  25
ENDBRANCH  17  22
ENDBRANCH   1  17
BRANCH   3  30
ATOM     30  C   UNL     1      -6.047  -5.290  -1.871  0.00  0.00    +0.151 C 
BRANCH  30  31
ATOM     31  C   UNL     1      -4.598  -4.895  -1.742  0.00  0.00    -0.013 C 
ATOM     32  C   UNL     1      -4.160  -4.367  -0.627  0.00  0.00    +0.005 C 
ENDBRANCH  30  31
ENDBRANCH   3  30
TORSDOF 9
