REMARK  Name = ZINC39437137
REMARK  10 active torsions:
REMARK  status: ('A' for Active; 'I' for Inactive)
REMARK    1  A    between atoms: C_1  and  C_2
REMARK    2  A    between atoms: C_2  and  C_4
REMARK    3  A    between atoms: C_2  and  N_16
REMARK    4  A    between atoms: C_7  and  C_10
REMARK    5  A    between atoms: N_16  and  C_17
REMARK    6  A    between atoms: C_18  and  C_20
REMARK    7  A    between atoms: N_23  and  C_38
REMARK    8  A    between atoms: C_25  and  C_28
REMARK    9  A    between atoms: N_30  and  C_31
REMARK   10  A    between atoms: C_31  and  C_32
REMARK                            x       y       z     vdW  Elec       q    Type
REMARK                         _______ _______ _______ _____ _____    ______ ____
ROOT
ATOM      1  C   UNL     1       0.804  -1.777   3.299  0.00  0.00    +0.161 C 
ATOM      2  C   UNL     1      -0.138  -2.628   4.154  0.00  0.00    +0.136 C 
ATOM      3  N   UNL     1       0.400  -2.824   5.490  0.00  0.00    -0.375 N 
ATOM      4  C   UNL     1       1.273  -2.124   6.065  0.00  0.00    +0.074 C 
ATOM      5  C   UNL     1       1.959  -0.939   5.444  0.00  0.00    +0.180 C 
ATOM      6  C   UNL     1       1.257  -0.601   4.145  0.00  0.00    +0.164 C 
ATOM      7  O   UNL     1       1.067   0.541   3.802  0.00  0.00    -0.295 OA
ENDROOT
BRANCH   1  10
ATOM      8  N   UNL     1       0.711  -0.489   1.189  0.00  0.00    -0.299 N 
ATOM      9  C   UNL     1       2.110  -0.118   1.409  0.00  0.00    +0.132 C 
ATOM     10  C   UNL     1       0.075  -1.278   2.078  0.00  0.00    +0.228 C 
ATOM     11  O   UNL     1      -1.084  -1.586   1.895  0.00  0.00    -0.275 OA
BRANCH   8  13
ATOM     12  C   UNL     1      -0.019   1.526   0.010  0.00  0.00    +0.030 C 
ATOM     13  C   UNL     1       0.002  -0.004   0.002  0.00  0.00    +0.103 C 
BRANCH  13  14
ATOM     14  C   UNL     1       0.718  -0.497  -1.257  0.00  0.00    +0.173 C 
ATOM     15  C   UNL     1      -0.089  -0.164  -2.499  0.00  0.00    +0.033 C 
ATOM     16  C   UNL     1      -0.371  -1.368  -3.033  0.00  0.00    +0.091 C 
ATOM     17  N   UNL     1       0.162  -2.361  -2.273  0.00  0.00    -0.154 NA
ATOM     18  N   UNL     1       0.780  -1.968  -1.277  0.00  0.00    -0.178 NA
BRANCH  16  19
ATOM     19  C   UNL     1      -1.153  -1.580  -4.276  0.00  0.00    +0.002 A 
ATOM     20  C   UNL     1      -1.652  -0.488  -4.984  0.00  0.00    +0.010 A 
ATOM     21  C   UNL     1      -2.378  -0.691  -6.139  0.00  0.00    +0.001 A 
ATOM     22  C   UNL     1      -2.612  -1.976  -6.595  0.00  0.00    +0.000 A 
ATOM     23  C   UNL     1      -2.120  -3.064  -5.897  0.00  0.00    +0.001 A 
ATOM     24  C   UNL     1      -1.387  -2.872  -4.743  0.00  0.00    +0.010 A 
ENDBRANCH  16  19
ENDBRANCH  13  14
ENDBRANCH   8  13
ENDBRANCH   1  10
BRANCH   5  25
ATOM     25  C   UNL     1       1.884   0.238   6.382  0.00  0.00    +0.229 C 
ATOM     26  O   UNL     1       1.332   1.259   6.030  0.00  0.00    -0.275 OA
ATOM     27  N   UNL     1       2.430   0.156   7.611  0.00  0.00    -0.310 N 
ATOM     28  H   UNL     1       2.871  -0.660   7.893  0.00  0.00    +0.149 HD
BRANCH  27  29
ATOM     29  C   UNL     1       2.356   1.301   8.523  0.00  0.00    +0.139 C 
BRANCH  29  30
ATOM     30  C   UNL     1       3.036   0.953   9.822  0.00  0.00    -0.030 A 
ATOM     31  C   UNL     1       2.312   0.376  10.849  0.00  0.00    +0.005 A 
ATOM     32  C   UNL     1       2.936   0.057  12.040  0.00  0.00    +0.000 A 
ATOM     33  C   UNL     1       4.284   0.314  12.205  0.00  0.00    +0.000 A 
ATOM     34  C   UNL     1       5.009   0.889  11.178  0.00  0.00    +0.000 A 
ATOM     35  C   UNL     1       4.386   1.204   9.985  0.00  0.00    +0.005 A 
ENDBRANCH  29  30
ENDBRANCH  27  29
ENDBRANCH   5  25
BRANCH   3  36
ATOM     36  C   UNL     1      -0.133  -3.958   6.249  0.00  0.00    +0.082 C 
ATOM     37  C   UNL     1      -1.042  -4.941   5.508  0.00  0.00    +0.026 C 
ATOM     38  C   UNL     1      -1.636  -3.974   6.535  0.00  0.00    +0.026 C 
ENDBRANCH   3  36
TORSDOF 8
