REMARK  Name = ZINC08297780
REMARK  7 active torsions:
REMARK  status: ('A' for Active; 'I' for Inactive)
REMARK    1  A    between atoms: C_1  and  C_2
REMARK    2  A    between atoms: C_2  and  C_3
REMARK    3  A    between atoms: C_2  and  C_4
REMARK    4  A    between atoms: C_2  and  C_5
REMARK    5  A    between atoms: C_5  and  C_6
REMARK    6  A    between atoms: N_8  and  C_9
REMARK    7  A    between atoms: C_20  and  C_27
REMARK                            x       y       z     vdW  Elec       q    Type
REMARK                         _______ _______ _______ _____ _____    ______ ____
ROOT
ATOM      1  C   UNL     1       1.248   1.716  -0.001  0.00  0.00    +0.092 C 
ATOM      2  C   UNL     1       2.403   0.869   0.596  0.00  0.00    +0.055 C 
ATOM      3  C   UNL     1       3.653   1.466  -0.082  0.00  0.00    +0.164 C 
ATOM      4  C   UNL     1       4.598   0.353  -0.455  0.00  0.00    +0.238 C 
ATOM      5  O   UNL     1       4.314  -0.788  -0.161  0.00  0.00    -0.273 OA
ATOM      6  N   UNL     1       5.735   0.594  -1.100  0.00  0.00    -0.283 N 
ATOM      7  C   UNL     1       6.235   1.831  -1.462  0.00  0.00    +0.046 A 
ATOM      8  C   UNL     1       7.608   2.037  -1.276  0.00  0.00    +0.024 A 
ATOM      9  C   UNL     1       8.196   3.229  -1.621  0.00  0.00    +0.010 A 
ATOM     10  C   UNL     1       7.425   4.258  -2.165  0.00  0.00    -0.017 A 
ATOM     11  C   UNL     1       6.064   4.073  -2.350  0.00  0.00    +0.023 A 
ATOM     12  C   UNL     1       5.458   2.860  -1.993  0.00  0.00    +0.059 A 
ATOM     13  C   UNL     1       4.005   2.744  -2.196  0.00  0.00    +0.249 C 
ATOM     14  O   UNL     1       3.513   3.237  -3.192  0.00  0.00    -0.270 OA
ATOM     15  N   UNL     1       3.205   2.115  -1.326  0.00  0.00    -0.284 N 
ATOM     16  C   UNL     1       1.747   1.947  -1.449  0.00  0.00    +0.131 C 
ATOM     17  H   UNL     1       6.270  -0.178  -1.341  0.00  0.00    +0.155 HD
ENDROOT
BRANCH  10  18
ATOM     18  C   UNL     1       8.061   5.544  -2.545  0.00  0.00    -0.014 A 
ATOM     19  C   UNL     1       7.290   6.570  -3.088  0.00  0.00    +0.012 A 
ATOM     20  C   UNL     1       7.881   7.766  -3.441  0.00  0.00    +0.050 A 
ATOM     21  C   UNL     1       9.243   7.952  -3.256  0.00  0.00    +0.166 A 
ATOM     22  C   UNL     1      10.019   6.929  -2.712  0.00  0.00    +0.167 A 
ATOM     23  C   UNL     1       9.428   5.731  -2.353  0.00  0.00    +0.058 A 
ATOM     24  O   UNL     1      11.313   7.357  -2.635  0.00  0.00    -0.453 OA
ATOM     25  C   UNL     1      11.251   8.791  -2.753  0.00  0.00    +0.466 C 
ATOM     26  O   UNL     1      10.052   9.020  -3.518  0.00  0.00    -0.453 OA
ENDBRANCH  10  18
BRANCH   1  29
ATOM     27  C   UNL     1      -1.187   1.624   0.017  0.00  0.00    +0.214 C 
ATOM     28  O   UNL     1      -1.204   2.837   0.023  0.00  0.00    -0.276 OA
ATOM     29  N   UNL     1      -0.011   0.966   0.007  0.00  0.00    -0.311 N 
ATOM     30  H   UNL     1       0.002  -0.004   0.002  0.00  0.00    +0.149 HD
BRANCH  27  31
ATOM     31  C   UNL     1      -2.482   0.853   0.018  0.00  0.00    +0.102 C 
BRANCH  31  33
ATOM     32  C   UNL     1      -3.595   2.718  -1.215  0.00  0.00    +0.011 C 
ATOM     33  C   UNL     1      -3.658   1.831   0.029  0.00  0.00    -0.029 C 
ATOM     34  C   UNL     1      -4.973   1.048   0.031  0.00  0.00    +0.011 C 
ATOM     35  C   UNL     1      -3.583   2.705   1.283  0.00  0.00    +0.011 C 
ENDBRANCH  31  33
ENDBRANCH  27  31
ENDBRANCH   1  29
TORSDOF 4
