REMARK  Name = ZINC13639636
REMARK  3 active torsions:
REMARK  status: ('A' for Active; 'I' for Inactive)
REMARK    1  A    between atoms: C_3  and  C_9
REMARK    2  A    between atoms: C_4  and  O_8
REMARK    3  A    between atoms: C_6  and  O_7
REMARK                            x       y       z     vdW  Elec       q    Type
REMARK                         _______ _______ _______ _____ _____    ______ ____
ROOT
ATOM      1  C   UNL     1      -1.332   2.119   0.020  0.00  0.00    +0.108 C 
ATOM      2  C   UNL     1      -1.844   2.259   1.442  0.00  0.00    +0.029 C 
ATOM      3  C   UNL     1      -1.982   0.972   2.266  0.00  0.00    +0.033 C 
ATOM      4  C   UNL     1      -1.760   1.491   3.688  0.00  0.00    -0.030 C 
ATOM      5  C   UNL     1      -1.025   2.596   3.658  0.00  0.00    -0.023 C 
ATOM      6  C   UNL     1      -0.679   2.918   2.240  0.00  0.00    +0.049 C 
ATOM      7  C   UNL     1      -0.517   4.302   1.744  0.00  0.00    -0.018 A 
ATOM      8  C   UNL     1      -0.157   5.346   2.569  0.00  0.00    +0.021 A 
ATOM      9  C   UNL     1      -0.005   6.621   2.055  0.00  0.00    +0.018 A 
ATOM     10  C   UNL     1      -0.215   6.852   0.707  0.00  0.00    +0.017 A 
ATOM     11  C   UNL     1      -0.581   5.814  -0.125  0.00  0.00    +0.024 A 
ATOM     12  C   UNL     1      -0.743   4.531   0.383  0.00  0.00    +0.031 A 
ATOM     13  N   UNL     1      -1.149   3.501  -0.475  0.00  0.00    -0.336 N 
ATOM     14 BR   UNL     1       0.488   8.048   3.194  0.00  0.00    -0.050 Br
ATOM     15  H   UNL     1      -1.314   3.697  -1.411  0.00  0.00    +0.147 HD
ENDROOT
BRANCH   1  18
ATOM     16  C   UNL     1       2.377   1.421  -0.013  0.00  0.00    +0.046 A 
ATOM     17  C   UNL     1       1.169   2.092   0.002  0.00  0.00    +0.012 A 
ATOM     18  C   UNL     1      -0.017   1.384   0.010  0.00  0.00    +0.015 A 
ATOM     19  C   UNL     1       0.002  -0.004   0.002  0.00  0.00    +0.125 A 
ATOM     20  C   UNL     1       1.212  -0.680  -0.013  0.00  0.00    +0.091 A 
ATOM     21  C   UNL     1       2.402   0.033  -0.021  0.00  0.00    +0.120 A 
BRANCH  21  22
ATOM     22  O   UNL     1       3.590  -0.626  -0.035  0.00  0.00    -0.507 OA
ATOM     23  H   UNL     1       3.925  -0.812  -0.923  0.00  0.00    +0.292 HD
ENDBRANCH  21  22
BRANCH  19  24
ATOM     24  O   UNL     1      -1.165  -0.700   0.010  0.00  0.00    -0.506 OA
ATOM     25  H   UNL     1      -1.512  -0.897  -0.871  0.00  0.00    +0.292 HD
ENDBRANCH  19  24
ENDBRANCH   1  18
TORSDOF 3
