REMARK  Name = ZINC40529682
REMARK  12 active torsions:
REMARK  status: ('A' for Active; 'I' for Inactive)
REMARK    1  A    between atoms: C_1  and  C_2
REMARK    2  A    between atoms: C_2  and  C_3
REMARK    3  A    between atoms: C_3  and  O_4
REMARK    4  A    between atoms: O_4  and  C_5
REMARK    5  A    between atoms: C_10  and  C_11
REMARK    6  A    between atoms: C_16  and  O_25
REMARK    7  A    between atoms: C_20  and  N_24
REMARK    8  A    between atoms: C_21  and  C_22
REMARK    9  A    between atoms: O_25  and  C_26
REMARK   10  A    between atoms: C_26  and  C_28
REMARK   11  A    between atoms: C_31  and  O_34
REMARK   12  A    between atoms: O_34  and  C_35
REMARK                            x       y       z     vdW  Elec       q    Type
REMARK                         _______ _______ _______ _____ _____    ______ ____
ROOT
ATOM      1  C   UNL     1      -1.437  -4.830  -0.037  0.00  0.00    +0.101 C 
ATOM      2  C   UNL     1      -1.371  -5.686   1.200  0.00  0.00    +0.008 A 
ATOM      3  C   UNL     1      -0.947  -5.128   2.392  0.00  0.00    +0.012 A 
ATOM      4  C   UNL     1      -0.879  -5.898   3.536  0.00  0.00    +0.047 A 
ATOM      5  C   UNL     1      -1.238  -7.238   3.493  0.00  0.00    +0.135 A 
ATOM      6  C   UNL     1      -1.664  -7.800   2.300  0.00  0.00    +0.093 A 
ATOM      7  C   UNL     1      -1.731  -7.024   1.150  0.00  0.00    +0.138 A 
ATOM      8  O   UNL     1      -2.149  -7.589  -0.009  0.00  0.00    -0.441 OA
ATOM      9  C   UNL     1      -1.864  -7.001  -1.183  0.00  0.00    +0.199 C 
ATOM     10  C   UNL     1      -1.521  -5.697  -1.262  0.00  0.00    +0.098 C 
ENDROOT
BRANCH   1  16
ATOM     11  C   UNL     1      -2.514  -2.566   0.017  0.00  0.00    +0.125 A 
ATOM     12  C   UNL     1      -3.639  -1.755   0.076  0.00  0.00    +0.046 A 
ATOM     13  C   UNL     1      -4.895  -2.323   0.155  0.00  0.00    +0.004 A 
ATOM     14  C   UNL     1      -5.033  -3.699   0.176  0.00  0.00    +0.001 A 
ATOM     15  C   UNL     1      -3.915  -4.509   0.118  0.00  0.00    +0.008 A 
ATOM     16  C   UNL     1      -2.656  -3.946   0.033  0.00  0.00    +0.007 A 
BRANCH  11  17
ATOM     17  O   UNL     1      -1.277  -2.010  -0.061  0.00  0.00    -0.492 OA
BRANCH  17  18
ATOM     18  C   UNL     1      -1.207  -0.583  -0.073  0.00  0.00    +0.229 C 
BRANCH  18  20
ATOM     19  C   UNL     1       0.331   1.384  -0.176  0.00  0.00    +0.007 C 
ATOM     20  C   UNL     1       0.256  -0.144  -0.164  0.00  0.00    +0.038 C 
ENDBRANCH  18  20
ENDBRANCH  17  18
ENDBRANCH  11  17
ENDBRANCH   1  16
BRANCH   9  21
ATOM     21  N   UNL     1      -1.924  -7.747  -2.333  0.00  0.00    -0.328 N 
ATOM     22  H   UNL     1      -2.170  -8.684  -2.291  0.00  0.00    +0.145 HD
ATOM     23  H   UNL     1      -1.721  -7.337  -3.188  0.00  0.00    +0.145 HD
ENDBRANCH   9  21
BRANCH  10  24
ATOM     24  C   UNL     1      -1.229  -5.130  -2.544  0.00  0.00    +0.101 C 
ATOM     25  N   UNL     1      -0.998  -4.680  -3.561  0.00  0.00    -0.191 NA
ENDBRANCH  10  24
BRANCH   5  26
ATOM     26  O   UNL     1      -1.173  -7.997   4.618  0.00  0.00    -0.422 OA
BRANCH  26  27
ATOM     27  C   UNL     1      -0.229  -8.957   4.679  0.00  0.00    +0.344 C 
ATOM     28  O   UNL     1       0.597  -9.055   3.793  0.00  0.00    -0.245 OA
BRANCH  27  29
ATOM     29  C   UNL     1      -0.198  -9.889   5.822  0.00  0.00    +0.060 A 
ATOM     30  C   UNL     1      -1.150  -9.782   6.840  0.00  0.00    +0.018 A 
ATOM     31  C   UNL     1      -1.118 -10.654   7.904  0.00  0.00    +0.046 A 
ATOM     32  C   UNL     1      -0.140 -11.640   7.968  0.00  0.00    +0.120 A 
ATOM     33  C   UNL     1       0.809 -11.750   6.959  0.00  0.00    +0.046 A 
ATOM     34  C   UNL     1       0.781 -10.885   5.888  0.00  0.00    +0.018 A 
BRANCH  32  35
ATOM     35  O   UNL     1      -0.112 -12.498   9.020  0.00  0.00    -0.495 OA
ATOM     36  C   UNL     1       0.919 -13.487   9.023  0.00  0.00    +0.277 C 
ENDBRANCH  32  35
ENDBRANCH  27  29
ENDBRANCH  26  27
ENDBRANCH   5  26
TORSDOF 10
