REMARK  Name = ZINC63177756
REMARK  8 active torsions:
REMARK  status: ('A' for Active; 'I' for Inactive)
REMARK    1  A    between atoms: C_1  and  C_2
REMARK    2  A    between atoms: C_2  and  C_3
REMARK    3  A    between atoms: C_3  and  N_4
REMARK    4  A    between atoms: N_4  and  S_5
REMARK    5  A    between atoms: S_5  and  C_8
REMARK    6  A    between atoms: C_13  and  N_14
REMARK    7  A    between atoms: N_14  and  C_15
REMARK    8  A    between atoms: C_20  and  N_22
REMARK                            x       y       z     vdW  Elec       q    Type
REMARK                         _______ _______ _______ _____ _____    ______ ____
ROOT
ATOM      1  C   UNL     1       1.169  -2.509   3.736  0.00  0.00    +0.126 A 
ATOM      2  C   UNL     1       0.786  -3.536   4.576  0.00  0.00    +0.030 A 
ATOM      3  C   UNL     1       0.314  -3.254   5.845  0.00  0.00    +0.002 A 
ATOM      4  C   UNL     1       0.225  -1.943   6.278  0.00  0.00    +0.002 A 
ATOM      5  C   UNL     1       0.607  -0.911   5.443  0.00  0.00    +0.025 A 
ATOM      6  C   UNL     1       1.086  -1.192   4.169  0.00  0.00    +0.054 A 
ENDROOT
BRANCH   1   7
ATOM      7  S   UNL     1       1.769  -2.869   2.119  0.00  0.00    +0.060 S 
ATOM      8  O   UNL     1       1.051  -2.031   1.223  0.00  0.00    -0.153 OA
ATOM      9  O   UNL     1       1.778  -4.285   1.996  0.00  0.00    -0.153 OA
BRANCH   7  10
ATOM     10  N   UNL     1       3.349  -2.378   2.062  0.00  0.00    -0.190 NA
ATOM     11  H   UNL     1       3.613  -1.660   1.466  0.00  0.00    +0.148 HD
BRANCH  10  12
ATOM     12  C   UNL     1       4.349  -3.029   2.913  0.00  0.00    +0.105 C 
BRANCH  12  14
ATOM     13  C   UNL     1       6.796  -3.367   3.292  0.00  0.00    +0.005 C 
ATOM     14  C   UNL     1       5.751  -2.687   2.404  0.00  0.00    +0.013 C 
ENDBRANCH  12  14
ENDBRANCH  10  12
ENDBRANCH   7  10
ENDBRANCH   1   7
BRANCH   6  15
ATOM     15  N   UNL     1       1.478  -0.151   3.324  0.00  0.00    -0.341 N 
ATOM     16  H   UNL     1       1.888  -0.350   2.468  0.00  0.00    +0.146 HD
BRANCH  15  17
ATOM     17  C   UNL     1       1.270   1.241   3.731  0.00  0.00    +0.056 C 
ATOM     18  C   UNL     1       2.472   1.734   4.564  0.00  0.00    +0.020 C 
ATOM     19  C   UNL     1       3.377   2.454   3.534  0.00  0.00    +0.000 C 
ATOM     20  C   UNL     1       2.352   3.159   2.612  0.00  0.00    -0.014 C 
ATOM     21  C   UNL     1       1.193   2.147   2.490  0.00  0.00    -0.055 C 
BRANCH  21  22
ATOM     22  N   UNL     1      -0.094   2.856   2.463  0.00  0.00    +0.381 N 
ATOM     23  H   UNL     1      -0.183   3.422   3.293  0.00  0.00    -0.090 HD
ATOM     24  H   UNL     1      -0.135   3.447   1.646  0.00  0.00    -0.090 HD
ATOM     25  H   UNL     1      -0.847   2.184   2.431  0.00  0.00    -0.090 HD
ENDBRANCH  21  22
ENDBRANCH  15  17
ENDBRANCH   6  15
TORSDOF 7
