REMARK  Name = ZINC63375027
REMARK  10 active torsions:
REMARK  status: ('A' for Active; 'I' for Inactive)
REMARK    1  A    between atoms: C_1  and  C_2
REMARK    2  A    between atoms: C_2  and  C_3
REMARK    3  A    between atoms: C_3  and  O_4
REMARK    4  A    between atoms: O_4  and  C_5
REMARK    5  A    between atoms: C_8  and  C_14
REMARK    6  A    between atoms: C_10  and  O_11
REMARK    7  A    between atoms: O_11  and  C_12
REMARK    8  A    between atoms: C_12  and  C_13
REMARK    9  A    between atoms: N_21  and  C_36
REMARK   10  A    between atoms: C_24  and  C_35
REMARK                            x       y       z     vdW  Elec       q    Type
REMARK                         _______ _______ _______ _____ _____    ______ ____
ROOT
ATOM      1  C   UNL     1       3.243  -4.423  -5.653  0.00  0.00    +0.065 C 
ATOM      2  C   UNL     1       2.564  -3.987  -6.963  0.00  0.00    +0.121 C 
ATOM      3  N   UNL     1       3.421  -4.362  -8.105  0.00  0.00    -0.283 N 
ATOM      4  C   UNL     1       2.911  -5.180  -9.033  0.00  0.00    +0.234 C 
ATOM      5  O   UNL     1       1.780  -5.585  -8.864  0.00  0.00    -0.274 OA
ATOM      6  C   UNL     1       3.630  -5.631 -10.260  0.00  0.00    +0.204 C 
ATOM      7  N   UNL     1       4.968  -5.071 -10.349  0.00  0.00    -0.288 N 
ATOM      8  C   UNL     1       5.492  -4.266  -9.426  0.00  0.00    +0.242 C 
ATOM      9  O   UNL     1       6.619  -3.856  -9.607  0.00  0.00    -0.273 OA
ATOM     10  C   UNL     1       4.785  -3.835  -8.185  0.00  0.00    +0.135 C 
ATOM     11  C   UNL     1       5.556  -4.311  -6.949  0.00  0.00    +0.139 C 
ATOM     12  C   UNL     1       4.683  -3.984  -5.742  0.00  0.00    -0.027 C 
ATOM     13  C   UNL     1       5.442  -3.279  -4.913  0.00  0.00    -0.000 A 
ATOM     14  C   UNL     1       5.198  -2.769  -3.554  0.00  0.00    +0.010 A 
ATOM     15  C   UNL     1       6.206  -2.049  -2.994  0.00  0.00    +0.001 A 
ATOM     16  C   UNL     1       7.417  -1.788  -3.642  0.00  0.00    +0.002 A 
ATOM     17  C   UNL     1       7.731  -2.226  -4.887  0.00  0.00    +0.026 A 
ATOM     18  C   UNL     1       6.754  -3.004  -5.574  0.00  0.00    +0.043 A 
ATOM     19  N   UNL     1       6.809  -3.578  -6.764  0.00  0.00    -0.375 N 
ATOM     20  C   UNL     1       4.727  -2.307  -8.153  0.00  0.00    +0.044 C 
ATOM     21  H   UNL     1       7.537  -3.529  -7.402  0.00  0.00    +0.160 HD
ENDROOT
BRANCH   1  25
ATOM     22  C   UNL     1       1.342  -2.530  -2.323  0.00  0.00    +0.162 A 
ATOM     23  C   UNL     1       1.908  -1.763  -3.329  0.00  0.00    +0.050 A 
ATOM     24  C   UNL     1       2.522  -2.378  -4.404  0.00  0.00    +0.008 A 
ATOM     25  C   UNL     1       2.573  -3.758  -4.479  0.00  0.00    -0.035 A 
ATOM     26  C   UNL     1       2.009  -4.529  -3.479  0.00  0.00    +0.053 A 
ATOM     27  C   UNL     1       1.397  -3.918  -2.396  0.00  0.00    +0.162 A 
BRANCH  22  28
ATOM     28  O   UNL     1       0.738  -1.926  -1.265  0.00  0.00    -0.488 OA
BRANCH  28  29
ATOM     29  C   UNL     1       0.718  -0.497  -1.257  0.00  0.00    +0.229 C 
BRANCH  29  31
ATOM     30  C   UNL     1      -0.019   1.526   0.010  0.00  0.00    +0.007 C 
ATOM     31  C   UNL     1       0.002  -0.004   0.002  0.00  0.00    +0.038 C 
ENDBRANCH  29  31
ENDBRANCH  28  29
ENDBRANCH  22  28
BRANCH  27  32
ATOM     32  O   UNL     1       0.847  -4.675  -1.408  0.00  0.00    -0.489 OA
BRANCH  32  33
ATOM     33  C   UNL     1       0.942  -6.094  -1.549  0.00  0.00    +0.226 C 
ATOM     34  C   UNL     1       0.273  -6.771  -0.352  0.00  0.00    +0.048 C 
ENDBRANCH  32  33
ENDBRANCH  27  32
ENDBRANCH   1  25
BRANCH   7  35
ATOM     35  C   UNL     1       5.785  -5.410 -11.517  0.00  0.00    +0.077 C 
ATOM     36  C   UNL     1       5.050  -5.007 -12.811  0.00  0.00    +0.022 C 
ATOM     37  C   UNL     1       5.399  -6.135 -13.814  0.00  0.00    +0.002 C 
ATOM     38  C   UNL     1       5.383  -7.401 -12.923  0.00  0.00    +0.002 C 
ATOM     39  C   UNL     1       5.997  -6.933 -11.588  0.00  0.00    +0.022 C 
ENDBRANCH   7  35
TORSDOF 7
