REMARK  Name = ZINC13034022
REMARK  13 active torsions:
REMARK  status: ('A' for Active; 'I' for Inactive)
REMARK    1  A    between atoms: C_1  and  C_2
REMARK    2  A    between atoms: C_2  and  C_3
REMARK    3  A    between atoms: C_10  and  C_15
REMARK    4  A    between atoms: C_15  and  N_73
REMARK    5  A    between atoms: C_16  and  C_17
REMARK    6  A    between atoms: C_16  and  N_73
REMARK    7  A    between atoms: C_20  and  O_23
REMARK    8  A    between atoms: O_23  and  C_24
REMARK    9  A    between atoms: C_25  and  C_27
REMARK   10  A    between atoms: C_25  and  C_29
REMARK   11  A    between atoms: C_25  and  N_73
REMARK   12  A    between atoms: C_27  and  C_28
REMARK   13  A    between atoms: N_33  and  C_34
REMARK                            x       y       z     vdW  Elec       q    Type
REMARK                         _______ _______ _______ _____ _____    ______ ____
ROOT
ATOM      1  N   UNL     1       2.659  -2.357   0.801  0.00  0.00    +0.392 N 
ATOM      2  H   UNL     1       2.272  -2.245   1.745  0.00  0.00    -0.080 HD
ENDROOT
BRANCH   1   3
ATOM      3  C   UNL     1       3.500  -3.572   0.769  0.00  0.00    -0.036 C 
BRANCH   3  11
ATOM      4  C   UNL     1      -0.000  -8.527   1.988  0.00  0.00    -0.047 A 
ATOM      5  C   UNL     1       0.207  -8.530   3.361  0.00  0.00    +0.005 A 
ATOM      6  C   UNL     1       1.007  -7.577   3.954  0.00  0.00    +0.026 A 
ATOM      7  C   UNL     1       1.614  -6.601   3.170  0.00  0.00    +0.049 A 
ATOM      8  C   UNL     1       1.402  -6.601   1.778  0.00  0.00    -0.001 A 
ATOM      9  C   UNL     1       0.586  -7.579   1.199  0.00  0.00    +0.013 A 
ATOM     10  C   UNL     1       2.040  -5.567   0.963  0.00  0.00    +0.017 A 
ATOM     11  C   UNL     1       2.824  -4.648   1.579  0.00  0.00    +0.001 A 
ATOM     12  C   UNL     1       3.005  -4.692   2.978  0.00  0.00    +0.251 A 
ATOM     13  O   UNL     1       3.710  -3.854   3.513  0.00  0.00    -0.268 OA
ATOM     14  N   UNL     1       2.419  -5.635   3.736  0.00  0.00    -0.322 N 
ATOM     15  H   UNL     1       2.564  -5.637   4.695  0.00  0.00    +0.169 HD
BRANCH   4  17
ATOM     16  C   UNL     1      -0.029 -10.791   0.977  0.00  0.00    +0.009 C 
ATOM     17  C   UNL     1      -0.879  -9.579   1.363  0.00  0.00    +0.032 C 
ENDBRANCH   4  17
ENDBRANCH   3  11
ENDBRANCH   1   3
BRANCH   1  18
ATOM     18  C   UNL     1       3.475  -1.169   0.472  0.00  0.00    -0.042 C 
BRANCH  18  19
ATOM     19  C   UNL     1       2.793   0.053   1.032  0.00  0.00    -0.064 A 
ATOM     20  C   UNL     1       2.025   0.853   0.207  0.00  0.00    +0.005 A 
ATOM     21  C   UNL     1       1.395   1.971   0.719  0.00  0.00    +0.046 A 
ATOM     22  C   UNL     1       1.542   2.297   2.059  0.00  0.00    +0.120 A 
ATOM     23  C   UNL     1       2.318   1.495   2.884  0.00  0.00    +0.046 A 
ATOM     24  C   UNL     1       2.942   0.375   2.368  0.00  0.00    +0.005 A 
BRANCH  22  25
ATOM     25  O   UNL     1       0.928   3.398   2.564  0.00  0.00    -0.495 OA
ATOM     26  C   UNL     1       0.144   4.177   1.657  0.00  0.00    +0.277 C 
ENDBRANCH  22  25
ENDBRANCH  18  19
ENDBRANCH   1  18
BRANCH   1  27
ATOM     27  C   UNL     1       1.545  -2.487  -0.162  0.00  0.00    +0.003 C 
BRANCH  27  28
ATOM     28  C   UNL     1       0.392  -1.646   0.320  0.00  0.00    +0.138 A 
ATOM     29  N   UNL     1       0.469  -0.535   1.012  0.00  0.00    -0.115 NA
ATOM     30  N   UNL     1      -0.731  -0.118   1.229  0.00  0.00    -0.023 NA
ATOM     31  N   UNL     1      -1.571  -0.933   0.694  0.00  0.00    -0.044 NA
ATOM     32  N   UNL     1      -0.917  -1.889   0.124  0.00  0.00    -0.228 N 
BRANCH  32  33
ATOM     33  C   UNL     1      -1.493  -3.024  -0.601  0.00  0.00    +0.111 C 
ATOM     34  C   UNL     1      -2.372  -2.518  -1.764  0.00  0.00    +0.027 C 
ATOM     35  C   UNL     1      -3.560  -3.512  -1.800  0.00  0.00    +0.002 C 
ATOM     36  C   UNL     1      -3.823  -3.788  -0.299  0.00  0.00    +0.002 C 
ATOM     37  C   UNL     1      -2.414  -3.831   0.329  0.00  0.00    +0.027 C 
ENDBRANCH  32  33
ENDBRANCH  27  28
BRANCH  27  38
ATOM     38  C   UNL     1       1.980  -2.010  -1.549  0.00  0.00    -0.011 C 
ATOM     39  C   UNL     1       3.140  -2.875  -2.046  0.00  0.00    +0.002 C 
ENDBRANCH  27  38
ENDBRANCH   1  27
TORSDOF 10
