REMARK  Name = ZINC39666906
REMARK  10 active torsions:
REMARK  status: ('A' for Active; 'I' for Inactive)
REMARK    1  A    between atoms: C_1  and  C_2
REMARK    2  A    between atoms: C_2  and  C_3
REMARK    3  A    between atoms: C_3  and  C_4
REMARK    4  A    between atoms: C_3  and  C_6
REMARK    5  A    between atoms: C_4  and  C_5
REMARK    6  A    between atoms: C_6  and  N_7
REMARK    7  A    between atoms: C_8  and  C_10
REMARK    8  A    between atoms: C_21  and  C_23
REMARK    9  A    between atoms: C_24  and  C_34
REMARK   10  A    between atoms: C_27  and  C_28
REMARK                            x       y       z     vdW  Elec       q    Type
REMARK                         _______ _______ _______ _____ _____    ______ ____
ROOT
ATOM      1  C   UNL     1       3.157  -3.336   3.734  0.00  0.00    +0.100 C 
ATOM      2  C   UNL     1       2.497  -2.856   5.046  0.00  0.00    +0.121 C 
ATOM      3  N   UNL     1       1.874  -4.072   5.618  0.00  0.00    -0.296 N 
ATOM      4  C   UNL     1       2.855  -5.150   5.350  0.00  0.00    +0.115 C 
ATOM      5  C   UNL     1       3.394  -4.841   3.939  0.00  0.00    -0.004 C 
ATOM      6  C   UNL     1       2.625  -5.644   2.894  0.00  0.00    -0.010 C 
ATOM      7  C   UNL     1       2.921  -7.135   3.083  0.00  0.00    -0.082 C 
ATOM      8  N   UNL     1       4.364  -7.370   2.946  0.00  0.00    +0.379 N 
ATOM      9  C   UNL     1       5.089  -6.667   4.011  0.00  0.00    -0.082 C 
ATOM     10  C   UNL     1       4.884  -5.157   3.862  0.00  0.00    -0.010 C 
ATOM     11  C   UNL     1       0.683  -4.175   6.242  0.00  0.00    +0.252 C 
ATOM     12  O   UNL     1       0.308  -5.253   6.661  0.00  0.00    -0.270 OA
ATOM     13  H   UNL     1       4.549  -8.359   3.010  0.00  0.00    -0.086 HD
ATOM     14  H   UNL     1       4.675  -7.029   2.049  0.00  0.00    -0.086 HD
ENDROOT
BRANCH  11  15
ATOM     15  C   UNL     1      -0.163  -2.982   6.417  0.00  0.00    +0.106 A 
ATOM     16  C   UNL     1      -1.119  -2.530   5.556  0.00  0.00    +0.147 A 
ATOM     17  O   UNL     1      -1.660  -1.424   6.074  0.00  0.00    -0.359 OA
ATOM     18  N   UNL     1      -1.044  -1.134   7.313  0.00  0.00    -0.077 NA
ATOM     19  C   UNL     1      -0.143  -2.052   7.556  0.00  0.00    +0.126 A 
ATOM     20  C   UNL     1      -1.501  -3.169   4.246  0.00  0.00    +0.090 C 
BRANCH  19  21
ATOM     21  C   UNL     1       0.733  -2.136   8.749  0.00  0.00    +0.004 A 
ATOM     22  C   UNL     1       1.091  -3.378   9.269  0.00  0.00    +0.010 A 
ATOM     23  C   UNL     1       1.907  -3.450  10.380  0.00  0.00    +0.001 A 
ATOM     24  C   UNL     1       2.369  -2.292  10.978  0.00  0.00    +0.000 A 
ATOM     25  C   UNL     1       2.016  -1.056  10.467  0.00  0.00    +0.001 A 
ATOM     26  C   UNL     1       1.206  -0.972   9.353  0.00  0.00    +0.010 A 
ENDBRANCH  19  21
ENDBRANCH  11  15
BRANCH   1  28
ATOM     27  N   UNL     1       2.732  -3.030   1.316  0.00  0.00    -0.315 N 
ATOM     28  C   UNL     1       2.233  -3.104   2.566  0.00  0.00    +0.218 C 
ATOM     29  O   UNL     1       1.040  -2.985   2.751  0.00  0.00    -0.275 OA
ATOM     30  H   UNL     1       3.686  -3.125   1.169  0.00  0.00    +0.149 HD
BRANCH  27  31
ATOM     31  C   UNL     1       1.834  -2.805   0.181  0.00  0.00    +0.107 C 
BRANCH  31  32
ATOM     32  C   UNL     1       2.659  -2.633  -1.096  0.00  0.00    +0.006 C 
BRANCH  32  34
ATOM     33  C   UNL     1       2.544  -2.468  -3.586  0.00  0.00    +0.004 C 
ATOM     34  C   UNL     1       1.720  -2.514  -2.298  0.00  0.00    +0.002 C 
ENDBRANCH  32  34
BRANCH  32  35
ATOM     35  C   UNL     1       3.510  -1.366  -0.986  0.00  0.00    +0.002 C 
ATOM     36  C   UNL     1       2.596  -0.152  -0.806  0.00  0.00    +0.004 C 
ENDBRANCH  32  35
ENDBRANCH  31  32
ENDBRANCH  27  31
ENDBRANCH   1  28
TORSDOF 7
