REMARK  Name = ZINC60356700
REMARK  7 active torsions:
REMARK  status: ('A' for Active; 'I' for Inactive)
REMARK    1  A    between atoms: C_4  and  C_7
REMARK    2  A    between atoms: C_7  and  N_8
REMARK    3  A    between atoms: C_12  and  C_14
REMARK    4  A    between atoms: N_19  and  C_20
REMARK    5  A    between atoms: C_20  and  C_21
REMARK    6  A    between atoms: C_21  and  C_22
REMARK    7  A    between atoms: N_24  and  N_25
REMARK                            x       y       z     vdW  Elec       q    Type
REMARK                         _______ _______ _______ _____ _____    ______ ____
ROOT
ATOM      1  C   UNL     1       8.267  -1.615   3.465  0.00  0.00    +0.094 C 
ENDROOT
BRANCH   1   6
ATOM      2  C   UNL     1       6.471  -0.691   2.121  0.00  0.00    +0.043 C 
ATOM      3  C   UNL     1       6.586   0.698   1.459  0.00  0.00    +0.018 C 
ATOM      4  C   UNL     1       8.092   1.036   1.613  0.00  0.00    +0.017 C 
ATOM      5  C   UNL     1       8.745  -0.357   1.437  0.00  0.00    +0.084 C 
ATOM      6  N   UNL     1       7.814  -1.299   2.104  0.00  0.00    -0.300 NA
BRANCH   2  11
ATOM      7  N   UNL     1       4.153  -0.953   1.342  0.00  0.00    +0.385 N 
ATOM      8  C   UNL     1       3.216  -1.884   2.006  0.00  0.00    -0.078 C 
ATOM      9  C   UNL     1       3.864  -3.282   1.840  0.00  0.00    -0.020 C 
ATOM     10  C   UNL     1       5.371  -2.950   2.000  0.00  0.00    -0.016 C 
ATOM     11  C   UNL     1       5.495  -1.565   1.331  0.00  0.00    -0.051 C 
ATOM     12  H   UNL     1       4.181  -0.082   1.851  0.00  0.00    -0.081 HD
BRANCH   7  13
ATOM     13  C   UNL     1       3.711  -0.707  -0.038  0.00  0.00    -0.043 C 
BRANCH  13  17
ATOM     14  C   UNL     1      -0.017   1.378   0.010  0.00  0.00    +0.000 A 
ATOM     15  C   UNL     1       1.171   2.086   0.002  0.00  0.00    +0.000 A 
ATOM     16  C   UNL     1       2.377   1.411  -0.013  0.00  0.00    +0.002 A 
ATOM     17  C   UNL     1       2.396   0.029  -0.020  0.00  0.00    -0.064 A 
ATOM     18  C   UNL     1       1.208  -0.679  -0.012  0.00  0.00    +0.002 A 
ATOM     19  C   UNL     1       0.002  -0.004   0.002  0.00  0.00    +0.000 A 
ENDBRANCH  13  17
ENDBRANCH   7  13
ENDBRANCH   2  11
ENDBRANCH   1   6
BRANCH   1  20
ATOM     20  C   UNL     1       9.539  -2.462   3.396  0.00  0.00    +0.112 C 
BRANCH  20  21
ATOM     21  C   UNL     1      10.003  -2.786   4.793  0.00  0.00    +0.231 C 
ATOM     22  O   UNL     1       9.377  -2.380   5.749  0.00  0.00    -0.274 OA
ATOM     23  N   UNL     1      11.112  -3.528   4.979  0.00  0.00    -0.224 N 
ATOM     24  H   UNL     1      11.613  -3.853   4.215  0.00  0.00    +0.174 HD
BRANCH  23  25
ATOM     25  N   UNL     1      11.543  -3.829   6.278  0.00  0.00    -0.137 N 
ATOM     26  C   UNL     1      12.595  -3.239   6.884  0.00  0.00    +0.263 C 
ATOM     27  O   UNL     1      13.318  -2.381   6.427  0.00  0.00    -0.271 OA
ATOM     28  C   UNL     1      12.680  -3.874   8.253  0.00  0.00    +0.114 C 
ATOM     29  C   UNL     1      14.013  -4.593   8.424  0.00  0.00    +0.035 C 
ATOM     30  C   UNL     1      14.066  -5.254   9.804  0.00  0.00    +0.003 C 
ATOM     31  C   UNL     1      13.901  -4.185  10.886  0.00  0.00    +0.000 C 
ATOM     32  C   UNL     1      12.549  -3.489  10.716  0.00  0.00    +0.003 C 
ATOM     33  C   UNL     1      12.491  -2.822   9.340  0.00  0.00    +0.035 C 
ATOM     34  N   UNL     1      11.570  -4.836   8.270  0.00  0.00    -0.284 N 
ATOM     35  C   UNL     1      10.960  -4.734   7.073  0.00  0.00    +0.326 C 
ATOM     36  O   UNL     1       9.991  -5.393   6.751  0.00  0.00    -0.251 OA
ATOM     37  H   UNL     1      11.324  -5.426   8.999  0.00  0.00    +0.151 HD
ENDBRANCH  23  25
ENDBRANCH  20  21
ENDBRANCH   1  20
TORSDOF 7
