REMARK  Name = ZINC63780914
REMARK  5 active torsions:
REMARK  status: ('A' for Active; 'I' for Inactive)
REMARK    1  A    between atoms: N_17  and  C_18
REMARK    2  A    between atoms: C_18  and  C_19
REMARK    3  A    between atoms: N_21  and  C_22
REMARK    4  A    between atoms: C_22  and  C_23
REMARK    5  A    between atoms: C_23  and  C_24
REMARK                            x       y       z     vdW  Elec       q    Type
REMARK                         _______ _______ _______ _____ _____    ______ ____
ROOT
ATOM      1  C   UNL     1      -0.019   1.345   0.015  0.00  0.00    +0.001 A 
ATOM      2  C   UNL     1       1.162   2.099   0.011  0.00  0.00    +0.002 A 
ATOM      3  C   UNL     1       2.387   1.532   0.000  0.00  0.00    +0.026 A 
ATOM      4  C   UNL     1       2.526   0.118  -0.008  0.00  0.00    +0.043 A 
ATOM      5  N   UNL     1       3.589  -0.655  -0.039  0.00  0.00    -0.376 N 
ATOM      6  C   UNL     1       3.153  -2.047   0.045  0.00  0.00    +0.124 C 
ATOM      7  C   UNL     1       3.651  -2.874  -1.145  0.00  0.00    +0.138 C 
ATOM      8  N   UNL     1       2.856  -4.111  -1.199  0.00  0.00    -0.283 N 
ATOM      9  C   UNL     1       1.399  -4.056  -1.362  0.00  0.00    +0.114 C 
ATOM     10  C   UNL     1       0.789  -3.239  -0.209  0.00  0.00    +0.052 C 
ATOM     11  C   UNL     1       1.636  -2.000  -0.029  0.00  0.00    -0.036 C 
ATOM     12  C   UNL     1       1.291  -0.704  -0.011  0.00  0.00    -0.001 A 
ATOM     13  C   UNL     1      -0.001  -0.006   0.005  0.00  0.00    +0.010 A 
ATOM     14  C   UNL     1       3.472  -5.306  -1.099  0.00  0.00    +0.303 C 
ATOM     15  O   UNL     1       4.686  -5.362  -1.058  0.00  0.00    -0.253 OA
ATOM     16  N   UNL     1       2.743  -6.438  -1.042  0.00  0.00    -0.291 N 
ATOM     17  H   UNL     1       1.779  -6.399  -1.148  0.00  0.00    +0.151 HD
ATOM     18  H   UNL     1       4.508  -0.352  -0.106  0.00  0.00    +0.160 HD
ENDROOT
BRANCH  16  19
ATOM     19  C   UNL     1       3.405  -7.726  -0.822  0.00  0.00    +0.201 C 
BRANCH  19  20
ATOM     20  C   UNL     1       2.373  -8.824  -0.801  0.00  0.00    +0.230 C 
ATOM     21  O   UNL     1       1.200  -8.557  -0.956  0.00  0.00    -0.274 OA
ATOM     22  N   UNL     1       2.753 -10.103  -0.612  0.00  0.00    -0.314 N 
ATOM     23  H   UNL     1       3.692 -10.316  -0.488  0.00  0.00    +0.149 HD
BRANCH  22  24
ATOM     24  C   UNL     1       1.750 -11.170  -0.592  0.00  0.00    +0.109 C 
BRANCH  24  25
ATOM     25  C   UNL     1       2.442 -12.516  -0.361  0.00  0.00    +0.055 C 
BRANCH  25  26
ATOM     26  C   UNL     1       1.410 -13.614  -0.341  0.00  0.00    -0.027 A 
ATOM     27  C   UNL     1       0.884 -14.046   0.862  0.00  0.00    +0.006 A 
ATOM     28  C   UNL     1      -0.062 -15.053   0.882  0.00  0.00    +0.020 A 
ATOM     29  C   UNL     1      -0.484 -15.629  -0.303  0.00  0.00    +0.042 A 
ATOM     30  C   UNL     1       0.041 -15.197  -1.508  0.00  0.00    +0.040 A 
ATOM     31  C   UNL     1       0.985 -14.185  -1.527  0.00  0.00    +0.046 A 
ATOM     32 CL   UNL     1       1.641 -13.638  -3.038  0.00  0.00    -0.083 Cl
ATOM     33 CL   UNL     1      -1.672 -16.895  -0.279  0.00  0.00    -0.083 Cl
ENDBRANCH  25  26
ENDBRANCH  24  25
ENDBRANCH  22  24
ENDBRANCH  19  20
ENDBRANCH  16  19
TORSDOF 5
