REMARK  Name = ZINC09466381
REMARK  9 active torsions:
REMARK  status: ('A' for Active; 'I' for Inactive)
REMARK    1  A    between atoms: C_3  and  N_32
REMARK    2  A    between atoms: C_6  and  C_7
REMARK    3  A    between atoms: N_9  and  N_10
REMARK    4  A    between atoms: C_11  and  C_13
REMARK    5  A    between atoms: C_13  and  O_14
REMARK    6  A    between atoms: O_14  and  C_15
REMARK    7  A    between atoms: C_15  and  C_17
REMARK    8  A    between atoms: N_20  and  C_23
REMARK    9  A    between atoms: C_26  and  C_28
REMARK                            x       y       z     vdW  Elec       q    Type
REMARK                         _______ _______ _______ _____ _____    ______ ____
ROOT
ATOM      1  O   UNL     1      -5.321   3.125   9.084  0.00  0.00    -0.455 OA
ENDROOT
BRANCH   1   2
ATOM      2  C   UNL     1      -5.369   3.729   7.887  0.00  0.00    +0.311 C 
ATOM      3  O   UNL     1      -5.935   4.790   7.767  0.00  0.00    -0.251 OA
BRANCH   2   4
ATOM      4  C   UNL     1      -4.716   3.085   6.691  0.00  0.00    +0.101 C 
ATOM      5  C   UNL     1      -4.915   3.973   5.459  0.00  0.00    +0.033 C 
ATOM      6  C   UNL     1      -4.200   3.343   4.262  0.00  0.00    +0.107 C 
ATOM      7  N   UNL     1      -2.769   3.205   4.561  0.00  0.00    -0.317 N 
ATOM      8  C   UNL     1      -2.551   2.319   5.712  0.00  0.00    +0.107 C 
ATOM      9  C   UNL     1      -3.217   2.918   6.953  0.00  0.00    +0.033 C 
BRANCH   7  10
ATOM     10  C   UNL     1      -2.068   2.757   3.448  0.00  0.00    +0.099 A 
ATOM     11  C   UNL     1      -0.692   2.563   3.532  0.00  0.00    +0.042 A 
ATOM     12  C   UNL     1      -0.007   2.118   2.416  0.00  0.00    +0.017 A 
ATOM     13  C   UNL     1      -0.722   1.881   1.250  0.00  0.00    +0.071 A 
ATOM     14  C   UNL     1      -2.085   2.100   1.236  0.00  0.00    +0.096 A 
ATOM     15  N   UNL     1      -2.792   2.532   2.314  0.00  0.00    -0.349 N 
ATOM     16  H   UNL     1      -3.808   2.679   2.277  0.00  0.00    +0.167 HD
BRANCH  13  17
ATOM     17  C   UNL     1      -0.017   1.395   0.010  0.00  0.00    +0.419 C 
ATOM     18  F   UNL     1       0.002  -0.004   0.002  0.00  0.00    -0.166 F 
ATOM     19  F   UNL     1       1.296   1.879  -0.000  0.00  0.00    -0.166 F 
ATOM     20  F   UNL     1      -0.694   1.858  -1.124  0.00  0.00    -0.166 F 
ENDBRANCH  13  17
ENDBRANCH   7  10
ENDBRANCH   2   4
ENDBRANCH   1   2
BRANCH   1  21
ATOM     21  C   UNL     1      -5.971   3.803  10.191  0.00  0.00    +0.329 C 
BRANCH  21  23
ATOM     22  N   UNL     1      -6.341   3.418  12.606  0.00  0.00    -0.231 N 
ATOM     23  C   UNL     1      -5.814   2.982  11.445  0.00  0.00    +0.267 C 
ATOM     24  O   UNL     1      -5.214   1.929  11.409  0.00  0.00    -0.271 OA
ATOM     25  H   UNL     1      -6.822   4.260  12.635  0.00  0.00    +0.173 HD
BRANCH  22  28
ATOM     26  C   UNL     1      -6.723   3.090  14.933  0.00  0.00    +0.260 C 
ATOM     27  O   UNL     1      -7.325   4.146  14.969  0.00  0.00    -0.269 OA
ATOM     28  N   UNL     1      -6.196   2.655  13.772  0.00  0.00    -0.230 N 
ATOM     29  H   UNL     1      -5.716   1.812  13.743  0.00  0.00    +0.173 HD
BRANCH  26  35
ATOM     30  C   UNL     1      -5.884   1.069  16.124  0.00  0.00    +0.015 A 
ATOM     31  C   UNL     1      -5.741   0.324  17.277  0.00  0.00    +0.033 A 
ATOM     32  C   UNL     1      -6.283   0.775  18.467  0.00  0.00    +0.126 A 
ATOM     33  C   UNL     1      -6.968   1.976  18.512  0.00  0.00    +0.033 A 
ATOM     34  C   UNL     1      -7.114   2.733  17.368  0.00  0.00    +0.015 A 
ATOM     35  C   UNL     1      -6.570   2.285  16.163  0.00  0.00    +0.038 A 
BRANCH  32  36
ATOM     36  N   UNL     1      -6.130  -0.032  19.698  0.00  0.00    +0.056 N 
ATOM     37  O   UNL     1      -6.606   0.362  20.748  0.00  0.00    -0.126 OA
ATOM     38  O   UNL     1      -5.528  -1.090  19.662  0.00  0.00    -0.126 OA
ENDBRANCH  32  36
ENDBRANCH  26  35
ENDBRANCH  22  28
ENDBRANCH  21  23
ENDBRANCH   1  21
TORSDOF 9
