REMARK  Name = ZINC09298079
REMARK  8 active torsions:
REMARK  status: ('A' for Active; 'I' for Inactive)
REMARK    1  A    between atoms: C_1  and  C_2
REMARK    2  A    between atoms: C_9  and  N_18
REMARK    3  A    between atoms: C_10  and  C_11
REMARK    4  A    between atoms: C_14  and  O_16
REMARK    5  A    between atoms: O_16  and  C_17
REMARK    6  A    between atoms: C_19  and  C_21
REMARK    7  A    between atoms: C_22  and  C_23
REMARK    8  A    between atoms: C_27  and  N_29
REMARK                            x       y       z     vdW  Elec       q    Type
REMARK                         _______ _______ _______ _____ _____    ______ ____
ROOT
ATOM      1  C   UNL     1      -2.112  15.910   0.188  0.00  0.00    +0.008 C 
ATOM      2  C   UNL     1      -2.559  14.474   0.470  0.00  0.00    -0.009 C 
ATOM      3  C   UNL     1      -3.808  14.150  -0.356  0.00  0.00    +0.008 C 
ATOM      4  C   UNL     1      -4.403  12.817   0.101  0.00  0.00    +0.037 C 
ATOM      5  C   UNL     1      -3.306  11.760   0.087  0.00  0.00    -0.023 A 
ATOM      6  C   UNL     1      -2.002  12.111   0.076  0.00  0.00    -0.004 A 
ATOM      7  S   UNL     1      -1.119  10.576   0.061  0.00  0.00    -0.077 S 
ATOM      8  C   UNL     1      -2.462   9.481   0.070  0.00  0.00    +0.085 A 
ATOM      9  C   UNL     1      -3.562  10.330   0.079  0.00  0.00    +0.069 A 
ATOM     10  C   UNL     1      -1.440  13.499   0.077  0.00  0.00    +0.046 C 
ENDROOT
BRANCH   9  11
ATOM     11  C   UNL     1      -4.928   9.802   0.083  0.00  0.00    +0.255 C 
ATOM     12  O   UNL     1      -5.491   9.579   1.138  0.00  0.00    -0.270 OA
ATOM     13  N   UNL     1      -5.562   9.564  -1.082  0.00  0.00    -0.217 N 
ATOM     14  C   UNL     1      -6.820   9.079  -1.079  0.00  0.00    +0.407 C 
ATOM     15  O   UNL     1      -7.382   8.856  -0.025  0.00  0.00    -0.226 OA
ATOM     16  H   UNL     1      -5.114   9.742  -1.924  0.00  0.00    +0.161 HD
BRANCH  14  17
ATOM     17  O   UNL     1      -7.453   8.841  -2.242  0.00  0.00    -0.453 OA
ATOM     18  C   UNL     1      -8.805   8.319  -2.162  0.00  0.00    +0.282 C 
ENDBRANCH  14  17
ENDBRANCH   9  11
BRANCH   8  19
ATOM     19  N   UNL     1      -2.443   8.097   0.064  0.00  0.00    -0.276 N 
ATOM     20  C   UNL     1      -1.267   7.439   0.049  0.00  0.00    +0.241 C 
ATOM     21  O   UNL     1      -0.221   8.062   0.042  0.00  0.00    -0.270 OA
ATOM     22  H   UNL     1      -3.276   7.601   0.070  0.00  0.00    +0.156 HD
BRANCH  20  23
ATOM     23  C   UNL     1      -1.247   5.976   0.043  0.00  0.00    +0.068 C 
ATOM     24  C   UNL     1      -0.070   5.317   0.028  0.00  0.00    +0.013 C 
BRANCH  24  25
ATOM     25  C   UNL     1      -0.050   3.846   0.022  0.00  0.00    -0.023 A 
ATOM     26  C   UNL     1      -1.250   3.126   0.030  0.00  0.00    +0.008 A 
ATOM     27  C   UNL     1      -1.223   1.748   0.017  0.00  0.00    +0.003 A 
ATOM     28  C   UNL     1      -0.013   1.076   0.008  0.00  0.00    +0.033 A 
ATOM     29  C   UNL     1       1.178   1.780   0.000  0.00  0.00    +0.127 A 
ATOM     30  C   UNL     1       1.168   3.159   0.007  0.00  0.00    +0.040 A 
BRANCH  29  31
ATOM     31  N   UNL     1       2.467   1.052  -0.015  0.00  0.00    +0.056 N 
ATOM     32  O   UNL     1       2.478  -0.166  -0.022  0.00  0.00    -0.126 OA
ATOM     33  O   UNL     1       3.516   1.671  -0.022  0.00  0.00    -0.126 OA
ENDBRANCH  29  31
ENDBRANCH  24  25
ENDBRANCH  20  23
ENDBRANCH   8  19
TORSDOF 6
