REMARK  Name = ZINC42858714
REMARK  8 active torsions:
REMARK  status: ('A' for Active; 'I' for Inactive)
REMARK    1  A    between atoms: C_1  and  C_2
REMARK    2  A    between atoms: C_8  and  C_10
REMARK    3  A    between atoms: C_10  and  N_11
REMARK    4  A    between atoms: N_11  and  C_12
REMARK    5  A    between atoms: C_12  and  C_14
REMARK    6  A    between atoms: C_12  and  C_15
REMARK    7  A    between atoms: C_19  and  S_21
REMARK    8  A    between atoms: S_21  and  N_24
REMARK                            x       y       z     vdW  Elec       q    Type
REMARK                         _______ _______ _______ _____ _____    ______ ____
ROOT
ATOM      1  C   UNL     1      -0.023  -0.127   4.896  0.00  0.00    -0.044 C 
ATOM      2  C   UNL     1      -1.458  -0.657   4.907  0.00  0.00    -0.009 C 
ENDROOT
BRANCH   1   3
ATOM      3  C   UNL     1       0.706  -0.627   6.117  0.00  0.00    -0.060 A 
ATOM      4  C   UNL     1       1.222  -1.909   6.138  0.00  0.00    +0.002 A 
ATOM      5  C   UNL     1       1.890  -2.367   7.258  0.00  0.00    +0.002 A 
ATOM      6  C   UNL     1       2.043  -1.542   8.357  0.00  0.00    +0.028 A 
ATOM      7  C   UNL     1       1.529  -0.260   8.335  0.00  0.00    +0.105 A 
ATOM      8  C   UNL     1       0.864   0.200   7.214  0.00  0.00    +0.030 A 
BRANCH   7   9
ATOM      9  S   UNL     1       1.724   0.791   9.736  0.00  0.00    +0.056 S 
ATOM     10  O   UNL     1       0.678   1.752   9.672  0.00  0.00    -0.153 OA
ATOM     11  O   UNL     1       1.909  -0.059  10.859  0.00  0.00    -0.153 OA
BRANCH   9  12
ATOM     12  N   UNL     1       3.142   1.621   9.532  0.00  0.00    -0.204 NA
ATOM     13  H   UNL     1       3.683   1.470   8.741  0.00  0.00    +0.144 HD
ATOM     14  H   UNL     1       3.432   2.258  10.204  0.00  0.00    +0.144 HD
ENDBRANCH   9  12
ENDBRANCH   7   9
ENDBRANCH   1   3
BRANCH   1  15
ATOM     15  N   UNL     1       0.664  -0.601   3.688  0.00  0.00    +0.384 N 
ATOM     16  H   UNL     1       0.607  -1.607   3.640  0.00  0.00    -0.085 HD
ATOM     17  H   UNL     1       1.633  -0.321   3.720  0.00  0.00    -0.085 HD
BRANCH  15  18
ATOM     18  C   UNL     1       0.026  -0.018   2.500  0.00  0.00    -0.078 C 
BRANCH  18  25
ATOM     19  C   UNL     1      -0.019   1.526   0.010  0.00  0.00    +0.008 C 
ATOM     20  C   UNL     1       0.002  -0.004   0.002  0.00  0.00    -0.013 C 
ATOM     21  C   UNL     1       0.718  -0.497  -1.257  0.00  0.00    +0.003 C 
ATOM     22  C   UNL     1       2.154   0.032  -1.268  0.00  0.00    +0.000 C 
ATOM     23  C   UNL     1       2.894  -0.475  -0.028  0.00  0.00    +0.000 C 
ATOM     24  C   UNL     1       2.178   0.019   1.231  0.00  0.00    +0.002 C 
ATOM     25  C   UNL     1       0.742  -0.511   1.242  0.00  0.00    -0.025 C 
ENDBRANCH  18  25
ENDBRANCH  15  18
ENDBRANCH   1  15
TORSDOF 6
