REMARK  Name = ZINC64020291
REMARK  5 active torsions:
REMARK  status: ('A' for Active; 'I' for Inactive)
REMARK    1  A    between atoms: C_1  and  C_2
REMARK    2  A    between atoms: N_4  and  C_5
REMARK    3  A    between atoms: C_15  and  C_17
REMARK    4  A    between atoms: C_17  and  C_18
REMARK    5  A    between atoms: C_18  and  C_19
REMARK                            x       y       z     vdW  Elec       q    Type
REMARK                         _______ _______ _______ _____ _____    ______ ____
ROOT
ATOM      1  C   UNL     1      -0.074  -2.069  -1.226  0.00  0.00    +0.035 A 
ATOM      2  C   UNL     1      -0.159  -2.820  -0.056  0.00  0.00    +0.025 A 
ATOM      3  C   UNL     1      -0.232  -4.177  -0.085  0.00  0.00    +0.031 A 
ATOM      4  C   UNL     1      -0.224  -4.880  -1.312  0.00  0.00    +0.080 A 
ATOM      5  C   UNL     1      -0.137  -4.094  -2.483  0.00  0.00    +0.043 A 
ATOM      6  C   UNL     1      -0.070  -2.724  -2.451  0.00  0.00    +0.040 A 
ATOM      7  S   UNL     1      -0.156  -5.323  -3.766  0.00  0.00    -0.052 S 
ATOM      8  C   UNL     1      -0.274  -6.755  -2.704  0.00  0.00    +0.165 A 
ATOM      9  N   UNL     1      -0.289  -6.216  -1.508  0.00  0.00    -0.225 NA
ATOM     10  N   UNL     1      -0.334  -8.095  -3.054  0.00  0.00    -0.265 N 
ATOM     11  C   UNL     1      -0.420  -9.039  -2.096  0.00  0.00    +0.219 C 
ATOM     12  O   UNL     1      -0.446  -8.716  -0.927  0.00  0.00    -0.275 OA
ATOM     13  H   UNL     1      -0.313  -8.353  -3.989  0.00  0.00    +0.157 HD
ENDROOT
BRANCH   1  17
ATOM     14  C   UNL     1       0.685   1.512  -2.108  0.00  0.00    +0.109 C 
ATOM     15  C   UNL     1       0.702   0.005  -2.099  0.00  0.00    +0.214 C 
ATOM     16  O   UNL     1       1.347  -0.599  -2.930  0.00  0.00    -0.276 OA
ATOM     17  N   UNL     1       0.000  -0.672  -1.169  0.00  0.00    -0.286 N 
ATOM     18  H   UNL     1      -0.454  -0.191  -0.459  0.00  0.00    +0.155 HD
ENDBRANCH   1  17
BRANCH  11  19
ATOM     19  C   UNL     1      -0.486 -10.495  -2.477  0.00  0.00    +0.100 C 
BRANCH  19  20
ATOM     20  C   UNL     1      -0.579 -11.350  -1.212  0.00  0.00    +0.042 C 
BRANCH  20  21
ATOM     21  C   UNL     1      -0.644 -12.806  -1.593  0.00  0.00    -0.041 C 
ATOM     22  C   UNL     1       0.390 -13.676  -1.662  0.00  0.00    -0.001 A 
ATOM     23  C   UNL     1       1.829 -13.531  -1.415  0.00  0.00    +0.010 A 
ATOM     24  C   UNL     1       2.633 -14.607  -1.571  0.00  0.00    +0.001 A 
ATOM     25  C   UNL     1       2.127 -15.854  -1.964  0.00  0.00    +0.002 A 
ATOM     26  C   UNL     1       0.817 -16.065  -2.209  0.00  0.00    +0.026 A 
ATOM     27  C   UNL     1      -0.119 -15.003  -2.075  0.00  0.00    +0.043 A 
ATOM     28  N   UNL     1      -1.417 -14.956  -2.254  0.00  0.00    -0.380 N 
ATOM     29  C   UNL     1      -1.880 -13.594  -1.968  0.00  0.00    +0.144 C 
ATOM     30  H   UNL     1      -1.979 -15.699  -2.526  0.00  0.00    +0.160 HD
ENDBRANCH  20  21
ENDBRANCH  19  20
ENDBRANCH  11  19
TORSDOF 4
