REMARK  Name = ZINC34830334
REMARK  12 active torsions:
REMARK  status: ('A' for Active; 'I' for Inactive)
REMARK    1  A    between atoms: C_1  and  C_2
REMARK    2  A    between atoms: C_2  and  C_3
REMARK    3  A    between atoms: C_3  and  C_4
REMARK    4  A    between atoms: C_4  and  C_5
REMARK    5  A    between atoms: C_5  and  C_7
REMARK    6  A    between atoms: C_5  and  C_9
REMARK    7  A    between atoms: C_7  and  C_8
REMARK    8  A    between atoms: C_17  and  C_19
REMARK    9  A    between atoms: C_19  and  C_21
REMARK   10  A    between atoms: C_19  and  N_22
REMARK   11  A    between atoms: C_30  and  C_32
REMARK   12  A    between atoms: C_37  and  C_38
REMARK                            x       y       z     vdW  Elec       q    Type
REMARK                         _______ _______ _______ _____ _____    ______ ____
ROOT
ATOM      1  C   UNL     1       1.844  -9.068   6.459  0.00  0.00    +0.018 C 
ATOM      2  C   UNL     1       0.419  -9.624   6.509  0.00  0.00    -0.004 C 
ENDROOT
BRANCH   1  11
ATOM      3  C   UNL     1       1.200  -4.173   2.800  0.00  0.00    +0.219 C 
ATOM      4  O   UNL     1       0.823  -4.559   1.714  0.00  0.00    -0.275 OA
ATOM      5  N   UNL     1       1.647  -5.058   3.712  0.00  0.00    -0.298 N 
ATOM      6  C   UNL     1       2.212  -4.597   4.988  0.00  0.00    +0.126 C 
ATOM      7  C   UNL     1       1.444  -5.267   6.135  0.00  0.00    +0.126 C 
ATOM      8  N   UNL     1       1.375  -6.712   5.872  0.00  0.00    -0.300 N 
ATOM      9  C   UNL     1       0.810  -7.173   4.596  0.00  0.00    +0.126 C 
ATOM     10  C   UNL     1       1.572  -6.503   3.452  0.00  0.00    +0.126 C 
ATOM     11  C   UNL     1       1.821  -7.597   6.785  0.00  0.00    +0.202 C 
ATOM     12  O   UNL     1       2.205  -7.210   7.868  0.00  0.00    -0.277 OA
BRANCH   3  13
ATOM     13  C   UNL     1       1.169  -2.703   3.129  0.00  0.00    +0.075 C 
BRANCH  13  14
ATOM     14  C   UNL     1      -0.016  -2.046   2.418  0.00  0.00    +0.009 C 
ATOM     15  C   UNL     1      -1.324  -2.600   2.988  0.00  0.00    +0.004 C 
ENDBRANCH  13  14
BRANCH  13  16
ATOM     16  C   UNL     1       2.470  -2.048   2.662  0.00  0.00    +0.013 C 
BRANCH  16  17
ATOM     17  C   UNL     1       2.493  -0.584   3.106  0.00  0.00    +0.000 C 
BRANCH  17  19
ATOM     18  C   UNL     1       3.817   1.535   3.083  0.00  0.00    +0.004 C 
ATOM     19  C   UNL     1       3.794   0.071   2.638  0.00  0.00    -0.003 C 
ENDBRANCH  17  19
ENDBRANCH  16  17
ENDBRANCH  13  16
ENDBRANCH   3  13
ENDBRANCH   1  11
BRANCH   1  20
ATOM     20  N   UNL     1       2.680  -9.774   7.439  0.00  0.00    +0.395 N 
ATOM     21  C   UNL     1       2.031  -9.719   8.756  0.00  0.00    -0.071 C 
ATOM     22  C   UNL     1       3.045 -10.156   9.828  0.00  0.00    +0.024 C 
ATOM     23  C   UNL     1       3.698 -11.410   9.345  0.00  0.00    -0.010 A 
ATOM     24  C   UNL     1       3.645 -11.914   8.080  0.00  0.00    -0.047 A 
ATOM     25  C   UNL     1       4.330 -13.106   7.857  0.00  0.00    +0.010 A 
ATOM     26  C   UNL     1       5.003 -13.700   8.870  0.00  0.00    +0.045 A 
ATOM     27  S   UNL     1       4.697 -12.575  10.225  0.00  0.00    -0.101 S 
ATOM     28  C   UNL     1       2.863 -11.164   7.006  0.00  0.00    -0.005 C 
ATOM     29  H   UNL     1       3.580  -9.322   7.494  0.00  0.00    -0.079 HD
BRANCH  28  30
ATOM     30  C   UNL     1       3.631 -11.193   5.710  0.00  0.00    -0.054 A 
ATOM     31  C   UNL     1       4.531 -10.185   5.417  0.00  0.00    +0.002 A 
ATOM     32  C   UNL     1       5.236 -10.211   4.228  0.00  0.00    +0.000 A 
ATOM     33  C   UNL     1       5.040 -11.245   3.331  0.00  0.00    +0.000 A 
ATOM     34  C   UNL     1       4.140 -12.252   3.624  0.00  0.00    +0.003 A 
ATOM     35  C   UNL     1       3.439 -12.229   4.815  0.00  0.00    -0.049 A 
ATOM     36  C   UNL     1       2.462 -13.330   5.136  0.00  0.00    +0.044 C 
ENDBRANCH  28  30
ENDBRANCH   1  20
TORSDOF 8
