REMARK  Name = ZINC39710404
REMARK  11 active torsions:
REMARK  status: ('A' for Active; 'I' for Inactive)
REMARK    1  A    between atoms: C_1  and  C_2
REMARK    2  A    between atoms: C_2  and  C_3
REMARK    3  A    between atoms: C_10  and  C_15
REMARK    4  A    between atoms: C_15  and  C_17
REMARK    5  A    between atoms: C_15  and  N_26
REMARK    6  A    between atoms: N_21  and  C_22
REMARK    7  A    between atoms: C_22  and  C_23
REMARK    8  A    between atoms: C_23  and  O_24
REMARK    9  A    between atoms: O_24  and  C_25
REMARK   10  A    between atoms: N_29  and  C_32
REMARK   11  A    between atoms: C_35  and  N_38
REMARK                            x       y       z     vdW  Elec       q    Type
REMARK                         _______ _______ _______ _____ _____    ______ ____
ROOT
ATOM      1  C   UNL     1      -5.678  -3.611  -2.767  0.00  0.00    +0.142 C 
ENDROOT
BRANCH   1   9
ATOM      2  C   UNL     1      -7.836   1.625  -4.172  0.00  0.00    -0.047 A 
ATOM      3  C   UNL     1      -6.628   2.256  -3.875  0.00  0.00    +0.005 A 
ATOM      4  C   UNL     1      -5.619   1.632  -3.213  0.00  0.00    +0.024 A 
ATOM      5  C   UNL     1      -5.758   0.297  -2.792  0.00  0.00    +0.040 A 
ATOM      6  N   UNL     1      -4.762  -0.304  -2.142  0.00  0.00    -0.284 N 
ATOM      7  C   UNL     1      -4.827  -1.556  -1.719  0.00  0.00    +0.226 C 
ATOM      8  O   UNL     1      -3.884  -2.051  -1.131  0.00  0.00    -0.275 OA
ATOM      9  C   UNL     1      -6.077  -2.368  -1.969  0.00  0.00    +0.123 C 
ATOM     10  C   UNL     1      -7.214  -1.688  -2.707  0.00  0.00    -0.003 C 
ATOM     11  C   UNL     1      -7.024  -0.394  -3.091  0.00  0.00    -0.007 A 
ATOM     12  C   UNL     1      -8.071   0.339  -3.804  0.00  0.00    +0.013 A 
ATOM     13  H   UNL     1      -3.951   0.200  -1.972  0.00  0.00    +0.155 HD
BRANCH   2  15
ATOM     14  C   UNL     1      -9.807   3.105  -3.903  0.00  0.00    +0.009 C 
ATOM     15  C   UNL     1      -8.905   2.388  -4.910  0.00  0.00    +0.032 C 
ENDBRANCH   2  15
ENDBRANCH   1   9
BRANCH   1  16
ATOM     16  N   UNL     1      -6.884  -4.359  -3.144  0.00  0.00    -0.289 NA
ATOM     17  C   UNL     1      -7.612  -4.820  -1.954  0.00  0.00    +0.104 C 
ATOM     18  C   UNL     1      -8.949  -5.434  -2.382  0.00  0.00    +0.120 C 
ATOM     19  N   UNL     1      -8.684  -6.472  -3.389  0.00  0.00    -0.327 N 
ATOM     20  C   UNL     1      -7.845  -6.123  -4.546  0.00  0.00    +0.120 C 
ATOM     21  C   UNL     1      -6.552  -5.481  -4.032  0.00  0.00    +0.104 C 
BRANCH  19  22
ATOM     22  C   UNL     1      -9.216  -7.757  -3.252  0.00  0.00    +0.030 A 
ATOM     23  C   UNL     1     -10.081  -8.043  -2.203  0.00  0.00    +0.025 A 
ATOM     24  C   UNL     1     -10.605  -9.314  -2.070  0.00  0.00    +0.034 A 
ATOM     25  C   UNL     1     -10.270 -10.300  -2.979  0.00  0.00    +0.126 A 
ATOM     26  C   UNL     1      -9.409 -10.019  -4.024  0.00  0.00    +0.034 A 
ATOM     27  C   UNL     1      -8.885  -8.749  -4.166  0.00  0.00    +0.025 A 
BRANCH  25  28
ATOM     28  N   UNL     1     -10.833 -11.661  -2.833  0.00  0.00    +0.056 N 
ATOM     29  O   UNL     1     -11.585 -11.909  -1.920  0.00  0.00    -0.126 OA
ATOM     30  O   UNL     1     -10.540 -12.525  -3.627  0.00  0.00    -0.126 OA
ENDBRANCH  25  28
ENDBRANCH  19  22
ENDBRANCH   1  16
BRANCH   1  31
ATOM     31  C   UNL     1      -4.788  -4.486  -1.921  0.00  0.00    +0.170 A 
ATOM     32  N   UNL     1      -5.101  -5.050  -0.780  0.00  0.00    -0.112 NA
ATOM     33  N   UNL     1      -4.077  -5.715  -0.371  0.00  0.00    -0.023 NA
ATOM     34  N   UNL     1      -3.118  -5.590  -1.222  0.00  0.00    -0.044 NA
ATOM     35  N   UNL     1      -3.519  -4.844  -2.194  0.00  0.00    -0.225 N 
BRANCH  35  36
ATOM     36  C   UNL     1      -2.740  -4.456  -3.372  0.00  0.00    +0.175 C 
BRANCH  36  37
ATOM     37  C   UNL     1      -2.001  -3.147  -3.086  0.00  0.00    +0.183 C 
BRANCH  37  38
ATOM     38  O   UNL     1      -1.264  -2.753  -4.246  0.00  0.00    -0.381 OA
ATOM     39  C   UNL     1      -0.533  -1.536  -4.084  0.00  0.00    +0.194 C 
ENDBRANCH  37  38
ENDBRANCH  36  37
ENDBRANCH  35  36
ENDBRANCH   1  31
TORSDOF 9
