REMARK  Name = ZINC13141029
REMARK  9 active torsions:
REMARK  status: ('A' for Active; 'I' for Inactive)
REMARK    1  A    between atoms: C_1  and  C_2
REMARK    2  A    between atoms: C_2  and  C_3
REMARK    3  A    between atoms: C_2  and  N_4
REMARK    4  A    between atoms: C_8  and  C_10
REMARK    5  A    between atoms: C_10  and  S_11
REMARK    6  A    between atoms: S_11  and  C_12
REMARK    7  A    between atoms: C_15  and  C_23
REMARK    8  A    between atoms: N_16  and  C_17
REMARK    9  A    between atoms: C_23  and  C_24
REMARK                            x       y       z     vdW  Elec       q    Type
REMARK                         _______ _______ _______ _____ _____    ______ ____
ROOT
ATOM      1  C   UNL     1      -2.962   4.232   0.005  0.00  0.00    +0.192 A 
ATOM      2  N   UNL     1      -4.094   3.583  -0.140  0.00  0.00    -0.122 NA
ATOM      3  N   UNL     1      -5.081   4.403  -0.054  0.00  0.00    -0.133 NA
ATOM      4  C   UNL     1      -4.641   5.612   0.149  0.00  0.00    +0.139 A 
ATOM      5  N   UNL     1      -3.276   5.547   0.199  0.00  0.00    -0.303 N 
ENDROOT
BRANCH   5   6
ATOM      6  C   UNL     1      -2.344   6.656   0.414  0.00  0.00    +0.091 C 
ATOM      7  C   UNL     1      -1.408   6.776  -0.790  0.00  0.00    +0.025 C 
ATOM      8  C   UNL     1      -0.434   7.935  -0.566  0.00  0.00    +0.002 C 
ATOM      9  C   UNL     1       0.389   7.673   0.696  0.00  0.00    +0.000 C 
ATOM     10  C   UNL     1      -0.547   7.553   1.900  0.00  0.00    +0.002 C 
ATOM     11  C   UNL     1      -1.520   6.394   1.676  0.00  0.00    +0.025 C 
ENDBRANCH   5   6
BRANCH   1  12
ATOM     12  S   UNL     1      -1.343   3.537  -0.037  0.00  0.00    -0.077 S 
BRANCH  12  13
ATOM     13  C   UNL     1      -1.756   1.797  -0.320  0.00  0.00    +0.173 C 
BRANCH  13  18
ATOM     14  N   UNL     1       0.521  -2.400  -0.877  0.00  0.00    -0.297 N 
ATOM     15  C   UNL     1       0.584  -1.069  -0.671  0.00  0.00    +0.306 C 
ATOM     16  O   UNL     1       1.663  -0.523  -0.549  0.00  0.00    -0.252 OA
ATOM     17  N   UNL     1      -0.550  -0.344  -0.600  0.00  0.00    -0.239 N 
ATOM     18  C   UNL     1      -0.488   0.986  -0.393  0.00  0.00    +0.231 C 
ATOM     19  O   UNL     1       0.588   1.531  -0.272  0.00  0.00    -0.274 OA
ATOM     20  H   UNL     1      -0.340  -2.836  -0.975  0.00  0.00    +0.151 HD
ATOM     21  H   UNL     1      -1.411  -0.780  -0.697  0.00  0.00    +0.159 HD
BRANCH  14  23
ATOM     22  C   UNL     1       1.457  -4.638  -0.571  0.00  0.00    +0.027 C 
ATOM     23  C   UNL     1       1.754  -3.188  -0.955  0.00  0.00    +0.068 C 
ATOM     24  C   UNL     1       2.301  -3.140  -2.383  0.00  0.00    +0.027 C 
ENDBRANCH  14  23
ENDBRANCH  13  18
ENDBRANCH  12  13
ENDBRANCH   1  12
BRANCH   4  25
ATOM     25  C   UNL     1      -5.481   6.854   0.305  0.00  0.00    +0.112 C 
BRANCH  25  26
ATOM     26  C   UNL     1      -5.816   7.408  -1.056  0.00  0.00    -0.032 A 
ATOM     27  C   UNL     1      -5.072   8.417  -1.585  0.00  0.00    +0.004 A 
ATOM     28  C   UNL     1      -5.366   8.943  -2.842  0.00  0.00    +0.001 A 
ATOM     29  C   UNL     1      -6.407   8.461  -3.577  0.00  0.00    +0.008 A 
ATOM     30  C   UNL     1      -7.197   7.420  -3.063  0.00  0.00    -0.018 A 
ATOM     31  C   UNL     1      -6.894   6.882  -1.787  0.00  0.00    -0.014 A 
ATOM     32  C   UNL     1      -7.688   5.843  -1.272  0.00  0.00    +0.009 A 
ATOM     33  C   UNL     1      -8.728   5.362  -2.006  0.00  0.00    +0.001 A 
ATOM     34  C   UNL     1      -9.023   5.888  -3.263  0.00  0.00    +0.001 A 
ATOM     35  C   UNL     1      -8.279   6.897  -3.792  0.00  0.00    +0.008 A 
ENDBRANCH  25  26
ENDBRANCH   4  25
TORSDOF 7
