REMARK  Name = ZINC45069166
REMARK  9 active torsions:
REMARK  status: ('A' for Active; 'I' for Inactive)
REMARK    1  A    between atoms: C_1  and  O_2
REMARK    2  A    between atoms: O_2  and  C_3
REMARK    3  A    between atoms: C_4  and  C_11
REMARK    4  A    between atoms: C_11  and  N_12
REMARK    5  A    between atoms: N_12  and  C_13
REMARK    6  A    between atoms: C_13  and  C_14
REMARK    7  A    between atoms: C_14  and  C_15
REMARK    8  A    between atoms: C_15  and  S_16
REMARK    9  A    between atoms: S_16  and  N_19
REMARK                            x       y       z     vdW  Elec       q    Type
REMARK                         _______ _______ _______ _____ _____    ______ ____
ROOT
ATOM      1  N   UNL     1      -1.714   0.791   2.736  0.00  0.00    +0.382 N 
ATOM      2  H   UNL     1      -1.260   1.418   2.089  0.00  0.00    -0.085 HD
ATOM      3  H   UNL     1      -2.714   0.906   2.669  0.00  0.00    -0.085 HD
ENDROOT
BRANCH   1   4
ATOM      4  C   UNL     1      -1.357  -0.595   2.407  0.00  0.00    -0.043 C 
BRANCH   4   6
ATOM      5  C   UNL     1      -1.262  -0.495  -0.097  0.00  0.00    +0.135 A 
ATOM      6  C   UNL     1      -1.904  -0.946   1.047  0.00  0.00    -0.021 A 
ATOM      7  C   UNL     1      -3.046  -1.716   0.939  0.00  0.00    +0.020 A 
ATOM      8  C   UNL     1      -3.549  -2.038  -0.309  0.00  0.00    +0.019 A 
ATOM      9  C   UNL     1      -2.910  -1.591  -1.451  0.00  0.00    +0.034 A 
ATOM     10  C   UNL     1      -1.770  -0.816  -1.348  0.00  0.00    +0.061 A 
ATOM     11 BR   UNL     1      -0.901  -0.197  -2.909  0.00  0.00    -0.046 Br
ATOM     12 BR   UNL     1      -5.112  -3.093  -0.453  0.00  0.00    -0.050 Br
BRANCH   5  14
ATOM     13  C   UNL     1       1.114  -0.426  -0.011  0.00  0.00    +0.277 C 
ATOM     14  O   UNL     1      -0.138   0.263   0.007  0.00  0.00    -0.494 OA
ENDBRANCH   5  14
ENDBRANCH   4   6
ENDBRANCH   1   4
BRANCH   1  15
ATOM     15  C   UNL     1      -1.277   1.098   4.104  0.00  0.00    -0.081 C 
BRANCH  15  16
ATOM     16  C   UNL     1      -1.649   2.542   4.447  0.00  0.00    +0.005 C 
BRANCH  16  17
ATOM     17  C   UNL     1      -1.193   2.861   5.872  0.00  0.00    +0.183 C 
BRANCH  17  18
ATOM     18  S   UNL     1      -1.634   4.573   6.279  0.00  0.00    +0.027 S 
ATOM     19  O   UNL     1      -0.866   5.476   5.495  0.00  0.00    -0.158 OA
ATOM     20  O   UNL     1      -3.046   4.708   6.363  0.00  0.00    -0.158 OA
BRANCH  18  21
ATOM     21  N   UNL     1      -1.095   4.795   7.828  0.00  0.00    -0.208 NA
ATOM     22  H   UNL     1      -0.652   4.070   8.297  0.00  0.00    +0.144 HD
ATOM     23  H   UNL     1      -1.221   5.651   8.268  0.00  0.00    +0.144 HD
ENDBRANCH  18  21
ENDBRANCH  17  18
ENDBRANCH  16  17
ENDBRANCH  15  16
ENDBRANCH   1  15
TORSDOF 8
