REMARK  Name = ZINC06136819
REMARK  16 active torsions:
REMARK  status: ('A' for Active; 'I' for Inactive)
REMARK    1  A    between atoms: C_1  and  C_2
REMARK    2  A    between atoms: C_3  and  C_34
REMARK    3  A    between atoms: C_4  and  C_25
REMARK    4  A    between atoms: C_10  and  C_15
REMARK    5  A    between atoms: C_18  and  O_23
REMARK    6  A    between atoms: C_19  and  O_21
REMARK    7  A    between atoms: O_21  and  C_22
REMARK    8  A    between atoms: O_23  and  C_24
REMARK    9  A    between atoms: C_28  and  O_33
REMARK   10  A    between atoms: C_29  and  O_31
REMARK   11  A    between atoms: O_31  and  C_32
REMARK   12  A    between atoms: C_34  and  O_36
REMARK   13  A    between atoms: O_36  and  C_37
REMARK   14  A    between atoms: C_37  and  C_38
REMARK   15  A    between atoms: C_38  and  C_39
REMARK   16  A    between atoms: C_38  and  C_40
REMARK                            x       y       z     vdW  Elec       q    Type
REMARK                         _______ _______ _______ _____ _____    ______ ____
ROOT
ATOM      1  C   UNL     1      -0.022   1.086   0.002  0.00  0.00    +0.061 C 
ATOM      2  C   UNL     1      -0.724   1.572   1.243  0.00  0.00    +0.031 C 
ATOM      3  C   UNL     1      -0.860   2.892   1.460  0.00  0.00    +0.154 C 
ATOM      4  C   UNL     1      -1.554   3.412   2.686  0.00  0.00    +0.073 C 
ATOM      5  C   UNL     1      -2.390   2.336   3.332  0.00  0.00    +0.025 C 
ATOM      6  C   UNL     1      -2.178   1.036   3.046  0.00  0.00    +0.049 C 
ATOM      7  N   UNL     1      -1.218   0.668   2.142  0.00  0.00    -0.260 NA
ATOM      8  C   UNL     1      -3.002  -0.049   3.699  0.00  0.00    +0.064 C 
ATOM      9  C   UNL     1      -4.401   0.483   4.010  0.00  0.00    +0.032 C 
ATOM     10  C   UNL     1      -4.267   1.710   4.918  0.00  0.00    +0.088 C 
ATOM     11  C   UNL     1      -3.388   2.726   4.241  0.00  0.00    +0.162 C 
ATOM     12  O   UNL     1      -3.545   3.906   4.486  0.00  0.00    -0.292 OA
ENDROOT
BRANCH   9  13
ATOM     13  C   UNL     1      -5.207  -0.580   4.712  0.00  0.00    -0.040 A 
ATOM     14  C   UNL     1      -4.763  -1.102   5.912  0.00  0.00    +0.008 A 
ATOM     15  C   UNL     1      -5.498  -2.078   6.560  0.00  0.00    +0.049 A 
ATOM     16  C   UNL     1      -6.684  -2.534   6.005  0.00  0.00    +0.161 A 
ATOM     17  C   UNL     1      -7.131  -2.008   4.797  0.00  0.00    +0.162 A 
ATOM     18  C   UNL     1      -6.391  -1.027   4.156  0.00  0.00    +0.053 A 
BRANCH  17  19
ATOM     19  O   UNL     1      -8.293  -2.453   4.249  0.00  0.00    -0.491 OA
ATOM     20  C   UNL     1      -8.690  -1.868   3.007  0.00  0.00    +0.277 C 
ENDBRANCH  17  19
BRANCH  16  21
ATOM     21  O   UNL     1      -7.408  -3.493   6.641  0.00  0.00    -0.491 OA
ATOM     22  C   UNL     1      -6.889  -3.986   7.878  0.00  0.00    +0.277 C 
ENDBRANCH  16  21
ENDBRANCH   9  13
BRANCH   4  23
ATOM     23  C   UNL     1      -0.522   3.896   3.671  0.00  0.00    -0.035 A 
ATOM     24  C   UNL     1       0.402   3.009   4.194  0.00  0.00    +0.008 A 
ATOM     25  C   UNL     1       1.354   3.449   5.094  0.00  0.00    +0.049 A 
ATOM     26  C   UNL     1       1.377   4.779   5.483  0.00  0.00    +0.158 A 
ATOM     27  C   UNL     1       0.444   5.670   4.962  0.00  0.00    +0.162 A 
ATOM     28  C   UNL     1      -0.504   5.223   4.056  0.00  0.00    +0.053 A 
BRANCH  27  29
ATOM     29  O   UNL     1       0.463   6.976   5.341  0.00  0.00    -0.491 OA
ATOM     30  C   UNL     1      -0.525   7.833   4.765  0.00  0.00    +0.277 C 
ENDBRANCH  27  29
BRANCH  26  31
ATOM     31  O   UNL     1       2.310   5.212   6.373  0.00  0.00    -0.503 OA
ATOM     32  H   UNL     1       2.030   5.152   7.297  0.00  0.00    +0.292 HD
ENDBRANCH  26  31
ENDBRANCH   4  23
BRANCH   3  33
ATOM     33  C   UNL     1      -0.342   3.807   0.514  0.00  0.00    +0.317 C 
ATOM     34  O   UNL     1       0.221   3.397  -0.484  0.00  0.00    -0.250 OA
BRANCH  33  35
ATOM     35  O   UNL     1      -0.472   5.135   0.719  0.00  0.00    -0.464 OA
BRANCH  35  36
ATOM     36  C   UNL     1       0.075   6.001  -0.277  0.00  0.00    +0.235 C 
BRANCH  36  37
ATOM     37  C   UNL     1      -0.167   7.457   0.125  0.00  0.00    +0.020 C 
ATOM     38  C   UNL     1       0.612   7.769   1.404  0.00  0.00    +0.010 C 
ATOM     39  C   UNL     1       0.307   8.382  -0.999  0.00  0.00    +0.010 C 
ENDBRANCH  36  37
ENDBRANCH  35  36
ENDBRANCH  33  35
ENDBRANCH   3  33
TORSDOF 10
