REMARK  Name = ZINC02540798
REMARK  4 active torsions:
REMARK  status: ('A' for Active; 'I' for Inactive)
REMARK    1  A    between atoms: C_1  and  O_2
REMARK    2  A    between atoms: O_2  and  C_3
REMARK    3  A    between atoms: C_3  and  C_5
REMARK    4  A    between atoms: C_18  and  C_20
REMARK                            x       y       z     vdW  Elec       q    Type
REMARK                         _______ _______ _______ _____ _____    ______ ____
ROOT
ATOM      1  C   UNL     1      -0.013   1.086   0.008  0.00  0.00    +0.045 C 
ATOM      2  C   UNL     1      -0.755   1.594  -1.235  0.00  0.00    +0.033 C 
ATOM      3  C   UNL     1      -2.222   1.290  -1.059  0.00  0.00    -0.021 A 
ATOM      4  C   UNL     1      -3.281   1.280  -2.044  0.00  0.00    +0.003 A 
ATOM      5  C   UNL     1      -3.305   1.538  -3.418  0.00  0.00    +0.010 A 
ATOM      6  C   UNL     1      -4.519   1.431  -4.049  0.00  0.00    +0.001 A 
ATOM      7  C   UNL     1      -5.675   1.084  -3.369  0.00  0.00    +0.002 A 
ATOM      8  C   UNL     1      -5.681   0.823  -2.010  0.00  0.00    +0.026 A 
ATOM      9  C   UNL     1      -4.462   0.924  -1.342  0.00  0.00    +0.047 A 
ATOM     10  N   UNL     1      -4.118   0.739  -0.033  0.00  0.00    -0.359 N 
ATOM     11  H   UNL     1      -4.732   0.488   0.675  0.00  0.00    +0.166 HD
ATOM     12  C   UNL     1      -2.777   0.960   0.129  0.00  0.00    +0.010 A 
ATOM     13  C   UNL     1      -1.985   0.867   1.411  0.00  0.00    +0.008 C 
ATOM     14  N   UNL     1      -0.696   1.569   1.225  0.00  0.00    +0.396 N 
ATOM     15  H   UNL     1      -0.871   2.577   1.137  0.00  0.00    -0.083 HD
ATOM     16  H   UNL     1      -0.096   1.396   2.041  0.00  0.00    -0.083 HD
ENDROOT
BRANCH  13  17
ATOM     17  C   UNL     1      -2.749   1.521   2.533  0.00  0.00    -0.052 A 
ATOM     18  C   UNL     1      -2.744   2.898   2.660  0.00  0.00    +0.006 A 
ATOM     19  C   UNL     1      -3.449   3.503   3.684  0.00  0.00    +0.050 A 
ATOM     20  C   UNL     1      -4.153   2.729   4.593  0.00  0.00    +0.166 A 
ATOM     21  C   UNL     1      -4.153   1.342   4.468  0.00  0.00    +0.166 A 
ATOM     22  C   UNL     1      -3.449   0.743   3.436  0.00  0.00    +0.052 A 
ATOM     23  O   UNL     1      -4.910   0.814   5.473  0.00  0.00    -0.453 OA
ATOM     24  C   UNL     1      -5.037   1.863   6.451  0.00  0.00    +0.466 C 
ATOM     25  O   UNL     1      -4.910   3.070   5.676  0.00  0.00    -0.453 OA
ENDBRANCH  13  17
BRANCH   1  26
ATOM     26  C   UNL     1       1.401   1.607  -0.003  0.00  0.00    +0.293 C 
ATOM     27  O   UNL     1       1.697   2.565   0.672  0.00  0.00    -0.253 OA
BRANCH  26  29
ATOM     28  C   UNL     1       3.672   1.565  -0.723  0.00  0.00    +0.280 C 
ATOM     29  O   UNL     1       2.332   1.008  -0.762  0.00  0.00    -0.469 OA
ENDBRANCH  26  29
ENDBRANCH   1  26
TORSDOF 3
