REMARK  Name = ZINC63182666
REMARK  8 active torsions:
REMARK  status: ('A' for Active; 'I' for Inactive)
REMARK    1  A    between atoms: C_7  and  C_10
REMARK    2  A    between atoms: C_10  and  C_11
REMARK    3  A    between atoms: C_11  and  C_13
REMARK    4  A    between atoms: C_11  and  N_26
REMARK    5  A    between atoms: N_15  and  C_16
REMARK    6  A    between atoms: C_20  and  S_22
REMARK    7  A    between atoms: S_22  and  N_25
REMARK    8  A    between atoms: C_27  and  C_29
REMARK                            x       y       z     vdW  Elec       q    Type
REMARK                         _______ _______ _______ _____ _____    ______ ____
ROOT
ATOM      1  C   UNL     1       0.464  -3.680  -1.300  0.00  0.00    +0.163 C 
ENDROOT
BRANCH   1   2
ATOM      2  C   UNL     1      -0.582  -4.764  -1.303  0.00  0.00    +0.238 C 
ATOM      3  O   UNL     1      -0.250  -5.928  -1.224  0.00  0.00    -0.273 OA
ATOM      4  N   UNL     1      -1.887  -4.441  -1.394  0.00  0.00    -0.284 N 
ATOM      5  H   UNL     1      -2.159  -3.510  -1.381  0.00  0.00    +0.155 HD
BRANCH   4   6
ATOM      6  C   UNL     1      -2.851  -5.449  -1.508  0.00  0.00    +0.035 A 
ATOM      7  C   UNL     1      -4.109  -5.276  -0.944  0.00  0.00    +0.023 A 
ATOM      8  C   UNL     1      -5.058  -6.273  -1.058  0.00  0.00    +0.004 A 
ATOM      9  C   UNL     1      -4.758  -7.442  -1.733  0.00  0.00    +0.028 A 
ATOM     10  C   UNL     1      -3.507  -7.617  -2.296  0.00  0.00    +0.107 A 
ATOM     11  C   UNL     1      -2.555  -6.621  -2.191  0.00  0.00    +0.051 A 
BRANCH  10  12
ATOM     12  S   UNL     1      -3.129  -9.108  -3.155  0.00  0.00    +0.056 S 
ATOM     13  O   UNL     1      -1.716  -9.251  -3.119  0.00  0.00    -0.153 OA
ATOM     14  O   UNL     1      -4.009 -10.102  -2.648  0.00  0.00    -0.153 OA
BRANCH  12  15
ATOM     15  N   UNL     1      -3.541  -8.876  -4.742  0.00  0.00    -0.204 NA
ATOM     16  H   UNL     1      -3.055  -9.341  -5.442  0.00  0.00    +0.144 HD
ATOM     17  H   UNL     1      -4.267  -8.276  -4.973  0.00  0.00    +0.144 HD
ENDBRANCH  12  15
ENDBRANCH  10  12
ENDBRANCH   4   6
ENDBRANCH   1   2
BRANCH   1  18
ATOM     18  N   UNL     1       1.761  -4.252  -1.671  0.00  0.00    -0.299 N 
ATOM     19  C   UNL     1       2.305  -5.231  -0.921  0.00  0.00    +0.251 C 
ATOM     20  O   UNL     1       1.718  -5.640   0.064  0.00  0.00    -0.270 OA
ATOM     21  H   UNL     1       2.229  -3.925  -2.456  0.00  0.00    +0.150 HD
BRANCH  19  22
ATOM     22  C   UNL     1       3.603  -5.803  -1.292  0.00  0.00    +0.074 A 
ATOM     23  C   UNL     1       4.325  -6.808  -0.667  0.00  0.00    +0.021 A 
ATOM     24  C   UNL     1       5.524  -7.135  -1.254  0.00  0.00    +0.008 A 
ATOM     25  C   UNL     1       5.912  -6.473  -2.372  0.00  0.00    +0.046 A 
ATOM     26  S   UNL     1       4.660  -5.393  -2.667  0.00  0.00    -0.092 S 
ENDBRANCH  19  22
ENDBRANCH   1  18
BRANCH   1  27
ATOM     27  C   UNL     1       0.558  -3.066   0.098  0.00  0.00    +0.065 C 
BRANCH  27  34
ATOM     28  C   UNL     1      -0.070   1.451  -0.410  0.00  0.00    +0.001 A 
ATOM     29  C   UNL     1       1.119   2.192  -0.373  0.00  0.00    +0.002 A 
ATOM     30  C   UNL     1       2.330   1.619  -0.203  0.00  0.00    +0.026 A 
ATOM     31  C   UNL     1       2.443   0.210  -0.052  0.00  0.00    +0.043 A 
ATOM     32  N   UNL     1       3.484  -0.568   0.123  0.00  0.00    -0.380 N 
ATOM     33  C   UNL     1       3.019  -1.957   0.217  0.00  0.00    +0.144 C 
ATOM     34  C   UNL     1       1.515  -1.901   0.072  0.00  0.00    -0.039 C 
ATOM     35  C   UNL     1       1.201  -0.595  -0.087  0.00  0.00    -0.001 A 
ATOM     36  C   UNL     1      -0.074   0.105  -0.276  0.00  0.00    +0.010 A 
ATOM     37  H   UNL     1       4.407  -0.275   0.179  0.00  0.00    +0.160 HD
ENDBRANCH  27  34
ENDBRANCH   1  27
TORSDOF 8
