REMARK  Name = ZINC65788168
REMARK  10 active torsions:
REMARK  status: ('A' for Active; 'I' for Inactive)
REMARK    1  A    between atoms: C_1  and  C_2
REMARK    2  A    between atoms: C_2  and  C_3
REMARK    3  A    between atoms: C_3  and  C_4
REMARK    4  A    between atoms: C_4  and  C_5
REMARK    5  A    between atoms: C_5  and  C_6
REMARK    6  A    between atoms: C_6  and  C_7
REMARK    7  A    between atoms: C_6  and  N_8
REMARK    8  A    between atoms: N_11  and  C_12
REMARK    9  A    between atoms: C_14  and  C_24
REMARK   10  A    between atoms: C_17  and  N_18
REMARK                            x       y       z     vdW  Elec       q    Type
REMARK                         _______ _______ _______ _____ _____    ______ ____
ROOT
ATOM      1  C   UNL     1       2.482  -7.452   0.685  0.00  0.00    +0.057 A 
ATOM      2  C   UNL     1       1.492  -8.226   0.111  0.00  0.00    +0.038 A 
ATOM      3  C   UNL     1       1.168  -9.467   0.666  0.00  0.00    +0.038 A 
ATOM      4  C   UNL     1       1.847  -9.921   1.800  0.00  0.00    +0.015 A 
ATOM      5  C   UNL     1       2.834  -9.147   2.370  0.00  0.00    +0.026 A 
ATOM      6  C   UNL     1       3.161  -7.915   1.815  0.00  0.00    +0.051 A 
ENDROOT
BRANCH   1  10
ATOM      7  N   UNL     1       2.775  -4.733  -1.680  0.00  0.00    -0.297 N 
ATOM      8  C   UNL     1       2.567  -5.965  -1.173  0.00  0.00    +0.304 C 
ATOM      9  O   UNL     1       2.159  -6.857  -1.892  0.00  0.00    -0.253 OA
ATOM     10  N   UNL     1       2.810  -6.207   0.130  0.00  0.00    -0.268 N 
ATOM     11  H   UNL     1       3.100  -4.022  -1.107  0.00  0.00    +0.151 HD
ATOM     12  H   UNL     1       3.211  -5.520   0.685  0.00  0.00    +0.156 HD
BRANCH   7  13
ATOM     13  C   UNL     1       2.511  -4.470  -3.097  0.00  0.00    +0.071 C 
ATOM     14  C   UNL     1       3.737  -4.859  -3.925  0.00  0.00    +0.028 C 
BRANCH  13  15
ATOM     15  C   UNL     1       2.214  -2.982  -3.292  0.00  0.00    +0.022 C 
BRANCH  15  16
ATOM     16  C   UNL     1       0.918  -2.621  -2.565  0.00  0.00    +0.002 C 
BRANCH  16  17
ATOM     17  C   UNL     1       0.621  -1.133  -2.760  0.00  0.00    -0.000 C 
BRANCH  17  19
ATOM     18  C   UNL     1      -0.973   0.717  -2.228  0.00  0.00    +0.004 C 
ATOM     19  C   UNL     1      -0.676  -0.771  -2.033  0.00  0.00    -0.003 C 
ENDBRANCH  17  19
ENDBRANCH  16  17
ENDBRANCH  15  16
ENDBRANCH  13  15
ENDBRANCH   7  13
ENDBRANCH   1  10
BRANCH   6  20
ATOM     20  N   UNL     1       4.164  -7.138   2.390  0.00  0.00    -0.328 N 
ATOM     21  C   UNL     1       3.845  -6.168   3.447  0.00  0.00    +0.105 C 
ATOM     22  C   UNL     1       4.743  -6.444   4.657  0.00  0.00    +0.019 C 
ATOM     23  C   UNL     1       6.208  -6.433   4.214  0.00  0.00    +0.003 C 
ATOM     24  C   UNL     1       6.438  -7.537   3.179  0.00  0.00    +0.019 C 
ATOM     25  C   UNL     1       5.561  -7.277   1.956  0.00  0.00    +0.105 C 
ENDBRANCH   6  20
BRANCH   3  26
ATOM     26  C   UNL     1       0.111 -10.296   0.057  0.00  0.00    +0.242 C 
ATOM     27  O   UNL     1      -0.480  -9.900  -0.929  0.00  0.00    -0.270 OA
ATOM     28  N   UNL     1      -0.200 -11.493   0.594  0.00  0.00    -0.325 N 
ATOM     29  H   UNL     1       0.271 -11.809   1.381  0.00  0.00    +0.145 HD
ATOM     30  H   UNL     1      -0.895 -12.038   0.193  0.00  0.00    +0.145 HD
ENDBRANCH   3  26
TORSDOF 8
