REMARK  Name = ZINC41082239
REMARK  3 active torsions:
REMARK  status: ('A' for Active; 'I' for Inactive)
REMARK    1  A    between atoms: N_10  and  C_11
REMARK    2  A    between atoms: C_14  and  N_20
REMARK    3  A    between atoms: C_15  and  C_17
REMARK                            x       y       z     vdW  Elec       q    Type
REMARK                         _______ _______ _______ _____ _____    ______ ____
ROOT
ATOM      1  C   UNL     1       4.878   0.017  -0.199  0.00  0.00    +0.035 A 
ATOM      2  C   UNL     1       5.794   0.510   0.726  0.00  0.00    +0.025 A 
ATOM      3  C   UNL     1       6.886   1.240   0.305  0.00  0.00    +0.025 A 
ATOM      4  C   UNL     1       7.079   1.488  -1.048  0.00  0.00    +0.037 A 
ATOM      5  C   UNL     1       6.160   0.994  -1.986  0.00  0.00    +0.059 A 
ATOM      6  C   UNL     1       5.060   0.250  -1.550  0.00  0.00    +0.038 A 
ENDROOT
BRANCH   1  16
ATOM      7  C   UNL     1       0.107   1.168   0.813  0.00  0.00    +0.000 A 
ATOM      8  C   UNL     1       1.258   1.918   0.658  0.00  0.00    +0.002 A 
ATOM      9  C   UNL     1       2.471   1.287   0.470  0.00  0.00    +0.024 A 
ATOM     10  C   UNL     1       2.535  -0.102   0.436  0.00  0.00    +0.037 A 
ATOM     11  C   UNL     1       1.380  -0.854   0.594  0.00  0.00    -0.026 A 
ATOM     12  C   UNL     1       0.168  -0.212   0.780  0.00  0.00    +0.005 A 
ATOM     13  C   UNL     1       1.413  -2.359   0.574  0.00  0.00    +0.038 C 
ATOM     14  C   UNL     1       2.678  -2.858  -0.124  0.00  0.00    +0.024 C 
ATOM     15  C   UNL     1       3.895  -2.164   0.501  0.00  0.00    +0.111 C 
ATOM     16  N   UNL     1       3.773  -0.723   0.240  0.00  0.00    -0.300 N 
ENDBRANCH   1  16
BRANCH   5  17
ATOM     17  C   UNL     1       6.357   1.252  -3.424  0.00  0.00    +0.243 C 
ATOM     18  O   UNL     1       7.366   1.812  -3.808  0.00  0.00    -0.270 OA
ATOM     19  N   UNL     1       5.419   0.869  -4.312  0.00  0.00    -0.325 N 
ATOM     20  H   UNL     1       4.615   0.422  -4.006  0.00  0.00    +0.145 HD
ATOM     21  H   UNL     1       5.549   1.039  -5.259  0.00  0.00    +0.145 HD
ENDBRANCH   5  17
BRANCH   4  22
ATOM     22  N   UNL     1       8.180   2.226  -1.472  0.00  0.00    -0.357 N 
ATOM     23  H   UNL     1       8.953   2.320  -0.893  0.00  0.00    +0.142 HD
ATOM     24  H   UNL     1       8.175   2.646  -2.346  0.00  0.00    +0.142 HD
ENDBRANCH   4  22
TORSDOF 3
