REMARK  Name = ZINC27603988
REMARK  9 active torsions:
REMARK  status: ('A' for Active; 'I' for Inactive)
REMARK    1  A    between atoms: C_3  and  C_6
REMARK    2  A    between atoms: C_6  and  C_8
REMARK    3  A    between atoms: C_6  and  N_30
REMARK    4  A    between atoms: C_8  and  N_9
REMARK    5  A    between atoms: C_10  and  C_12
REMARK    6  A    between atoms: C_12  and  C_13
REMARK    7  A    between atoms: C_13  and  C_14
REMARK    8  A    between atoms: C_17  and  S_20
REMARK    9  A    between atoms: S_20  and  N_23
REMARK                            x       y       z     vdW  Elec       q    Type
REMARK                         _______ _______ _______ _____ _____    ______ ____
ROOT
ATOM      1  C   UNL     1      -0.731   1.709  -1.238  0.00  0.00    +0.100 C 
ENDROOT
BRANCH   1   3
ATOM      2  N   UNL     1      -0.520   1.469  -3.691  0.00  0.00    -0.317 N 
ATOM      3  C   UNL     1      -0.082   1.121  -2.465  0.00  0.00    +0.213 C 
ATOM      4  O   UNL     1       0.834   0.335  -2.349  0.00  0.00    -0.276 OA
ATOM      5  H   UNL     1      -1.351   2.182  -3.796  0.00  0.00    +0.149 HD
BRANCH   2   6
ATOM      6  C   UNL     1       0.110   0.898  -4.883  0.00  0.00    +0.094 C 
BRANCH   6   7
ATOM      7  C   UNL     1      -0.646   1.361  -6.131  0.00  0.00    -0.013 C 
BRANCH   7   8
ATOM      8  N   UNL     1      -0.094   0.689  -7.315  0.00  0.00    +0.386 N 
ATOM      9  C   UNL     1      -0.210  -0.787  -7.192  0.00  0.00    -0.078 C 
ATOM     10  C   UNL     1      -0.096  -1.274  -8.659  0.00  0.00    -0.020 C 
ATOM     11  C   UNL     1      -0.862  -0.186  -9.445  0.00  0.00    -0.020 C 
ATOM     12  C   UNL     1      -0.851   1.053  -8.532  0.00  0.00    -0.078 C 
ATOM     13  H   UNL     1       0.955   1.012  -7.381  0.00  0.00    -0.081 HD
ENDBRANCH   7   8
BRANCH   7  16
ATOM     14  C   UNL     1      -1.012   5.152  -6.185  0.00  0.00    +0.008 A 
ATOM     15  C   UNL     1      -1.367   3.837  -5.952  0.00  0.00    +0.009 A 
ATOM     16  C   UNL     1      -0.496   2.852  -6.284  0.00  0.00    -0.022 A 
ATOM     17  S   UNL     1       0.878   3.782  -6.943  0.00  0.00    -0.103 S 
ATOM     18  C   UNL     1       0.195   5.419  -6.740  0.00  0.00    +0.045 A 
ENDBRANCH   7  16
ENDBRANCH   6   7
ENDBRANCH   2   6
ENDBRANCH   1   3
BRANCH   1  19
ATOM     19  C   UNL     1      -0.050   1.152   0.015  0.00  0.00    +0.044 C 
BRANCH  19  20
ATOM     20  C   UNL     1      -0.699   1.740   1.242  0.00  0.00    -0.047 A 
ATOM     21  C   UNL     1      -0.211   2.913   1.786  0.00  0.00    +0.005 A 
ATOM     22  C   UNL     1      -0.809   3.455   2.909  0.00  0.00    +0.029 A 
ATOM     23  C   UNL     1      -1.888   2.818   3.493  0.00  0.00    +0.105 A 
ATOM     24  C   UNL     1      -2.372   1.642   2.951  0.00  0.00    +0.029 A 
ATOM     25  C   UNL     1      -1.777   1.103   1.826  0.00  0.00    +0.005 A 
BRANCH  23  26
ATOM     26  S   UNL     1      -2.647   3.506   4.926  0.00  0.00    +0.061 S 
ATOM     27  O   UNL     1      -2.351   4.896   4.915  0.00  0.00    -0.153 OA
ATOM     28  O   UNL     1      -3.978   3.010   4.959  0.00  0.00    -0.153 OA
BRANCH  26  29
ATOM     29  N   UNL     1      -1.872   2.869   6.244  0.00  0.00    -0.177 NA
ATOM     30  C   UNL     1      -2.380   1.644   6.821  0.00  0.00    +0.109 C 
ATOM     31  C   UNL     1      -3.440   1.969   7.894  0.00  0.00    +0.017 C 
ATOM     32  C   UNL     1      -2.799   2.552   9.084  0.00  0.00    +0.001 C 
ATOM     33  C   UNL     1      -2.095   3.882   8.831  0.00  0.00    +0.001 C 
ATOM     34  C   UNL     1      -0.699   3.619   8.323  0.00  0.00    +0.017 C 
ATOM     35  C   UNL     1      -0.695   3.577   6.784  0.00  0.00    +0.109 C 
ENDBRANCH  26  29
ENDBRANCH  23  26
ENDBRANCH  19  20
ENDBRANCH   1  19
TORSDOF 9
