REMARK  Name = ZINC62350781
REMARK  7 active torsions:
REMARK  status: ('A' for Active; 'I' for Inactive)
REMARK    1  A    between atoms: C_1  and  C_2
REMARK    2  A    between atoms: C_4  and  C_21
REMARK    3  A    between atoms: C_7  and  N_8
REMARK    4  A    between atoms: N_8  and  C_9
REMARK    5  A    between atoms: C_16  and  C_20
REMARK    6  A    between atoms: C_17  and  C_18
REMARK    7  A    between atoms: C_17  and  C_19
REMARK                            x       y       z     vdW  Elec       q    Type
REMARK                         _______ _______ _______ _____ _____    ______ ____
ROOT
ATOM      1  C   UNL     1       0.113   1.592   0.030  0.00  0.00    +0.045 C 
ATOM      2  C   UNL     1      -0.077   0.097   0.011  0.00  0.00    -0.029 A 
ATOM      3  C   UNL     1      -0.257  -0.557  -1.187  0.00  0.00    +0.018 A 
ATOM      4  C   UNL     1      -0.433  -1.944  -1.204  0.00  0.00    +0.037 A 
ATOM      5  C   UNL     1      -0.425  -2.662  -0.005  0.00  0.00    +0.015 A 
ATOM      6  C   UNL     1      -0.245  -2.002   1.189  0.00  0.00    +0.024 A 
ATOM      7  C   UNL     1      -0.065  -0.621   1.203  0.00  0.00    +0.030 A 
ENDROOT
BRANCH   4   8
ATOM      8  C   UNL     1      -0.626  -2.648  -2.486  0.00  0.00    +0.242 C 
ATOM      9  O   UNL     1      -0.633  -2.023  -3.529  0.00  0.00    -0.270 OA
ATOM     10  N   UNL     1      -0.795  -3.985  -2.501  0.00  0.00    -0.325 N 
ATOM     11  H   UNL     1      -0.790  -4.484  -1.670  0.00  0.00    +0.145 HD
ATOM     12  H   UNL     1      -0.922  -4.449  -3.344  0.00  0.00    +0.145 HD
ENDBRANCH   4   8
BRANCH   7  13
ATOM     13  N   UNL     1       0.122   0.042   2.410  0.00  0.00    -0.340 N 
ATOM     14  H   UNL     1       0.244   1.004   2.421  0.00  0.00    +0.146 HD
BRANCH  13  15
ATOM     15  C   UNL     1       0.136  -0.712   3.666  0.00  0.00    +0.077 C 
ATOM     16  C   UNL     1      -1.308  -0.986   4.146  0.00  0.00    +0.026 C 
ATOM     17  C   UNL     1      -1.406  -0.274   5.529  0.00  0.00    -0.003 C 
ATOM     18  C   UNL     1      -0.525  -1.143   6.478  0.00  0.00    +0.005 C 
ATOM     19  C   UNL     1       0.925  -0.886   6.008  0.00  0.00    +0.009 C 
ATOM     20  C   UNL     1       0.777   0.138   4.805  0.00  0.00    -0.008 C 
ATOM     21  C   UNL     1      -0.472   0.964   5.285  0.00  0.00    -0.025 C 
ATOM     22  C   UNL     1      -0.189   1.733   6.577  0.00  0.00    +0.012 C 
ATOM     23  C   UNL     1      -1.011   1.881   4.185  0.00  0.00    +0.012 C 
ATOM     24  C   UNL     1       2.029   0.931   4.423  0.00  0.00    +0.013 C 
ENDBRANCH  13  15
ENDBRANCH   7  13
TORSDOF 3
