REMARK  Name = ZINC59016937
REMARK  7 active torsions:
REMARK  status: ('A' for Active; 'I' for Inactive)
REMARK    1  A    between atoms: C_3  and  O_30
REMARK    2  A    between atoms: C_4  and  C_8
REMARK    3  A    between atoms: N_9  and  N_10
REMARK    4  A    between atoms: C_13  and  S_16
REMARK    5  A    between atoms: S_16  and  C_17
REMARK    6  A    between atoms: C_17  and  C_18
REMARK    7  A    between atoms: C_18  and  C_20
REMARK                            x       y       z     vdW  Elec       q    Type
REMARK                         _______ _______ _______ _____ _____    ______ ____
ROOT
ATOM      1  N   UNL     1       6.017  -0.641  -0.812  0.00  0.00    -0.205 N 
ATOM      2  C   UNL     1       7.206   0.058  -0.720  0.00  0.00    +0.232 A 
ATOM      3  N   UNL     1       7.329   1.351  -0.503  0.00  0.00    -0.186 NA
ATOM      4  C   UNL     1       8.624   1.682  -0.475  0.00  0.00    +0.210 A 
ATOM      5  N   UNL     1       9.344   0.603  -0.674  0.00  0.00    -0.144 NA
ATOM      6  N   UNL     1       8.446  -0.465  -0.830  0.00  0.00    -0.245 N 
ATOM      7  H   UNL     1       6.029  -1.598  -0.970  0.00  0.00    +0.177 HD
ATOM      8  H   UNL     1       8.671  -1.395  -0.988  0.00  0.00    +0.192 HD
ENDROOT
BRANCH   1  10
ATOM      9  C   UNL     1       3.679  -0.625  -0.763  0.00  0.00    +0.142 C 
ATOM     10  N   UNL     1       4.796   0.032  -0.677  0.00  0.00    -0.187 NA
BRANCH   9  14
ATOM     11  C   UNL     1      -0.023   1.416  -0.355  0.00  0.00    +0.019 A 
ATOM     12  C   UNL     1       1.162   2.123  -0.261  0.00  0.00    +0.047 A 
ATOM     13  C   UNL     1       2.374   1.466  -0.393  0.00  0.00    +0.126 A 
ATOM     14  C   UNL     1       2.395   0.083  -0.621  0.00  0.00    +0.037 A 
ATOM     15  C   UNL     1       1.192  -0.619  -0.714  0.00  0.00    +0.028 A 
ATOM     16  C   UNL     1      -0.008   0.050  -0.581  0.00  0.00    +0.019 A 
ATOM     17 BR   UNL     1      -1.637  -0.902  -0.706  0.00  0.00    -0.050 Br
BRANCH  13  18
ATOM     18  O   UNL     1       3.538   2.160  -0.301  0.00  0.00    -0.506 OA
ATOM     19  H   UNL     1       3.893   2.217   0.597  0.00  0.00    +0.292 HD
ENDBRANCH  13  18
ENDBRANCH   9  14
ENDBRANCH   1  10
BRANCH   4  20
ATOM     20  S   UNL     1       9.262   3.304  -0.214  0.00  0.00    -0.077 S 
BRANCH  20  21
ATOM     21  C   UNL     1      11.061   3.086  -0.290  0.00  0.00    +0.152 C 
BRANCH  21  22
ATOM     22  C   UNL     1      11.737   4.416  -0.080  0.00  0.00    +0.147 C 
ATOM     23  O   UNL     1      11.074   5.408   0.102  0.00  0.00    -0.296 OA
BRANCH  22  24
ATOM     24  C   UNL     1      13.242   4.507  -0.097  0.00  0.00    +0.062 C 
ATOM     25  C   UNL     1      13.803   3.917   1.198  0.00  0.00    +0.000 C 
ATOM     26  C   UNL     1      15.330   4.010   1.181  0.00  0.00    +0.007 C 
ATOM     27  C   UNL     1      15.751   5.476   1.064  0.00  0.00    -0.010 C 
ATOM     28  C   UNL     1      15.206   6.260   2.260  0.00  0.00    +0.007 C 
ATOM     29  C   UNL     1      13.679   6.167   2.277  0.00  0.00    -0.010 C 
ATOM     30  C   UNL     1      13.258   4.701   2.394  0.00  0.00    +0.007 C 
ATOM     31  C   UNL     1      13.117   6.757   0.982  0.00  0.00    +0.007 C 
ATOM     32  C   UNL     1      13.662   5.974  -0.214  0.00  0.00    +0.000 C 
ATOM     33  C   UNL     1      15.189   6.066  -0.231  0.00  0.00    +0.007 C 
ENDBRANCH  22  24
ENDBRANCH  21  22
ENDBRANCH  20  21
ENDBRANCH   4  20
TORSDOF 7
