REMARK  Name = ZINC07580622
REMARK  8 active torsions:
REMARK  status: ('A' for Active; 'I' for Inactive)
REMARK    1  A    between atoms: C_3  and  C_6
REMARK    2  A    between atoms: C_6  and  N_49
REMARK    3  A    between atoms: C_7  and  C_8
REMARK    4  A    between atoms: C_7  and  N_49
REMARK    5  A    between atoms: C_13  and  C_14
REMARK    6  A    between atoms: C_13  and  N_49
REMARK    7  A    between atoms: N_16  and  C_17
REMARK    8  A    between atoms: C_18  and  C_25
REMARK                            x       y       z     vdW  Elec       q    Type
REMARK                         _______ _______ _______ _____ _____    ______ ____
ROOT
ATOM      1  C   UNL     1       0.903   0.283  -2.440  0.00  0.00    +0.201 C 
ATOM      2  O   UNL     1       0.483   1.372  -2.110  0.00  0.00    -0.278 OA
ATOM      3  N   UNL     1       0.104  -0.575  -3.105  0.00  0.00    -0.281 N 
ATOM      4  H   UNL     1       0.441  -1.446  -3.368  0.00  0.00    +0.155 HD
ENDROOT
BRANCH   3   5
ATOM      5  C   UNL     1      -1.198  -0.213  -3.412  0.00  0.00    +0.084 A 
ATOM      6  C   UNL     1      -2.159  -0.947  -4.086  0.00  0.00    +0.068 A 
ATOM      7  C   UNL     1      -3.471  -0.330  -4.278  0.00  0.00    -0.023 A 
ATOM      8  C   UNL     1      -3.598   0.911  -3.776  0.00  0.00    -0.004 A 
ATOM      9  S   UNL     1      -2.016   1.270  -3.052  0.00  0.00    -0.077 S 
ATOM     10  C   UNL     1      -4.971   1.479  -4.014  0.00  0.00    +0.043 C 
ATOM     11  C   UNL     1      -5.843   0.253  -4.364  0.00  0.00    +0.010 C 
ATOM     12  C   UNL     1      -4.796  -0.727  -4.930  0.00  0.00    +0.037 C 
BRANCH   6  13
ATOM     13  C   UNL     1      -1.873  -2.295  -4.587  0.00  0.00    +0.244 C 
ATOM     14  O   UNL     1      -2.083  -3.263  -3.880  0.00  0.00    -0.270 OA
ATOM     15  N   UNL     1      -1.376  -2.461  -5.828  0.00  0.00    -0.325 N 
ATOM     16  H   UNL     1      -1.208  -1.689  -6.391  0.00  0.00    +0.145 HD
ATOM     17  H   UNL     1      -1.186  -3.353  -6.159  0.00  0.00    +0.145 HD
ENDBRANCH   6  13
ENDBRANCH   3   5
BRANCH   1  18
ATOM     18  C   UNL     1       2.319  -0.110  -2.106  0.00  0.00    +0.020 C 
BRANCH  18  19
ATOM     19  N   UNL     1       2.999   1.045  -1.483  0.00  0.00    +0.393 N 
ATOM     20  H   UNL     1       2.376   1.459  -0.780  0.00  0.00    -0.080 HD
BRANCH  19  21
ATOM     21  C   UNL     1       3.307   2.063  -2.510  0.00  0.00    -0.002 C 
BRANCH  21  24
ATOM     22  C   UNL     1       5.076   4.866  -0.899  0.00  0.00    +0.041 A 
ATOM     23  C   UNL     1       5.076   3.605  -1.538  0.00  0.00    +0.042 A 
ATOM     24  C   UNL     1       3.794   3.313  -1.824  0.00  0.00    +0.089 A 
ATOM     25  O   UNL     1       3.023   4.328  -1.400  0.00  0.00    -0.470 OA
ATOM     26  C   UNL     1       3.794   5.270  -0.833  0.00  0.00    +0.195 A 
ENDBRANCH  21  24
ENDBRANCH  19  21
BRANCH  19  27
ATOM     27  C   UNL     1       4.244   0.603  -0.821  0.00  0.00    -0.034 C 
BRANCH  27  28
ATOM     28  C   UNL     1       3.883  -0.156   0.430  0.00  0.00    -0.027 A 
ATOM     29  C   UNL     1       3.763  -1.494   0.613  0.00  0.00    +0.009 A 
ATOM     30  C   UNL     1       3.413  -1.971   1.862  0.00  0.00    +0.008 A 
ATOM     31  C   UNL     1       3.211  -1.088   2.870  0.00  0.00    +0.045 A 
ATOM     32  S   UNL     1       3.504   0.474   2.057  0.00  0.00    -0.103 S 
ENDBRANCH  27  28
ENDBRANCH  19  27
ENDBRANCH  18  19
ENDBRANCH   1  18
TORSDOF 8
