REMARK  Name = ZINC05128209
REMARK  7 active torsions:
REMARK  status: ('A' for Active; 'I' for Inactive)
REMARK    1  A    between atoms: C_6  and  N_11
REMARK    2  A    between atoms: N_11  and  C_12
REMARK    3  A    between atoms: C_12  and  C_13
REMARK    4  A    between atoms: N_15  and  N_16
REMARK    5  A    between atoms: C_17  and  C_18
REMARK    6  A    between atoms: N_22  and  C_23
REMARK    7  A    between atoms: C_26  and  N_29
REMARK                            x       y       z     vdW  Elec       q    Type
REMARK                         _______ _______ _______ _____ _____    ______ ____
ROOT
ATOM      1  C   UNL     1       2.036   9.566   0.032  0.00  0.00    +0.249 C 
ATOM      2  O   UNL     1       0.893   9.957   0.045  0.00  0.00    -0.272 OA
ATOM      3  N   UNL     1       3.052  10.452   0.026  0.00  0.00    -0.206 N 
ATOM      4  H   UNL     1       3.970  10.137   0.016  0.00  0.00    +0.177 HD
ENDROOT
BRANCH   3   5
ATOM      5  N   UNL     1       2.804  11.717   0.035  0.00  0.00    -0.186 NA
ATOM      6  C   UNL     1       3.813  12.597   0.029  0.00  0.00    +0.156 C 
BRANCH   6   7
ATOM      7  C   UNL     1       3.547  13.952   0.039  0.00  0.00    +0.066 A 
ATOM      8  C   UNL     1       2.216  14.593   0.049  0.00  0.00    +0.029 A 
ATOM      9  C   UNL     1       2.437  15.934   0.058  0.00  0.00    +0.020 A 
ATOM     10  C   UNL     1       3.822  16.156   0.046  0.00  0.00    +0.092 A 
ATOM     11  N   UNL     1       4.479  14.983   0.035  0.00  0.00    -0.315 N 
BRANCH  11  12
ATOM     12  C   UNL     1       5.871  14.826   0.022  0.00  0.00    +0.047 A 
ATOM     13  C   UNL     1       6.484  13.981   0.937  0.00  0.00    +0.028 A 
ATOM     14  C   UNL     1       7.856  13.825   0.918  0.00  0.00    +0.035 A 
ATOM     15  C   UNL     1       8.620  14.517  -0.004  0.00  0.00    +0.126 A 
ATOM     16  C   UNL     1       8.012  15.363  -0.913  0.00  0.00    +0.035 A 
ATOM     17  C   UNL     1       6.640  15.520  -0.903  0.00  0.00    +0.028 A 
BRANCH  15  18
ATOM     18  N   UNL     1      10.091  14.351  -0.017  0.00  0.00    +0.056 N 
ATOM     19  O   UNL     1      10.819  15.010  -0.895  0.00  0.00    -0.126 OA
ATOM     20  O   UNL     1      10.671  13.546   0.848  0.00  0.00    -0.126 OA
ENDBRANCH  15  18
ENDBRANCH  11  12
ENDBRANCH   6   7
ENDBRANCH   3   5
BRANCH   1  21
ATOM     21  C   UNL     1       2.326   8.087   0.021  0.00  0.00    +0.199 C 
BRANCH  21  22
ATOM     22  N   UNL     1       1.064   7.342   0.030  0.00  0.00    -0.335 N 
ATOM     23  H   UNL     1       0.220   7.819   0.040  0.00  0.00    +0.147 HD
BRANCH  22  29
ATOM     24  C   UNL     1      -0.013   1.076   0.008  0.00  0.00    +0.001 A 
ATOM     25  C   UNL     1      -1.235   1.746   0.018  0.00  0.00    +0.001 A 
ATOM     26  C   UNL     1      -1.288   3.105   0.031  0.00  0.00    +0.008 A 
ATOM     27  C   UNL     1      -0.095   3.848   0.024  0.00  0.00    -0.016 A 
ATOM     28  C   UNL     1      -0.112   5.253   0.031  0.00  0.00    +0.031 A 
ATOM     29  C   UNL     1       1.078   5.946   0.023  0.00  0.00    +0.028 A 
ATOM     30  C   UNL     1       2.301   5.265   0.008  0.00  0.00    +0.023 A 
ATOM     31  C   UNL     1       2.344   3.907   0.000  0.00  0.00    +0.010 A 
ATOM     32  C   UNL     1       1.149   3.167   0.008  0.00  0.00    -0.018 A 
ATOM     33  C   UNL     1       1.163   1.762   0.000  0.00  0.00    +0.008 A 
ENDBRANCH  22  29
ENDBRANCH  21  22
ENDBRANCH   1  21
TORSDOF 7
