REMARK  Name = ZINC28131242
REMARK  4 active torsions:
REMARK  status: ('A' for Active; 'I' for Inactive)
REMARK    1  A    between atoms: C_3  and  S_8
REMARK    2  A    between atoms: C_6  and  N_7
REMARK    3  A    between atoms: S_8  and  N_11
REMARK    4  A    between atoms: C_13  and  C_21
REMARK                            x       y       z     vdW  Elec       q    Type
REMARK                         _______ _______ _______ _____ _____    ______ ____
ROOT
ATOM      1  N   UNL     1      -3.280   3.026  -0.634  0.00  0.00    -0.218 N 
ATOM      2  C   UNL     1      -2.174   2.331  -1.029  0.00  0.00    +0.121 A 
ATOM      3  C   UNL     1      -1.323   2.190   0.020  0.00  0.00    +0.005 A 
ATOM      4  C   UNL     1      -1.952   2.865   1.168  0.00  0.00    +0.010 A 
ATOM      5  C   UNL     1      -3.176   3.370   0.697  0.00  0.00    +0.073 A 
ATOM      6  C   UNL     1      -4.007   4.068   1.567  0.00  0.00    +0.029 A 
ATOM      7  C   UNL     1      -3.625   4.259   2.877  0.00  0.00    +0.017 A 
ATOM      8  C   UNL     1      -2.416   3.760   3.342  0.00  0.00    +0.019 A 
ATOM      9  C   UNL     1      -1.579   3.065   2.495  0.00  0.00    +0.026 A 
ATOM     10 BR   UNL     1      -1.914   4.035   5.144  0.00  0.00    -0.050 Br
ENDROOT
BRANCH   3  11
ATOM     11  C   UNL     1      -0.018   1.499   0.010  0.00  0.00    -0.046 C 
ATOM     12  C   UNL     1       1.080   2.224   0.004  0.00  0.00    -0.042 C 
ATOM     13  C   UNL     1       2.457   1.625  -0.020  0.00  0.00    -0.055 C 
ATOM     14  N   UNL     1       2.402   0.211   0.371  0.00  0.00    +0.382 N 
ATOM     15  C   UNL     1       1.387  -0.499  -0.424  0.00  0.00    -0.078 C 
ATOM     16  C   UNL     1       0.002  -0.004   0.002  0.00  0.00    +0.016 C 
ATOM     17  H   UNL     1       3.384  -0.255   0.199  0.00  0.00    -0.085 HD
ATOM     18  H   UNL     1       2.142   0.135   1.437  0.00  0.00    -0.085 HD
ENDBRANCH   3  11
BRANCH   1  19
ATOM     19  S   UNL     1      -4.559   3.407  -1.615  0.00  0.00    +0.084 S 
ATOM     20  O   UNL     1      -4.811   4.793  -1.433  0.00  0.00    -0.148 OA
ATOM     21  O   UNL     1      -4.276   2.844  -2.888  0.00  0.00    -0.148 OA
BRANCH  19  24
ATOM     22  C   UNL     1      -7.881   2.490   0.449  0.00  0.00    +0.024 A 
ATOM     23  C   UNL     1      -6.776   3.157  -0.043  0.00  0.00    +0.031 A 
ATOM     24  C   UNL     1      -5.967   2.553  -0.989  0.00  0.00    +0.111 A 
ATOM     25  C   UNL     1      -6.265   1.283  -1.448  0.00  0.00    +0.031 A 
ATOM     26  C   UNL     1      -7.365   0.609  -0.956  0.00  0.00    +0.024 A 
ATOM     27  C   UNL     1      -8.179   1.212  -0.006  0.00  0.00    +0.025 A 
BRANCH  27  28
ATOM     28  N   UNL     1      -9.296   0.535   0.490  0.00  0.00    -0.358 N 
ATOM     29  H   UNL     1      -9.531  -0.476   0.129  0.00  0.00    +0.142 HD
ATOM     30  H   UNL     1      -9.941   1.015   1.242  0.00  0.00    +0.142 HD
ENDBRANCH  27  28
ENDBRANCH  19  24
ENDBRANCH   1  19
TORSDOF 4
