REMARK  Name = ZINC63386033
REMARK  6 active torsions:
REMARK  status: ('A' for Active; 'I' for Inactive)
REMARK    1  A    between atoms: C_1  and  C_2
REMARK    2  A    between atoms: C_2  and  C_3
REMARK    3  A    between atoms: C_16  and  C_19
REMARK    4  A    between atoms: N_25  and  C_28
REMARK    5  A    between atoms: C_31  and  O_34
REMARK    6  A    between atoms: O_34  and  C_35
REMARK                            x       y       z     vdW  Elec       q    Type
REMARK                         _______ _______ _______ _____ _____    ______ ____
ROOT
ATOM      1  C   UNL     1      -0.701  -0.533   0.685  0.00  0.00    -0.067 C 
ATOM      2  C   UNL     1      -0.356  -2.015   0.920  0.00  0.00    +0.018 C 
ATOM      3  C   UNL     1      -0.030  -2.588  -0.437  0.00  0.00    -0.041 C 
ATOM      4  C   UNL     1       0.982  -3.319  -0.881  0.00  0.00    -0.001 A 
ATOM      5  C   UNL     1       2.104  -3.970  -0.185  0.00  0.00    +0.010 A 
ATOM      6  C   UNL     1       2.994  -4.631  -0.970  0.00  0.00    +0.001 A 
ATOM      7  C   UNL     1       2.883  -4.710  -2.362  0.00  0.00    +0.002 A 
ATOM      8  C   UNL     1       1.879  -4.151  -3.084  0.00  0.00    +0.026 A 
ATOM      9  C   UNL     1       0.875  -3.437  -2.368  0.00  0.00    +0.043 A 
ATOM     10  N   UNL     1      -0.199  -2.840  -2.796  0.00  0.00    -0.379 N 
ATOM     11  C   UNL     1      -0.938  -2.341  -1.638  0.00  0.00    +0.097 C 
ATOM     12  C   UNL     1      -1.176  -0.830  -1.684  0.00  0.00    -0.003 C 
ATOM     13  N   UNL     1      -1.700  -0.409  -0.379  0.00  0.00    +0.387 N 
ATOM     14  H   UNL     1      -2.500  -0.978  -0.146  0.00  0.00    -0.085 HD
ATOM     15  H   UNL     1      -0.464  -2.742  -3.724  0.00  0.00    +0.160 HD
ATOM     16  H   UNL     1      -1.992   0.554  -0.443  0.00  0.00    -0.085 HD
ENDROOT
BRANCH  12  17
ATOM     17  C   UNL     1       0.123  -0.119  -1.966  0.00  0.00    +0.070 A 
ATOM     18  C   UNL     1       0.338   1.140  -1.491  0.00  0.00    +0.257 A 
ATOM     19  N   UNL     1       1.528   1.768  -1.759  0.00  0.00    -0.302 N 
ATOM     20  H   UNL     1       1.686   2.664  -1.423  0.00  0.00    +0.171 HD
ATOM     21  C   UNL     1       2.477   1.150  -2.485  0.00  0.00    +0.168 A 
ATOM     22  S   UNL     1       3.953   1.956  -2.805  0.00  0.00    -0.012 S 
ATOM     23  N   UNL     1       2.284  -0.094  -2.962  0.00  0.00    -0.256 N 
ATOM     24  C   UNL     1       1.131  -0.748  -2.717  0.00  0.00    +0.264 A 
ATOM     25  O   UNL     1       0.963  -1.876  -3.148  0.00  0.00    -0.267 OA
ATOM     26  O   UNL     1      -0.612   1.765  -0.763  0.00  0.00    -0.267 OA
BRANCH  23  27
ATOM     27  C   UNL     1       3.291  -0.714  -3.715  0.00  0.00    +0.052 A 
ATOM     28  C   UNL     1       3.279  -0.622  -5.100  0.00  0.00    +0.030 A 
ATOM     29  C   UNL     1       4.270  -1.233  -5.841  0.00  0.00    +0.047 A 
ATOM     30  C   UNL     1       5.278  -1.940  -5.202  0.00  0.00    +0.120 A 
ATOM     31  C   UNL     1       5.290  -2.034  -3.818  0.00  0.00    +0.047 A 
ATOM     32  C   UNL     1       4.303  -1.417  -3.076  0.00  0.00    +0.030 A 
BRANCH  30  33
ATOM     33  O   UNL     1       6.254  -2.542  -5.933  0.00  0.00    -0.495 OA
ATOM     34  C   UNL     1       7.261  -3.253  -5.209  0.00  0.00    +0.277 C 
ENDBRANCH  30  33
ENDBRANCH  23  27
ENDBRANCH  12  17
BRANCH   1  36
ATOM     35  C   UNL     1       1.639   0.030   1.354  0.00  0.00    +0.002 C 
ATOM     36  C   UNL     1       0.566   0.224   0.282  0.00  0.00    -0.019 C 
ENDBRANCH   1  36
TORSDOF 4
