REMARK  Name = ZINC39665376
REMARK  10 active torsions:
REMARK  status: ('A' for Active; 'I' for Inactive)
REMARK    1  A    between atoms: C_1  and  C_2
REMARK    2  A    between atoms: C_12  and  O_13
REMARK    3  A    between atoms: O_13  and  C_14
REMARK    4  A    between atoms: C_14  and  C_15
REMARK    5  A    between atoms: C_19  and  C_28
REMARK    6  A    between atoms: N_30  and  C_31
REMARK    7  A    between atoms: C_31  and  C_32
REMARK    8  A    between atoms: C_32  and  C_34
REMARK    9  A    between atoms: C_32  and  O_35
REMARK   10  A    between atoms: O_35  and  C_36
REMARK                            x       y       z     vdW  Elec       q    Type
REMARK                         _______ _______ _______ _____ _____    ______ ____
ROOT
ATOM      1  C   UNL     1       1.246  -8.639   2.985  0.00  0.00    +0.253 C 
ATOM      2  O   UNL     1       1.330  -9.378   2.027  0.00  0.00    -0.272 OA
ATOM      3  N   UNL     1       1.056  -9.152   4.217  0.00  0.00    -0.297 N 
ATOM      4  C   UNL     1       0.923  -8.416   5.497  0.00  0.00    +0.121 C 
ATOM      5  C   UNL     1      -0.176  -9.178   6.272  0.00  0.00    +0.100 C 
ATOM      6  C   UNL     1      -0.163 -10.597   5.679  0.00  0.00    -0.004 C 
ATOM      7  C   UNL     1       0.926 -10.579   4.597  0.00  0.00    +0.115 C 
ATOM      8  C   UNL     1      -1.516 -10.920   5.052  0.00  0.00    -0.010 C 
ATOM      9  C   UNL     1      -1.497 -12.355   4.520  0.00  0.00    -0.082 C 
ATOM     10  N   UNL     1      -1.211 -13.283   5.621  0.00  0.00    +0.379 N 
ATOM     11  C   UNL     1       0.130 -13.026   6.158  0.00  0.00    -0.082 C 
ATOM     12  C   UNL     1       0.180 -11.618   6.759  0.00  0.00    -0.010 C 
ATOM     13  H   UNL     1      -1.895 -13.156   6.353  0.00  0.00    -0.086 HD
ATOM     14  H   UNL     1      -1.260 -14.232   5.281  0.00  0.00    -0.086 HD
ENDROOT
BRANCH   5  15
ATOM     15  C   UNL     1       0.152  -9.218   7.742  0.00  0.00    +0.218 C 
ATOM     16  O   UNL     1       1.309  -9.233   8.105  0.00  0.00    -0.275 OA
ATOM     17  N   UNL     1      -0.840  -9.238   8.654  0.00  0.00    -0.312 N 
ATOM     18  H   UNL     1      -1.766  -9.226   8.364  0.00  0.00    +0.149 HD
BRANCH  17  19
ATOM     19  C   UNL     1      -0.521  -9.277  10.083  0.00  0.00    +0.148 C 
BRANCH  19  20
ATOM     20  C   UNL     1      -1.818  -9.292  10.895  0.00  0.00    +0.187 C 
ATOM     21  C   UNL     1      -1.488  -9.207  12.386  0.00  0.00    +0.053 C 
BRANCH  20  22
ATOM     22  O   UNL     1      -2.530 -10.503  10.633  0.00  0.00    -0.488 OA
BRANCH  22  23
ATOM     23  C   UNL     1      -3.876 -10.480  10.818  0.00  0.00    +0.121 A 
ATOM     24  C   UNL     1      -4.486  -9.351  11.344  0.00  0.00    +0.045 A 
ATOM     25  C   UNL     1      -5.854  -9.330  11.531  0.00  0.00    +0.004 A 
ATOM     26  C   UNL     1      -6.616 -10.434  11.195  0.00  0.00    +0.000 A 
ATOM     27  C   UNL     1      -6.011 -11.561  10.672  0.00  0.00    +0.004 A 
ATOM     28  C   UNL     1      -4.643 -11.585  10.477  0.00  0.00    +0.045 A 
ENDBRANCH  22  23
ENDBRANCH  20  22
ENDBRANCH  19  20
ENDBRANCH  17  19
ENDBRANCH   5  15
BRANCH   1  29
ATOM     29  C   UNL     1       1.353  -7.148   2.798  0.00  0.00    +0.324 C 
BRANCH  29  30
ATOM     30  O   UNL     1       1.551  -6.854   1.414  0.00  0.00    -0.479 OA
BRANCH  30  42
ATOM     31  C   UNL     1       2.322  -2.015  -2.414  0.00  0.00    +0.045 C 
ATOM     32  C   UNL     1       2.187  -3.459  -2.004  0.00  0.00    -0.033 A 
ATOM     33  C   UNL     1       2.252  -4.454  -2.924  0.00  0.00    +0.096 A 
ATOM     34  C   UNL     1       2.124  -5.799  -2.513  0.00  0.00    +0.338 A 
ATOM     35  O   UNL     1       2.185  -6.683  -3.348  0.00  0.00    -0.245 OA
ATOM     36  O   UNL     1       1.937  -6.127  -1.226  0.00  0.00    -0.418 OA
ATOM     37  C   UNL     1       1.863  -5.184  -0.261  0.00  0.00    +0.181 A 
ATOM     38  C   UNL     1       1.988  -3.827  -0.598  0.00  0.00    +0.024 A 
ATOM     39  C   UNL     1       1.918  -2.849   0.400  0.00  0.00    +0.012 A 
ATOM     40  C   UNL     1       1.731  -3.224   1.711  0.00  0.00    +0.004 A 
ATOM     41  C   UNL     1       1.612  -4.564   2.047  0.00  0.00    +0.049 A 
ATOM     42  C   UNL     1       1.669  -5.543   1.072  0.00  0.00    +0.164 A 
ENDBRANCH  30  42
ENDBRANCH  29  30
ENDBRANCH   1  29
TORSDOF 8
