REMARK  Name = ZINC54209099
REMARK  7 active torsions:
REMARK  status: ('A' for Active; 'I' for Inactive)
REMARK    1  A    between atoms: C_1  and  C_2
REMARK    2  A    between atoms: C_2  and  C_4
REMARK    3  A    between atoms: C_2  and  N_15
REMARK    4  A    between atoms: N_6  and  C_7
REMARK    5  A    between atoms: C_18  and  N_21
REMARK    6  A    between atoms: N_21  and  S_22
REMARK    7  A    between atoms: S_22  and  C_25
REMARK                            x       y       z     vdW  Elec       q    Type
REMARK                         _______ _______ _______ _____ _____    ______ ____
ROOT
ATOM      1  C   UNL     1       0.443   1.562  -0.403  0.00  0.00    -0.004 C 
ATOM      2  C   UNL     1      -0.030   0.151  -0.051  0.00  0.00    +0.016 C 
ENDROOT
BRANCH   2   3
ATOM      3  N   UNL     1       0.056  -0.706  -1.240  0.00  0.00    +0.387 N 
ATOM      4  C   UNL     1      -0.456  -2.043  -0.917  0.00  0.00    -0.076 C 
ATOM      5  C   UNL     1      -0.293  -2.963  -2.129  0.00  0.00    +0.002 C 
ATOM      6  C   UNL     1      -1.080  -2.386  -3.310  0.00  0.00    +0.073 C 
ATOM      7  C   UNL     1      -0.589  -0.963  -3.591  0.00  0.00    +0.002 C 
ATOM      8  C   UNL     1      -0.740  -0.117  -2.324  0.00  0.00    -0.076 C 
ATOM      9  H   UNL     1       1.019  -0.778  -1.533  0.00  0.00    -0.081 HD
BRANCH   6  10
ATOM     10  N   UNL     1      -0.867  -3.221  -4.495  0.00  0.00    -0.192 NA
ATOM     11  H   UNL     1      -0.006  -3.642  -4.643  0.00  0.00    +0.148 HD
BRANCH  10  12
ATOM     12  S   UNL     1      -2.097  -3.445  -5.581  0.00  0.00    +0.027 S 
ATOM     13  O   UNL     1      -1.555  -4.310  -6.569  0.00  0.00    -0.158 OA
ATOM     14  O   UNL     1      -3.207  -3.852  -4.792  0.00  0.00    -0.158 OA
ATOM     15  C   UNL     1      -2.401  -1.802  -6.287  0.00  0.00    +0.214 C 
ENDBRANCH  10  12
ENDBRANCH   6  10
ENDBRANCH   2   3
BRANCH   2  16
ATOM     16  C   UNL     1       0.843  -0.414   1.040  0.00  0.00    +0.203 C 
ATOM     17  O   UNL     1       1.820  -1.074   0.754  0.00  0.00    -0.277 OA
ATOM     18  N   UNL     1       0.539  -0.187   2.333  0.00  0.00    -0.286 N 
ATOM     19  H   UNL     1      -0.281   0.278   2.564  0.00  0.00    +0.155 HD
BRANCH  18  20
ATOM     20  C   UNL     1       1.406  -0.621   3.343  0.00  0.00    +0.053 A 
ATOM     21  C   UNL     1       2.733  -0.901   3.047  0.00  0.00    +0.044 A 
ATOM     22  C   UNL     1       3.587  -1.328   4.046  0.00  0.00    +0.043 A 
ATOM     23  C   UNL     1       3.120  -1.478   5.341  0.00  0.00    +0.021 A 
ATOM     24  C   UNL     1       1.798  -1.200   5.638  0.00  0.00    +0.023 A 
ATOM     25  C   UNL     1       0.941  -0.766   4.644  0.00  0.00    +0.062 A 
ATOM     26 CL   UNL     1      -0.716  -0.411   5.020  0.00  0.00    -0.082 Cl
ATOM     27 CL   UNL     1       5.247  -1.679   3.678  0.00  0.00    -0.083 Cl
ENDBRANCH  18  20
ENDBRANCH   2  16
TORSDOF 5
