REMARK  Name = ZINC39636667
REMARK  10 active torsions:
REMARK  status: ('A' for Active; 'I' for Inactive)
REMARK    1  A    between atoms: C_1  and  C_2
REMARK    2  A    between atoms: C_5  and  C_35
REMARK    3  A    between atoms: C_6  and  C_8
REMARK    4  A    between atoms: C_8  and  N_9
REMARK    5  A    between atoms: C_10  and  C_12
REMARK    6  A    between atoms: C_23  and  C_25
REMARK    7  A    between atoms: C_25  and  C_26
REMARK    8  A    between atoms: C_26  and  C_27
REMARK    9  A    between atoms: C_30  and  O_33
REMARK   10  A    between atoms: O_33  and  C_34
REMARK                            x       y       z     vdW  Elec       q    Type
REMARK                         _______ _______ _______ _____ _____    ______ ____
ROOT
ATOM      1  C   UNL     1       3.085  -4.431   4.205  0.00  0.00    +0.100 C 
ATOM      2  C   UNL     1       3.539  -5.502   3.188  0.00  0.00    +0.121 C 
ATOM      3  N   UNL     1       4.348  -6.455   3.983  0.00  0.00    -0.300 N 
ATOM      4  C   UNL     1       3.623  -6.569   5.271  0.00  0.00    +0.115 C 
ATOM      5  C   UNL     1       3.141  -5.136   5.571  0.00  0.00    -0.004 C 
ATOM      6  C   UNL     1       4.132  -4.428   6.490  0.00  0.00    -0.010 C 
ATOM      7  C   UNL     1       4.128  -5.112   7.860  0.00  0.00    -0.082 C 
ATOM      8  N   UNL     1       2.776  -5.060   8.431  0.00  0.00    +0.379 N 
ATOM      9  C   UNL     1       1.847  -5.822   7.588  0.00  0.00    -0.082 C 
ATOM     10  C   UNL     1       1.755  -5.168   6.207  0.00  0.00    -0.010 C 
ATOM     11  C   UNL     1       5.486  -7.079   3.618  0.00  0.00    +0.216 C 
ATOM     12  O   UNL     1       6.035  -7.838   4.387  0.00  0.00    -0.276 OA
ATOM     13  H   UNL     1       2.789  -5.457   9.359  0.00  0.00    -0.086 HD
ATOM     14  H   UNL     1       2.471  -4.100   8.483  0.00  0.00    -0.086 HD
ENDROOT
BRANCH   1  16
ATOM     15  N   UNL     1       1.283  -2.737   4.232  0.00  0.00    -0.311 N 
ATOM     16  C   UNL     1       1.679  -3.983   3.903  0.00  0.00    +0.218 C 
ATOM     17  O   UNL     1       0.902  -4.743   3.364  0.00  0.00    -0.275 OA
ATOM     18  H   UNL     1       1.904  -2.129   4.664  0.00  0.00    +0.149 HD
BRANCH  15  19
ATOM     19  C   UNL     1      -0.084  -2.301   3.939  0.00  0.00    +0.139 C 
BRANCH  19  25
ATOM     20  C   UNL     1      -1.764   0.963   7.340  0.00  0.00    +0.044 C 
ATOM     21  C   UNL     1      -1.073   0.682   6.030  0.00  0.00    -0.050 A 
ATOM     22  C   UNL     1      -0.609   1.728   5.255  0.00  0.00    +0.003 A 
ATOM     23  C   UNL     1       0.024   1.471   4.054  0.00  0.00    +0.004 A 
ATOM     24  C   UNL     1       0.194   0.166   3.628  0.00  0.00    -0.046 A 
ATOM     25  C   UNL     1      -0.269  -0.880   4.403  0.00  0.00    -0.027 A 
ATOM     26  C   UNL     1      -0.899  -0.622   5.607  0.00  0.00    +0.008 A 
ATOM     27  C   UNL     1       0.883  -0.115   2.318  0.00  0.00    +0.044 C 
ENDBRANCH  19  25
ENDBRANCH  15  19
ENDBRANCH   1  16
BRANCH  11  28
ATOM     28  C   UNL     1       6.075  -6.832   2.253  0.00  0.00    +0.100 C 
BRANCH  28  29
ATOM     29  C   UNL     1       7.355  -7.655   2.094  0.00  0.00    +0.044 C 
BRANCH  29  30
ATOM     30  C   UNL     1       7.945  -7.408   0.729  0.00  0.00    -0.047 A 
ATOM     31  C   UNL     1       7.570  -8.202  -0.339  0.00  0.00    +0.007 A 
ATOM     32  C   UNL     1       8.109  -7.978  -1.591  0.00  0.00    +0.046 A 
ATOM     33  C   UNL     1       9.027  -6.955  -1.776  0.00  0.00    +0.120 A 
ATOM     34  C   UNL     1       9.402  -6.159  -0.703  0.00  0.00    +0.046 A 
ATOM     35  C   UNL     1       8.855  -6.384   0.545  0.00  0.00    +0.007 A 
BRANCH  33  36
ATOM     36  O   UNL     1       9.560  -6.733  -3.007  0.00  0.00    -0.495 OA
ATOM     37  C   UNL     1      10.499  -5.662  -3.124  0.00  0.00    +0.277 C 
ENDBRANCH  33  36
ENDBRANCH  29  30
ENDBRANCH  28  29
ENDBRANCH  11  28
TORSDOF 7
