REMARK  Name = ZINC35746408
REMARK  12 active torsions:
REMARK  status: ('A' for Active; 'I' for Inactive)
REMARK    1  A    between atoms: C_1  and  C_2
REMARK    2  A    between atoms: C_5  and  C_9
REMARK    3  A    between atoms: C_6  and  C_8
REMARK    4  A    between atoms: C_18  and  C_20
REMARK    5  A    between atoms: C_20  and  N_21
REMARK    6  A    between atoms: N_21  and  C_22
REMARK    7  A    between atoms: N_21  and  C_32
REMARK    8  A    between atoms: C_22  and  C_23
REMARK    9  A    between atoms: C_23  and  C_25
REMARK   10  A    between atoms: C_23  and  O_31
REMARK   11  A    between atoms: C_32  and  C_33
REMARK   12  A    between atoms: C_32  and  C_34
REMARK                            x       y       z     vdW  Elec       q    Type
REMARK                         _______ _______ _______ _____ _____    ______ ____
ROOT
ATOM      1  C   UNL     1      -0.832  -4.404  -1.609  0.00  0.00    +0.004 A 
ATOM      2  C   UNL     1       0.203  -5.124  -2.107  0.00  0.00    +0.056 A 
ATOM      3  S   UNL     1      -0.146  -6.783  -1.554  0.00  0.00    -0.076 S 
ATOM      4  C   UNL     1      -1.656  -6.474  -0.677  0.00  0.00    +0.116 A 
ATOM      5  C   UNL     1      -1.853  -5.091  -0.828  0.00  0.00    +0.080 A 
ATOM      6  C   UNL     1      -3.023  -4.559  -0.199  0.00  0.00    +0.260 A 
ATOM      7  O   UNL     1      -3.282  -3.370  -0.278  0.00  0.00    -0.267 OA
ATOM      8  N   UNL     1      -3.835  -5.391   0.480  0.00  0.00    -0.309 N 
ATOM      9  H   UNL     1      -4.630  -5.036   0.908  0.00  0.00    +0.170 HD
ATOM     10  C   UNL     1      -3.563  -6.718   0.578  0.00  0.00    +0.125 A 
ATOM     11  N   UNL     1      -2.508  -7.234   0.006  0.00  0.00    -0.225 NA
ENDROOT
BRANCH   1  16
ATOM     12  C   UNL     1      -1.177   1.267  -2.544  0.00  0.00    +0.044 C 
ATOM     13  C   UNL     1      -1.087  -0.217  -2.300  0.00  0.00    -0.050 A 
ATOM     14  C   UNL     1      -1.185  -1.098  -3.362  0.00  0.00    +0.004 A 
ATOM     15  C   UNL     1      -1.103  -2.458  -3.144  0.00  0.00    +0.009 A 
ATOM     16  C   UNL     1      -0.920  -2.944  -1.850  0.00  0.00    -0.014 A 
ATOM     17  C   UNL     1      -0.822  -2.052  -0.783  0.00  0.00    -0.042 A 
ATOM     18  C   UNL     1      -0.900  -0.693  -1.014  0.00  0.00    +0.007 A 
ATOM     19  C   UNL     1      -0.624  -2.569   0.618  0.00  0.00    +0.044 C 
ENDBRANCH   1  16
BRANCH  10  20
ATOM     20  C   UNL     1      -4.500  -7.611   1.348  0.00  0.00    +0.159 C 
BRANCH  20  21
ATOM     21  N   UNL     1      -3.915  -8.954   1.462  0.00  0.00    -0.290 NA
BRANCH  21  22
ATOM     22  C   UNL     1      -2.972  -9.023   2.586  0.00  0.00    +0.051 C 
ATOM     23  C   UNL     1      -1.884  -7.963   2.405  0.00  0.00    +0.024 C 
ATOM     24  C   UNL     1      -3.720  -8.768   3.896  0.00  0.00    +0.024 C 
ENDBRANCH  21  22
BRANCH  21  25
ATOM     25  C   UNL     1      -4.962  -9.976   1.589  0.00  0.00    +0.121 C 
BRANCH  25  26
ATOM     26  C   UNL     1      -4.372 -11.352   1.277  0.00  0.00    +0.158 C 
BRANCH  26  27
ATOM     27  C   UNL     1      -5.477 -12.376   1.240  0.00  0.00    -0.018 A 
ATOM     28  C   UNL     1      -5.981 -12.892   2.419  0.00  0.00    +0.006 A 
ATOM     29  C   UNL     1      -6.995 -13.831   2.385  0.00  0.00    +0.000 A 
ATOM     30  C   UNL     1      -7.505 -14.254   1.171  0.00  0.00    +0.000 A 
ATOM     31  C   UNL     1      -7.001 -13.738  -0.008  0.00  0.00    +0.000 A 
ATOM     32  C   UNL     1      -5.990 -12.795   0.026  0.00  0.00    +0.006 A 
ENDBRANCH  26  27
BRANCH  26  33
ATOM     33  O   UNL     1      -3.428 -11.707   2.290  0.00  0.00    -0.386 OA
ATOM     34  H   UNL     1      -3.817 -11.816   3.169  0.00  0.00    +0.210 HD
ENDBRANCH  26  33
ENDBRANCH  25  26
ENDBRANCH  21  25
ENDBRANCH  20  21
ENDBRANCH  10  20
TORSDOF 8
