REMARK  Name = ZINC39659570
REMARK  8 active torsions:
REMARK  status: ('A' for Active; 'I' for Inactive)
REMARK    1  A    between atoms: C_1  and  C_2
REMARK    2  A    between atoms: C_2  and  C_33
REMARK    3  A    between atoms: C_5  and  C_8
REMARK    4  A    between atoms: C_8  and  N_9
REMARK    5  A    between atoms: C_10  and  C_12
REMARK    6  A    between atoms: C_23  and  C_25
REMARK    7  A    between atoms: C_29  and  O_30
REMARK    8  A    between atoms: O_30  and  C_31
REMARK                            x       y       z     vdW  Elec       q    Type
REMARK                         _______ _______ _______ _____ _____    ______ ____
ROOT
ATOM      1  C   UNL     1       3.638  -2.093   5.171  0.00  0.00    +0.100 C 
ATOM      2  C   UNL     1       2.514  -1.380   5.956  0.00  0.00    +0.121 C 
ATOM      3  N   UNL     1       2.982  -1.377   7.362  0.00  0.00    -0.296 N 
ATOM      4  C   UNL     1       4.437  -1.107   7.265  0.00  0.00    +0.115 C 
ATOM      5  C   UNL     1       4.898  -1.911   6.033  0.00  0.00    -0.004 C 
ATOM      6  C   UNL     1       5.958  -1.131   5.261  0.00  0.00    -0.010 C 
ATOM      7  C   UNL     1       7.223  -1.013   6.117  0.00  0.00    -0.082 C 
ATOM      8  N   UNL     1       7.718  -2.355   6.448  0.00  0.00    +0.379 N 
ATOM      9  C   UNL     1       6.730  -3.064   7.270  0.00  0.00    -0.082 C 
ATOM     10  C   UNL     1       5.445  -3.269   6.463  0.00  0.00    -0.010 C 
ATOM     11  C   UNL     1       2.252  -1.576   8.476  0.00  0.00    +0.251 C 
ATOM     12  O   UNL     1       1.079  -1.886   8.387  0.00  0.00    -0.270 OA
ATOM     13  H   UNL     1       7.880  -2.872   5.597  0.00  0.00    -0.086 HD
ATOM     14  H   UNL     1       8.584  -2.275   6.960  0.00  0.00    -0.086 HD
ENDROOT
BRANCH  11  15
ATOM     15  C   UNL     1       2.872  -1.418   9.800  0.00  0.00    +0.087 A 
ATOM     16  C   UNL     1       3.845  -0.470  10.033  0.00  0.00    +0.063 A 
ATOM     17  S   UNL     1       4.236  -0.667  11.652  0.00  0.00    -0.081 S 
ATOM     18  C   UNL     1       3.137  -2.000  12.080  0.00  0.00    +0.120 A 
ATOM     19  C   UNL     1       2.486  -2.245  10.920  0.00  0.00    +0.158 A 
ATOM     20 CL   UNL     1       2.944  -2.790  13.614  0.00  0.00    -0.072 Cl
BRANCH  19  21
ATOM     21  O   UNL     1       1.532  -3.211  10.814  0.00  0.00    -0.492 OA
ATOM     22  C   UNL     1       1.972  -4.519  10.445  0.00  0.00    +0.277 C 
ENDBRANCH  19  21
ENDBRANCH  11  15
BRANCH   1  24
ATOM     23  N   UNL     1       4.431  -2.130   2.828  0.00  0.00    -0.312 N 
ATOM     24  C   UNL     1       3.827  -1.448   3.822  0.00  0.00    +0.218 C 
ATOM     25  O   UNL     1       3.436  -0.316   3.631  0.00  0.00    -0.275 OA
ATOM     26  H   UNL     1       4.743  -3.035   2.981  0.00  0.00    +0.149 HD
BRANCH  23  27
ATOM     27  C   UNL     1       4.614  -1.503   1.517  0.00  0.00    +0.138 C 
BRANCH  27  32
ATOM     28  C   UNL     1       3.367  -3.603  -1.969  0.00  0.00    +0.074 C 
ATOM     29  C   UNL     1       4.661  -3.831  -1.186  0.00  0.00    +0.165 C 
ATOM     30  O   UNL     1       5.683  -2.944  -1.673  0.00  0.00    -0.347 OA
ATOM     31  C   UNL     1       5.641  -1.806  -0.779  0.00  0.00    +0.196 C 
ATOM     32  C   UNL     1       5.320  -2.483   0.578  0.00  0.00    +0.164 C 
ATOM     33  O   UNL     1       4.438  -3.560   0.204  0.00  0.00    -0.342 OA
ATOM     34  C   UNL     1       5.118  -5.281  -1.360  0.00  0.00    +0.074 C 
ENDBRANCH  27  32
ENDBRANCH  23  27
ENDBRANCH   1  24
TORSDOF 5
