REMARK  Name = ZINC38653262
REMARK  9 active torsions:
REMARK  status: ('A' for Active; 'I' for Inactive)
REMARK    1  A    between atoms: C_1  and  C_2
REMARK    2  A    between atoms: C_5  and  C_30
REMARK    3  A    between atoms: N_8  and  C_10
REMARK    4  A    between atoms: C_10  and  C_11
REMARK    5  A    between atoms: C_11  and  C_12
REMARK    6  A    between atoms: N_14  and  C_15
REMARK    7  A    between atoms: C_23  and  C_25
REMARK    8  A    between atoms: C_25  and  O_27
REMARK    9  A    between atoms: O_27  and  C_28
REMARK                            x       y       z     vdW  Elec       q    Type
REMARK                         _______ _______ _______ _____ _____    ______ ____
ROOT
ATOM      1  C   UNL     1       3.940  -2.389   3.369  0.00  0.00    +0.215 C 
ATOM      2  O   UNL     1       3.288  -2.834   4.289  0.00  0.00    -0.276 OA
ATOM      3  N   UNL     1       5.281  -2.306   3.472  0.00  0.00    -0.286 N 
ATOM      4  H   UNL     1       5.808  -2.000   2.717  0.00  0.00    +0.155 HD
ENDROOT
BRANCH   3   5
ATOM      5  C   UNL     1       5.898  -2.652   4.638  0.00  0.00    +0.053 C 
ATOM      6  C   UNL     1       7.208  -2.390   4.999  0.00  0.00    +0.020 A 
ATOM      7  C   UNL     1       8.268  -1.727   4.333  0.00  0.00    +0.050 A 
ATOM      8  C   UNL     1       9.477  -1.615   4.940  0.00  0.00    +0.124 A 
ATOM      9  C   UNL     1       9.708  -2.140   6.216  0.00  0.00    +0.040 A 
ATOM     10  C   UNL     1       8.740  -2.786   6.910  0.00  0.00    +0.029 A 
ATOM     11  C   UNL     1       7.449  -2.944   6.342  0.00  0.00    +0.045 A 
ATOM     12  N   UNL     1       6.358  -3.522   6.804  0.00  0.00    -0.367 N 
ATOM     13  C   UNL     1       5.290  -3.396   5.806  0.00  0.00    +0.234 C 
ATOM     14  F   UNL     1      10.481  -0.981   4.296  0.00  0.00    -0.205 F 
ATOM     15  H   UNL     1       6.273  -3.956   7.667  0.00  0.00    +0.161 HD
BRANCH  13  16
ATOM     16  C   UNL     1       4.829  -4.762   5.369  0.00  0.00    +0.335 C 
ATOM     17  O   UNL     1       5.505  -5.734   5.611  0.00  0.00    -0.248 OA
BRANCH  16  18
ATOM     18  O   UNL     1       3.668  -4.899   4.710  0.00  0.00    -0.466 OA
ATOM     19  C   UNL     1       3.293  -6.223   4.325  0.00  0.00    +0.280 C 
ENDBRANCH  16  18
ENDBRANCH  13  16
ENDBRANCH   3   5
BRANCH   1  20
ATOM     20  C   UNL     1       3.251  -1.928   2.111  0.00  0.00    +0.077 C 
BRANCH  20  21
ATOM     21  C   UNL     1       1.741  -2.130   2.253  0.00  0.00    -0.070 C 
BRANCH  21  27
ATOM     22  C   UNL     1       0.836   1.732  -0.616  0.00  0.00    +0.005 C 
ATOM     23  C   UNL     1       0.635   0.225  -0.452  0.00  0.00    -0.031 C 
ATOM     24  C   UNL     1      -0.863  -0.092  -0.435  0.00  0.00    +0.003 C 
ATOM     25  C   UNL     1      -1.055  -1.592  -0.192  0.00  0.00    -0.031 C 
ATOM     26  C   UNL     1      -0.364  -1.984   1.115  0.00  0.00    -0.076 C 
ATOM     27  N   UNL     1       1.069  -1.681   1.026  0.00  0.00    +0.380 N 
ATOM     28  C   UNL     1       1.264  -0.235   0.865  0.00  0.00    -0.076 C 
ATOM     29  C   UNL     1      -2.549  -1.908  -0.096  0.00  0.00    +0.005 C 
ATOM     30  H   UNL     1       1.465  -2.162   0.233  0.00  0.00    -0.082 HD
ENDBRANCH  21  27
ENDBRANCH  20  21
ENDBRANCH   1  20
TORSDOF 6
