REMARK  Name = ZINC12418998
REMARK  9 active torsions:
REMARK  status: ('A' for Active; 'I' for Inactive)
REMARK    1  A    between atoms: C_1  and  C_2
REMARK    2  A    between atoms: C_2  and  C_3
REMARK    3  A    between atoms: C_3  and  C_11
REMARK    4  A    between atoms: C_14  and  N_17
REMARK    5  A    between atoms: N_17  and  C_18
REMARK    6  A    between atoms: C_19  and  C_27
REMARK    7  A    between atoms: C_30  and  N_33
REMARK    8  A    between atoms: N_33  and  C_34
REMARK    9  A    between atoms: N_33  and  C_35
REMARK                            x       y       z     vdW  Elec       q    Type
REMARK                         _______ _______ _______ _____ _____    ______ ____
ROOT
ATOM      1  N   UNL     1       0.569   4.245   0.376  0.00  0.00    -0.299 N 
ATOM      2  H   UNL     1       0.820   5.161   0.183  0.00  0.00    +0.154 HD
ENDROOT
BRANCH   1   3
ATOM      3  C   UNL     1       1.550   3.302   0.688  0.00  0.00    +0.135 A 
ATOM      4  C   UNL     1       2.587   2.896  -0.125  0.00  0.00    +0.112 A 
ATOM      5  N   UNL     1       3.306   1.977   0.545  0.00  0.00    -0.226 NA
ATOM      6  C   UNL     1       2.769   1.788   1.740  0.00  0.00    +0.140 A 
ATOM      7  N   UNL     1       1.667   2.604   1.859  0.00  0.00    -0.287 N 
ATOM      8  C   UNL     1       0.925   2.601   3.009  0.00  0.00    +0.094 A 
ATOM      9  C   UNL     1       1.261   1.801   4.040  0.00  0.00    +0.018 A 
ATOM     10  C   UNL     1       2.381   0.956   3.949  0.00  0.00    +0.005 A 
ATOM     11  C   UNL     1       3.129   0.947   2.813  0.00  0.00    +0.047 A 
BRANCH   4  12
ATOM     12  C   UNL     1       2.862   3.385  -1.496  0.00  0.00    +0.004 A 
ATOM     13  C   UNL     1       1.806   3.706  -2.348  0.00  0.00    +0.012 A 
ATOM     14  C   UNL     1       2.065   4.167  -3.622  0.00  0.00    +0.024 A 
ATOM     15  C   UNL     1       3.377   4.302  -4.060  0.00  0.00    +0.029 A 
ATOM     16  C   UNL     1       4.431   3.977  -3.215  0.00  0.00    +0.024 A 
ATOM     17  C   UNL     1       4.178   3.521  -1.939  0.00  0.00    +0.012 A 
BRANCH  15  18
ATOM     18  N   UNL     1       3.636   4.764  -5.353  0.00  0.00    -0.336 N 
ATOM     19  C   UNL     1       5.009   4.781  -5.863  0.00  0.00    +0.129 C 
ATOM     20  C   UNL     1       2.535   5.231  -6.199  0.00  0.00    +0.129 C 
ENDBRANCH  15  18
ENDBRANCH   4  12
ENDBRANCH   1   3
BRANCH   1  24
ATOM     21  C   UNL     1      -3.439   3.122   0.275  0.00  0.00    -0.032 A 
ATOM     22  C   UNL     1      -3.098   4.462   0.266  0.00  0.00    +0.006 A 
ATOM     23  C   UNL     1      -1.770   4.838   0.299  0.00  0.00    +0.023 A 
ATOM     24  C   UNL     1      -0.776   3.868   0.343  0.00  0.00    +0.032 A 
ATOM     25  C   UNL     1      -1.122   2.522   0.347  0.00  0.00    +0.023 A 
ATOM     26  C   UNL     1      -2.453   2.154   0.318  0.00  0.00    +0.006 A 
BRANCH  21  27
ATOM     27  C   UNL     1      -4.890   2.716   0.239  0.00  0.00    +0.072 C 
ATOM     28  C   UNL     1      -4.997   1.190   0.332  0.00  0.00    +0.030 C 
ATOM     29  C   UNL     1      -6.480   0.808   0.406  0.00  0.00    +0.097 C 
ATOM     30  C   UNL     1      -7.118   1.530   1.564  0.00  0.00    +0.219 C 
ATOM     31  O   UNL     1      -8.062   1.024   2.132  0.00  0.00    -0.275 OA
ATOM     32  N   UNL     1      -6.662   2.721   1.979  0.00  0.00    -0.256 N 
ATOM     33  C   UNL     1      -5.615   3.334   1.405  0.00  0.00    +0.230 C 
ATOM     34  O   UNL     1      -5.246   4.406   1.834  0.00  0.00    -0.274 OA
ATOM     35  H   UNL     1      -7.106   3.156   2.723  0.00  0.00    +0.157 HD
BRANCH  27  37
ATOM     36  C   UNL     1      -4.720   2.652  -2.253  0.00  0.00    +0.005 C 
ATOM     37  C   UNL     1      -5.523   3.195  -1.069  0.00  0.00    +0.017 C 
ENDBRANCH  27  37
ENDBRANCH  21  27
ENDBRANCH   1  24
TORSDOF 6
