REMARK  Name = ZINC12445720
REMARK  7 active torsions:
REMARK  status: ('A' for Active; 'I' for Inactive)
REMARK    1  A    between atoms: C_1  and  C_2
REMARK    2  A    between atoms: C_4  and  C_31
REMARK    3  A    between atoms: C_6  and  N_8
REMARK    4  A    between atoms: C_11  and  C_18
REMARK    5  A    between atoms: C_13  and  C_16
REMARK    6  A    between atoms: C_14  and  N_15
REMARK    7  A    between atoms: C_21  and  N_23
REMARK                            x       y       z     vdW  Elec       q    Type
REMARK                         _______ _______ _______ _____ _____    ______ ____
ROOT
ATOM      1  N   UNL     1      -3.010   7.256   0.043  0.00  0.00    -0.260 N 
ATOM      2  C   UNL     1      -3.808   7.107  -1.060  0.00  0.00    +0.024 C 
ATOM      3  C   UNL     1      -4.518   5.974  -1.247  0.00  0.00    +0.026 C 
ATOM      4  C   UNL     1      -4.442   4.839  -0.257  0.00  0.00    +0.104 C 
ATOM      5  C   UNL     1      -3.888   5.304   1.057  0.00  0.00    +0.077 C 
ATOM      6  C   UNL     1      -3.202   6.471   1.157  0.00  0.00    +0.107 C 
ATOM      7  C   UNL     1      -5.352   5.819  -2.368  0.00  0.00    +0.162 C 
ATOM      8  O   UNL     1      -5.973   4.784  -2.510  0.00  0.00    -0.292 OA
ATOM      9  C   UNL     1      -5.491   6.909  -3.395  0.00  0.00    +0.080 C 
ATOM     10  C   UNL     1      -5.248   8.263  -2.721  0.00  0.00    +0.014 C 
ATOM     11  C   UNL     1      -3.868   8.236  -2.060  0.00  0.00    +0.052 C 
ENDROOT
BRANCH   1  17
ATOM     12  C   UNL     1       1.626   8.500  -1.024  0.00  0.00    +0.044 C 
ATOM     13  C   UNL     1       0.266   8.845  -0.473  0.00  0.00    -0.048 A 
ATOM     14  C   UNL     1       0.025  10.112   0.027  0.00  0.00    +0.006 A 
ATOM     15  C   UNL     1      -1.222  10.432   0.533  0.00  0.00    -0.048 A 
ATOM     16  C   UNL     1      -2.230   9.488   0.539  0.00  0.00    +0.027 A 
ATOM     17  C   UNL     1      -1.990   8.216   0.038  0.00  0.00    +0.040 A 
ATOM     18  C   UNL     1      -0.736   7.895  -0.464  0.00  0.00    +0.027 A 
ATOM     19  C   UNL     1      -1.481  11.814   1.077  0.00  0.00    +0.044 C 
ENDBRANCH   1  17
BRANCH   4  20
ATOM     20  C   UNL     1      -3.552   3.758  -0.814  0.00  0.00    +0.005 A 
ATOM     21  C   UNL     1      -3.854   2.469  -1.104  0.00  0.00    +0.014 A 
ATOM     22  C   UNL     1      -2.868   1.648  -1.618  0.00  0.00    +0.041 A 
ATOM     23  C   UNL     1      -1.624   2.154  -1.806  0.00  0.00    +0.164 A 
ATOM     24  S   UNL     1      -1.826   3.842  -1.262  0.00  0.00    -0.068 S 
BRANCH  23  25
ATOM     25  N   UNL     1      -0.414   1.482  -2.332  0.00  0.00    +0.063 N 
ATOM     26  O   UNL     1      -0.462   0.309  -2.658  0.00  0.00    -0.126 OA
ATOM     27  O   UNL     1       0.628   2.103  -2.442  0.00  0.00    -0.126 OA
ENDBRANCH  23  25
ENDBRANCH   4  20
BRANCH   6  28
ATOM     28  N   UNL     1      -2.698   6.868   2.373  0.00  0.00    -0.345 N 
ATOM     29  H   UNL     1      -2.285   7.741   2.464  0.00  0.00    +0.144 HD
ATOM     30  H   UNL     1      -2.756   6.276   3.139  0.00  0.00    +0.144 HD
ENDBRANCH   6  28
BRANCH   5  31
ATOM     31  C   UNL     1      -4.086   4.503   2.227  0.00  0.00    +0.099 C 
ATOM     32  N   UNL     1      -4.243   3.868   3.156  0.00  0.00    -0.191 NA
ENDBRANCH   5  31
TORSDOF 5
