REMARK  Name = ZINC08695963
REMARK  11 active torsions:
REMARK  status: ('A' for Active; 'I' for Inactive)
REMARK    1  A    between atoms: C_1  and  N_2
REMARK    2  A    between atoms: N_2  and  C_3
REMARK    3  A    between atoms: N_2  and  C_4
REMARK    4  A    between atoms: C_7  and  N_10
REMARK    5  A    between atoms: C_11  and  C_13
REMARK    6  A    between atoms: C_13  and  N_19
REMARK    7  A    between atoms: N_19  and  C_20
REMARK    8  A    between atoms: C_20  and  C_21
REMARK    9  A    between atoms: C_26  and  C_28
REMARK   10  A    between atoms: C_28  and  N_29
REMARK   11  A    between atoms: C_31  and  C_36
REMARK                            x       y       z     vdW  Elec       q    Type
REMARK                         _______ _______ _______ _____ _____    ______ ____
ROOT
ATOM      1  N   UNL     1      -5.483   3.122   1.687  0.00  0.00    -0.279 N 
ATOM      2  C   UNL     1      -4.685   2.466   0.821  0.00  0.00    +0.234 C 
ATOM      3  O   UNL     1      -4.598   1.257   0.873  0.00  0.00    -0.274 OA
ENDROOT
BRANCH   1   4
ATOM      4  C   UNL     1      -6.371   2.371   2.578  0.00  0.00    +0.116 C 
ATOM      5  C   UNL     1      -5.530   1.529   3.533  0.00  0.00    +0.046 C 
ATOM      6  C   UNL     1      -4.471   0.750   2.749  0.00  0.00    +0.071 C 
ATOM      7  S   UNL     1      -5.312  -0.389   1.609  0.00  0.00    -0.161 S 
ATOM      8  C   UNL     1      -6.464   0.699   0.717  0.00  0.00    +0.071 C 
ATOM      9  C   UNL     1      -7.289   1.484   1.741  0.00  0.00    +0.046 C 
BRANCH   4  11
ATOM     10  N   UNL     1      -6.611   4.260   4.157  0.00  0.00    -0.284 N 
ATOM     11  C   UNL     1      -7.208   3.338   3.375  0.00  0.00    +0.241 C 
ATOM     12  O   UNL     1      -8.418   3.288   3.313  0.00  0.00    -0.273 OA
ATOM     13  H   UNL     1      -5.645   4.352   4.147  0.00  0.00    +0.155 HD
BRANCH  10  17
ATOM     14  C   UNL     1      -8.916   6.715   6.617  0.00  0.00    +0.029 A 
ATOM     15  C   UNL     1      -7.567   6.988   6.432  0.00  0.00    +0.025 A 
ATOM     16  C   UNL     1      -6.804   6.175   5.617  0.00  0.00    +0.025 A 
ATOM     17  C   UNL     1      -7.386   5.085   4.983  0.00  0.00    +0.034 A 
ATOM     18  C   UNL     1      -8.736   4.816   5.163  0.00  0.00    +0.025 A 
ATOM     19  C   UNL     1      -9.498   5.625   5.982  0.00  0.00    +0.025 A 
BRANCH  14  21
ATOM     20  C   UNL     1      -9.075   8.688   8.112  0.00  0.00    +0.129 C 
ATOM     21  N   UNL     1      -9.689   7.539   7.442  0.00  0.00    -0.336 N 
ATOM     22  C   UNL     1     -11.112   7.251   7.637  0.00  0.00    +0.129 C 
ENDBRANCH  14  21
ENDBRANCH  10  17
ENDBRANCH   4  11
ENDBRANCH   1   4
BRANCH   1  23
ATOM     23  C   UNL     1      -5.462   4.586   1.737  0.00  0.00    +0.183 C 
BRANCH  23  24
ATOM     24  C   UNL     1      -6.349   5.138   0.651  0.00  0.00    +0.122 A 
ATOM     25  C   UNL     1      -7.674   5.351   0.749  0.00  0.00    +0.046 A 
ATOM     26  C   UNL     1      -8.097   5.875  -0.493  0.00  0.00    +0.041 A 
ATOM     27  C   UNL     1      -7.008   5.944  -1.279  0.00  0.00    +0.195 A 
ATOM     28  O   UNL     1      -5.952   5.496  -0.581  0.00  0.00    -0.466 OA
ENDBRANCH  23  24
ENDBRANCH   1  23
BRANCH   2  29
ATOM     29  C   UNL     1      -3.900   3.234  -0.211  0.00  0.00    +0.202 C 
BRANCH  29  30
ATOM     30  N   UNL     1      -3.117   2.300  -1.023  0.00  0.00    -0.302 N 
ATOM     31  C   UNL     1      -1.743   1.857  -0.727  0.00  0.00    +0.134 C 
ATOM     32  C   UNL     1      -1.412   0.896  -1.886  0.00  0.00    +0.119 C 
ATOM     33  N   UNL     1      -2.629   0.901  -2.711  0.00  0.00    -0.318 N 
ATOM     34  C   UNL     1      -3.535   1.716  -2.154  0.00  0.00    +0.134 C 
ATOM     35  S   UNL     1      -5.087   1.985  -2.825  0.00  0.00    -0.019 S 
ATOM     36  H   UNL     1      -2.756   0.395  -3.529  0.00  0.00    +0.148 HD
BRANCH  32  37
ATOM     37  C   UNL     1      -1.135  -0.489  -1.361  0.00  0.00    -0.026 A 
ATOM     38  C   UNL     1      -2.183  -1.309  -0.986  0.00  0.00    +0.005 A 
ATOM     39  C   UNL     1      -1.929  -2.582  -0.509  0.00  0.00    +0.000 A 
ATOM     40  C   UNL     1      -0.626  -3.030  -0.398  0.00  0.00    +0.000 A 
ATOM     41  C   UNL     1       0.422  -2.209  -0.768  0.00  0.00    +0.000 A 
ATOM     42  C   UNL     1       0.168  -0.938  -1.249  0.00  0.00    +0.005 A 
ENDBRANCH  32  37
ENDBRANCH  29  30
ENDBRANCH   2  29
TORSDOF 9
