REMARK  Name = ZINC35418855
REMARK  9 active torsions:
REMARK  status: ('A' for Active; 'I' for Inactive)
REMARK    1  A    between atoms: C_1  and  C_2
REMARK    2  A    between atoms: C_2  and  O_3
REMARK    3  A    between atoms: O_3  and  C_4
REMARK    4  A    between atoms: C_4  and  C_6
REMARK    5  A    between atoms: C_6  and  S_7
REMARK    6  A    between atoms: S_7  and  C_8
REMARK    7  A    between atoms: C_15  and  C_29
REMARK    8  A    between atoms: C_23  and  C_27
REMARK    9  A    between atoms: C_23  and  C_28
REMARK                            x       y       z     vdW  Elec       q    Type
REMARK                         _______ _______ _______ _____ _____    ______ ____
ROOT
ATOM      1  C   UNL     1       2.356  -4.704   3.857  0.00  0.00    +0.171 A 
ATOM      2  N   UNL     1       2.823  -3.793   4.685  0.00  0.00    -0.208 NA
ATOM      3  C   UNL     1       3.485  -4.141   5.796  0.00  0.00    +0.131 A 
ATOM      4  C   UNL     1       3.684  -5.479   6.087  0.00  0.00    +0.065 A 
ATOM      5  C   UNL     1       3.185  -6.442   5.202  0.00  0.00    +0.258 A 
ATOM      6  O   UNL     1       3.343  -7.632   5.426  0.00  0.00    -0.267 OA
ATOM      7  N   UNL     1       2.522  -6.034   4.100  0.00  0.00    -0.302 N 
ATOM      8  C   UNL     1       4.420  -5.924   7.323  0.00  0.00    +0.070 C 
ATOM      9  C   UNL     1       4.432  -4.795   8.354  0.00  0.00    +0.087 C 
ATOM     10  C   UNL     1       4.943  -3.519   7.665  0.00  0.00    +0.083 C 
ATOM     11  N   UNL     1       3.959  -3.150   6.639  0.00  0.00    -0.325 N 
ATOM     12  C   UNL     1       5.091  -2.414   8.707  0.00  0.00    +0.029 C 
ATOM     13  C   UNL     1       6.167  -2.807   9.723  0.00  0.00    -0.027 C 
ATOM     14  C   UNL     1       5.729  -4.067  10.476  0.00  0.00    +0.081 C 
ATOM     15  C   UNL     1       5.367  -5.138   9.490  0.00  0.00    +0.140 C 
ATOM     16  O   UNL     1       5.846  -6.242   9.591  0.00  0.00    -0.297 OA
ATOM     17  C   UNL     1       6.370  -1.663  10.719  0.00  0.00    +0.011 C 
ATOM     18  C   UNL     1       7.482  -3.083   8.991  0.00  0.00    +0.011 C 
ATOM     19  H   UNL     1       3.650  -2.235   6.553  0.00  0.00    +0.148 HD
ATOM     20  H   UNL     1       2.167  -6.688   3.479  0.00  0.00    +0.171 HD
ENDROOT
BRANCH   8  21
ATOM     21  C   UNL     1       3.730  -7.129   7.910  0.00  0.00    -0.039 A 
ATOM     22  C   UNL     1       2.411  -7.042   8.313  0.00  0.00    +0.004 A 
ATOM     23  C   UNL     1       1.778  -8.147   8.851  0.00  0.00    +0.000 A 
ATOM     24  C   UNL     1       2.465  -9.339   8.986  0.00  0.00    +0.000 A 
ATOM     25  C   UNL     1       3.784  -9.426   8.582  0.00  0.00    +0.000 A 
ATOM     26  C   UNL     1       4.415  -8.322   8.040  0.00  0.00    +0.004 A 
ENDBRANCH   8  21
BRANCH   1  27
ATOM     27  S   UNL     1       1.492  -4.192   2.408  0.00  0.00    -0.076 S 
BRANCH  27  28
ATOM     28  C   UNL     1       1.516  -2.381   2.500  0.00  0.00    +0.197 C 
BRANCH  28  29
ATOM     29  C   UNL     1       0.801  -1.808   1.304  0.00  0.00    +0.317 C 
ATOM     30  O   UNL     1       0.324  -2.546   0.475  0.00  0.00    -0.250 OA
BRANCH  29  31
ATOM     31  O   UNL     1       0.693  -0.477   1.160  0.00  0.00    -0.464 OA
BRANCH  31  33
ATOM     32  C   UNL     1      -0.019   1.526   0.010  0.00  0.00    +0.048 C 
ATOM     33  C   UNL     1       0.002  -0.004   0.002  0.00  0.00    +0.229 C 
ENDBRANCH  31  33
ENDBRANCH  29  31
ENDBRANCH  28  29
ENDBRANCH  27  28
ENDBRANCH   1  27
TORSDOF 6
