REMARK  Name = ZINC10066291
REMARK  10 active torsions:
REMARK  status: ('A' for Active; 'I' for Inactive)
REMARK    1  A    between atoms: C_1  and  N_53
REMARK    2  A    between atoms: C_2  and  N_53
REMARK    3  A    between atoms: C_3  and  C_4
REMARK    4  A    between atoms: C_3  and  N_53
REMARK    5  A    between atoms: C_4  and  N_5
REMARK    6  A    between atoms: C_9  and  O_17
REMARK    7  A    between atoms: C_12  and  O_15
REMARK    8  A    between atoms: O_15  and  C_16
REMARK    9  A    between atoms: O_17  and  C_18
REMARK   10  A    between atoms: C_19  and  C_21
REMARK                            x       y       z     vdW  Elec       q    Type
REMARK                         _______ _______ _______ _____ _____    ______ ____
ROOT
ATOM      1  N   UNL     1      -0.709   1.566   1.203  0.00  0.00    -0.248 N 
ATOM      2  C   UNL     1      -0.289   2.730   1.826  0.00  0.00    +0.169 A 
ATOM      3  N   UNL     1       0.689   3.537   1.489  0.00  0.00    -0.221 NA
ATOM      4  C   UNL     1       0.987   4.651   2.195  0.00  0.00    +0.125 A 
ATOM      5  C   UNL     1       2.008   5.602   1.938  0.00  0.00    +0.147 A 
ATOM      6  C   UNL     1       2.182   6.686   2.765  0.00  0.00    +0.051 A 
ATOM      7  C   UNL     1       1.372   6.888   3.874  0.00  0.00    +0.050 A 
ATOM      8  C   UNL     1       0.365   5.977   4.155  0.00  0.00    +0.136 A 
ATOM      9  C   UNL     1       0.184   4.889   3.330  0.00  0.00    +0.086 A 
ATOM     10  S   UNL     1      -0.936   3.510   3.298  0.00  0.00    -0.048 S 
ATOM     11  C   UNL     1      -1.741   0.865   1.711  0.00  0.00    +0.260 C 
ATOM     12  O   UNL     1      -2.358   1.296   2.667  0.00  0.00    -0.269 OA
ENDROOT
BRANCH  11  13
ATOM     13  C   UNL     1      -2.121  -0.420   1.112  0.00  0.00    +0.094 A 
ATOM     14  C   UNL     1      -3.183  -1.216   1.413  0.00  0.00    +0.068 A 
ATOM     15  C   UNL     1      -3.378  -2.421   0.713  0.00  0.00    +0.008 A 
ATOM     16  C   UNL     1      -4.416  -3.374   0.876  0.00  0.00    +0.010 A 
ATOM     17  C   UNL     1      -4.453  -4.498   0.116  0.00  0.00    +0.001 A 
ATOM     18  C   UNL     1      -3.484  -4.760  -0.846  0.00  0.00    +0.001 A 
ATOM     19  C   UNL     1      -2.456  -3.859  -1.037  0.00  0.00    +0.016 A 
ATOM     20  C   UNL     1      -2.405  -2.713  -0.273  0.00  0.00    +0.021 A 
ATOM     21  S   UNL     1      -1.299  -1.328  -0.186  0.00  0.00    -0.082 S 
ATOM     22 CL   UNL     1      -4.300  -0.742   2.655  0.00  0.00    -0.082 Cl
ENDBRANCH  11  13
BRANCH   8  23
ATOM     23  O   UNL     1      -0.439   6.158   5.237  0.00  0.00    -0.494 OA
ATOM     24  C   UNL     1      -0.191   7.310   6.045  0.00  0.00    +0.277 C 
ENDBRANCH   8  23
BRANCH   5  25
ATOM     25  O   UNL     1       2.823   5.440   0.862  0.00  0.00    -0.493 OA
ATOM     26  C   UNL     1       3.832   6.432   0.656  0.00  0.00    +0.277 C 
ENDBRANCH   5  25
BRANCH   1  27
ATOM     27  C   UNL     1      -0.031   1.098  -0.009  0.00  0.00    +0.097 C 
BRANCH  27  28
ATOM     28  C   UNL     1      -0.826   1.537  -1.240  0.00  0.00    -0.060 C 
BRANCH  28  31
ATOM     29  C   UNL     1      -0.161  -0.399  -2.533  0.00  0.00    -0.097 C 
ATOM     30  C   UNL     1      -0.743   1.666  -3.656  0.00  0.00    -0.097 C 
ATOM     31  N   UNL     1      -0.118   1.077  -2.453  0.00  0.00    +0.377 N 
ATOM     32  H   UNL     1       0.861   1.379  -2.403  0.00  0.00    -0.083 HD
ENDBRANCH  28  31
ENDBRANCH  27  28
ENDBRANCH   1  27
TORSDOF 6
