REMARK  Name = ZINC29974996
REMARK  6 active torsions:
REMARK  status: ('A' for Active; 'I' for Inactive)
REMARK    1  A    between atoms: C_5  and  C_7
REMARK    2  A    between atoms: C_7  and  C_9
REMARK    3  A    between atoms: C_7  and  N_24
REMARK    4  A    between atoms: C_9  and  C_10
REMARK    5  A    between atoms: N_12  and  C_13
REMARK    6  A    between atoms: C_13  and  C_14
REMARK                            x       y       z     vdW  Elec       q    Type
REMARK                         _______ _______ _______ _____ _____    ______ ____
ROOT
ATOM      1  C   UNL     1       2.755   4.364   1.437  0.00  0.00    +0.123 C 
ENDROOT
BRANCH   1   2
ATOM      2  C   UNL     1       3.994   5.222   1.457  0.00  0.00    +0.215 C 
ATOM      3  O   UNL     1       4.578   5.467   0.423  0.00  0.00    -0.276 OA
ATOM      4  N   UNL     1       4.452   5.717   2.623  0.00  0.00    -0.315 N 
ATOM      5  H   UNL     1       3.922   5.495   3.562  0.00  0.00    +0.149 HD
BRANCH   4   6
ATOM      6  C   UNL     1       5.657   6.551   2.642  0.00  0.00    +0.111 C 
BRANCH   6   7
ATOM      7  C   UNL     1       5.958   6.979   4.080  0.00  0.00    -0.013 C 
ATOM      8  C   UNL     1       4.775   7.778   4.633  0.00  0.00    +0.012 C 
ATOM      9  C   UNL     1       5.077   8.206   6.070  0.00  0.00    -0.010 C 
ATOM     10  C   UNL     1       6.334   9.077   6.090  0.00  0.00    +0.007 C 
ATOM     11  C   UNL     1       7.516   8.278   5.538  0.00  0.00    -0.010 C 
ATOM     12  C   UNL     1       7.215   7.850   4.100  0.00  0.00    +0.012 C 
ATOM     13  C   UNL     1       7.742   7.037   6.403  0.00  0.00    +0.007 C 
ATOM     14  C   UNL     1       6.485   6.166   6.383  0.00  0.00    -0.010 C 
ATOM     15  C   UNL     1       5.302   6.965   6.936  0.00  0.00    +0.007 C 
ATOM     16  C   UNL     1       6.183   5.738   4.945  0.00  0.00    +0.012 C 
ENDBRANCH   6   7
ENDBRANCH   4   6
ENDBRANCH   1   2
BRANCH   1  17
ATOM     17  C   UNL     1       2.454   3.936  -0.000  0.00  0.00    +0.116 C 
BRANCH  17  22
ATOM     18  C   UNL     1      -0.614   2.032   1.104  0.00  0.00    +0.000 A 
ATOM     19  C   UNL     1      -1.241   1.792  -0.105  0.00  0.00    +0.003 A 
ATOM     20  C   UNL     1      -0.678   2.252  -1.280  0.00  0.00    +0.039 A 
ATOM     21  C   UNL     1       0.520   2.946  -1.247  0.00  0.00    +0.128 A 
ATOM     22  C   UNL     1       1.150   3.182  -0.037  0.00  0.00    +0.008 A 
ATOM     23  C   UNL     1       0.582   2.724   1.137  0.00  0.00    +0.008 A 
ATOM     24  F   UNL     1       1.073   3.393  -2.396  0.00  0.00    -0.205 F 
ENDBRANCH  17  22
BRANCH  17  25
ATOM     25  N   UNL     1       3.531   3.071  -0.488  0.00  0.00    -0.292 N 
ATOM     26  C   UNL     1       3.767   1.886   0.108  0.00  0.00    +0.298 C 
ATOM     27  O   UNL     1       3.030   1.492   0.991  0.00  0.00    -0.253 OA
ATOM     28  N   UNL     1       4.821   1.138  -0.273  0.00  0.00    -0.313 N 
ATOM     29  H   UNL     1       4.148   3.390  -1.342  0.00  0.00    +0.151 HD
ATOM     30  H   UNL     1       5.014   0.170   0.213  0.00  0.00    +0.146 HD
ATOM     31  H   UNL     1       5.489   1.494  -1.072  0.00  0.00    +0.146 HD
ENDBRANCH  17  25
ENDBRANCH   1  17
TORSDOF 6
