REMARK  Name = ZINC39897931
REMARK  6 active torsions:
REMARK  status: ('A' for Active; 'I' for Inactive)
REMARK    1  A    between atoms: C_6  and  C_7
REMARK    2  A    between atoms: C_10  and  C_21
REMARK    3  A    between atoms: N_17  and  C_18
REMARK    4  A    between atoms: C_18  and  C_19
REMARK    5  A    between atoms: C_19  and  O_20
REMARK    6  A    between atoms: C_26  and  O_27
REMARK                            x       y       z     vdW  Elec       q    Type
REMARK                         _______ _______ _______ _____ _____    ______ ____
ROOT
ATOM      1  C   UNL     1      -1.319  -0.692  -0.150  0.00  0.00    +0.141 C 
ATOM      2  C   UNL     1      -1.556  -1.096   1.279  0.00  0.00    +0.035 A 
ATOM      3  C   UNL     1      -1.785  -0.688   2.597  0.00  0.00    +0.102 A 
ATOM      4  N   UNL     1      -1.895  -1.776   3.334  0.00  0.00    -0.173 NA
ATOM      5  N   UNL     1      -1.758  -2.830   2.611  0.00  0.00    -0.272 N 
ATOM      6  H   UNL     1      -1.802  -3.741   2.941  0.00  0.00    +0.189 HD
ATOM      7  C   UNL     1      -1.543  -2.477   1.309  0.00  0.00    +0.126 A 
ATOM      8  C   UNL     1      -1.306  -2.971  -0.052  0.00  0.00    +0.266 C 
ATOM      9  O   UNL     1      -1.237  -4.145  -0.362  0.00  0.00    -0.268 OA
ATOM     10  N   UNL     1      -1.174  -1.941  -0.909  0.00  0.00    -0.283 N 
ENDROOT
BRANCH   1  16
ATOM     11  C   UNL     1      -0.132   1.466  -0.593  0.00  0.00    +0.007 A 
ATOM     12  C   UNL     1       1.024   2.219  -0.690  0.00  0.00    +0.022 A 
ATOM     13  C   UNL     1       2.253   1.634  -0.448  0.00  0.00    +0.059 A 
ATOM     14  C   UNL     1       2.326   0.293  -0.110  0.00  0.00    +0.060 A 
ATOM     15  C   UNL     1       1.169  -0.459  -0.014  0.00  0.00    +0.027 A 
ATOM     16  C   UNL     1      -0.059   0.128  -0.256  0.00  0.00    -0.021 A 
ATOM     17 CL   UNL     1       3.868  -0.444   0.193  0.00  0.00    -0.082 Cl
ATOM     18 CL   UNL     1       3.704   2.579  -0.570  0.00  0.00    -0.082 Cl
ENDBRANCH   1  16
BRANCH   3  19
ATOM     19  C   UNL     1      -1.885   0.713   3.079  0.00  0.00    +0.045 A 
ATOM     20  C   UNL     1      -1.877   1.767   2.169  0.00  0.00    +0.033 A 
ATOM     21  C   UNL     1      -1.970   3.069   2.622  0.00  0.00    +0.042 A 
ATOM     22  C   UNL     1      -2.071   3.329   3.978  0.00  0.00    +0.023 A 
ATOM     23  C   UNL     1      -2.079   2.289   4.889  0.00  0.00    +0.047 A 
ATOM     24  C   UNL     1      -1.993   0.978   4.447  0.00  0.00    +0.126 A 
ATOM     25 CL   UNL     1      -1.960   4.383   1.488  0.00  0.00    -0.084 Cl
BRANCH  24  26
ATOM     26  O   UNL     1      -2.006  -0.045   5.341  0.00  0.00    -0.506 OA
ATOM     27  H   UNL     1      -1.130  -0.299   5.661  0.00  0.00    +0.292 HD
ENDBRANCH  24  26
ENDBRANCH   3  19
BRANCH  10  28
ATOM     28  C   UNL     1      -0.930  -2.047  -2.349  0.00  0.00    +0.137 C 
BRANCH  28  29
ATOM     29  C   UNL     1       0.571  -2.204  -2.602  0.00  0.00    +0.175 C 
BRANCH  29  30
ATOM     30  O   UNL     1       1.018  -3.447  -2.058  0.00  0.00    -0.393 OA
ATOM     31  H   UNL     1       1.963  -3.613  -2.182  0.00  0.00    +0.209 HD
ENDBRANCH  29  30
ENDBRANCH  28  29
ENDBRANCH  10  28
TORSDOF 6
