REMARK  Name = ZINC25452046
REMARK  6 active torsions:
REMARK  status: ('A' for Active; 'I' for Inactive)
REMARK    1  A    between atoms: C_3  and  N_12
REMARK    2  A    between atoms: C_6  and  C_7
REMARK    3  A    between atoms: C_7  and  S_8
REMARK    4  A    between atoms: S_8  and  N_11
REMARK    5  A    between atoms: N_12  and  S_13
REMARK    6  A    between atoms: S_13  and  C_16
REMARK                            x       y       z     vdW  Elec       q    Type
REMARK                         _______ _______ _______ _____ _____    ______ ____
ROOT
ATOM      1  N   UNL     1      -0.006   1.652   0.004  0.00  0.00    -0.216 N 
ATOM      2  H   UNL     1       0.429   2.186  -0.853  0.00  0.00    +0.174 HD
ENDROOT
BRANCH   1   5
ATOM      3  C   UNL     1      -0.656   4.211   2.560  0.00  0.00    +0.007 A 
ATOM      4  C   UNL     1      -0.033   3.506   1.548  0.00  0.00    +0.025 A 
ATOM      5  C   UNL     1      -0.633   2.367   1.027  0.00  0.00    +0.048 A 
ATOM      6  C   UNL     1      -1.861   1.944   1.521  0.00  0.00    +0.025 A 
ATOM      7  C   UNL     1      -2.475   2.651   2.536  0.00  0.00    +0.007 A 
ATOM      8  C   UNL     1      -1.875   3.784   3.053  0.00  0.00    -0.025 A 
BRANCH   8   9
ATOM      9  C   UNL     1      -2.551   4.556   4.157  0.00  0.00    +0.219 C 
BRANCH   9  10
ATOM     10  S   UNL     1      -3.630   5.824   3.435  0.00  0.00    +0.031 S 
ATOM     11  O   UNL     1      -2.849   6.820   2.789  0.00  0.00    -0.158 OA
ATOM     12  O   UNL     1      -4.723   5.213   2.765  0.00  0.00    -0.158 OA
BRANCH  10  13
ATOM     13  N   UNL     1      -4.308   6.595   4.734  0.00  0.00    -0.208 NA
ATOM     14  H   UNL     1      -4.983   7.388   4.379  0.00  0.00    +0.144 HD
ATOM     15  H   UNL     1      -3.514   7.040   5.353  0.00  0.00    +0.144 HD
ENDBRANCH  10  13
ENDBRANCH   9  10
ENDBRANCH   8   9
ENDBRANCH   1   5
BRANCH   1  16
ATOM     16  S   UNL     1       0.081  -0.000   0.082  0.00  0.00    +0.072 S 
ATOM     17  O   UNL     1      -1.238  -0.465   0.337  0.00  0.00    -0.150 OA
ATOM     18  O   UNL     1       0.831  -0.421  -1.049  0.00  0.00    -0.150 OA
BRANCH  16  19
ATOM     19  C   UNL     1       1.041  -0.405   1.502  0.00  0.00    +0.112 A 
ATOM     20  C   UNL     1       2.420  -0.435   1.416  0.00  0.00    +0.032 A 
ATOM     21  C   UNL     1       3.181  -0.748   2.528  0.00  0.00    +0.051 A 
ATOM     22  C   UNL     1       2.554  -1.040   3.728  0.00  0.00    +0.162 A 
ATOM     23  C   UNL     1       1.170  -1.016   3.813  0.00  0.00    +0.164 A 
ATOM     24  C   UNL     1       0.411  -0.698   2.699  0.00  0.00    +0.078 A 
ATOM     25  O   UNL     1       0.562  -1.305   5.000  0.00  0.00    -0.488 OA
ATOM     26  C   UNL     1       0.670  -2.659   5.444  0.00  0.00    +0.232 C 
ATOM     27  C   UNL     1       1.978  -2.881   6.187  0.00  0.00    +0.082 C 
ATOM     28  C   UNL     1       3.192  -2.705   5.288  0.00  0.00    +0.232 C 
ATOM     29  O   UNL     1       3.293  -1.354   4.832  0.00  0.00    -0.488 OA
ENDBRANCH  16  19
ENDBRANCH   1  16
TORSDOF 6
