REMARK  Name = ZINC05792287
REMARK  5 active torsions:
REMARK  status: ('A' for Active; 'I' for Inactive)
REMARK    1  A    between atoms: C_1  and  C_2
REMARK    2  A    between atoms: C_2  and  C_32
REMARK    3  A    between atoms: C_6  and  C_21
REMARK    4  A    between atoms: C_24  and  O_28
REMARK    5  A    between atoms: C_25  and  O_27
REMARK                            x       y       z     vdW  Elec       q    Type
REMARK                         _______ _______ _______ _____ _____    ______ ____
ROOT
ATOM      1  C   UNL     1      -7.218   3.678  -2.982  0.00  0.00    +0.011 C 
ATOM      2  C   UNL     1      -8.047   3.891  -1.714  0.00  0.00    -0.023 C 
ATOM      3  C   UNL     1      -7.680   2.828  -0.675  0.00  0.00    +0.058 C 
ATOM      4  C   UNL     1      -6.226   2.967  -0.305  0.00  0.00    +0.020 C 
ATOM      5  C   UNL     1      -5.609   4.169  -0.328  0.00  0.00    +0.041 C 
ATOM      6  C   UNL     1      -4.161   4.288   0.073  0.00  0.00    +0.173 C 
ATOM      7  N   UNL     1      -3.496   2.992   0.057  0.00  0.00    -0.243 NA
ATOM      8  C   UNL     1      -4.146   1.873   0.052  0.00  0.00    +0.188 C 
ATOM      9  N   UNL     1      -5.523   1.851   0.065  0.00  0.00    -0.290 N 
ATOM     10  N   UNL     1      -3.449   0.684   0.039  0.00  0.00    -0.241 N 
ATOM     11  C   UNL     1      -2.068   0.694   0.025  0.00  0.00    +0.295 A 
ATOM     12  N   UNL     1      -1.326   1.770   0.030  0.00  0.00    -0.195 NA
ATOM     13  C   UNL     1      -0.017   1.399   0.010  0.00  0.00    +0.111 A 
ATOM     14  C   UNL     1       1.186   2.106   0.002  0.00  0.00    +0.031 A 
ATOM     15  C   UNL     1       2.381   1.422  -0.013  0.00  0.00    +0.002 A 
ATOM     16  C   UNL     1       2.396   0.035  -0.020  0.00  0.00    +0.004 A 
ATOM     17  C   UNL     1       1.213  -0.677  -0.013  0.00  0.00    +0.048 A 
ATOM     18  C   UNL     1       0.002  -0.004   0.002  0.00  0.00    +0.157 A 
ATOM     19  O   UNL     1      -1.290  -0.403   0.012  0.00  0.00    -0.424 OA
ATOM     20  C   UNL     1      -6.298   5.329  -0.719  0.00  0.00    +0.164 C 
ATOM     21  O   UNL     1      -5.715   6.395  -0.729  0.00  0.00    -0.292 OA
ATOM     22  C   UNL     1      -7.745   5.273  -1.127  0.00  0.00    +0.086 C 
ATOM     23  C   UNL     1      -9.536   3.786  -2.051  0.00  0.00    +0.011 C 
ATOM     24  H   UNL     1      -6.058   0.940   0.370  0.00  0.00    +0.154 HD
ATOM     25  H   UNL     1      -3.992  -0.272   0.039  0.00  0.00    +0.159 HD
ENDROOT
BRANCH   6  26
ATOM     26  C   UNL     1      -4.080   4.859   1.465  0.00  0.00    -0.015 A 
ATOM     27  C   UNL     1      -4.287   4.040   2.560  0.00  0.00    +0.010 A 
ATOM     28  C   UNL     1      -4.214   4.560   3.839  0.00  0.00    +0.049 A 
ATOM     29  C   UNL     1      -3.934   5.904   4.026  0.00  0.00    +0.158 A 
ATOM     30  C   UNL     1      -3.726   6.728   2.924  0.00  0.00    +0.159 A 
ATOM     31  C   UNL     1      -3.795   6.200   1.645  0.00  0.00    +0.055 A 
BRANCH  30  32
ATOM     32  O   UNL     1      -3.450   8.048   3.103  0.00  0.00    -0.503 OA
ATOM     33  H   UNL     1      -3.287   8.698   2.231  0.00  0.00    +0.292 HD
ENDBRANCH  30  32
BRANCH  29  34
ATOM     34  O   UNL     1      -3.861   6.416   5.284  0.00  0.00    -0.503 OA
ATOM     35  H   UNL     1      -3.639   7.484   5.431  0.00  0.00    +0.292 HD
ENDBRANCH  29  34
ENDBRANCH   6  26
TORSDOF 3
