REMARK  Name = ZINC02793973
REMARK  11 active torsions:
REMARK  status: ('A' for Active; 'I' for Inactive)
REMARK    1  A    between atoms: C_1  and  C_2
REMARK    2  A    between atoms: C_2  and  C_3
REMARK    3  A    between atoms: C_2  and  C_4
REMARK    4  A    between atoms: C_7  and  C_10
REMARK    5  A    between atoms: C_13  and  C_35
REMARK    6  A    between atoms: C_18  and  C_20
REMARK    7  A    between atoms: N_22  and  N_23
REMARK    8  A    between atoms: N_23  and  C_24
REMARK    9  A    between atoms: C_24  and  N_26
REMARK   10  A    between atoms: N_26  and  C_27
REMARK   11  A    between atoms: C_27  and  C_28
REMARK                            x       y       z     vdW  Elec       q    Type
REMARK                         _______ _______ _______ _____ _____    ______ ____
ROOT
ATOM      1  C   UNL     1       2.394   0.366 -10.284  0.00  0.00    +0.104 C 
ATOM      2  C   UNL     1       1.167   0.159  -9.390  0.00  0.00    +0.063 C 
ATOM      3  C   UNL     1       1.511   0.517  -7.940  0.00  0.00    +0.215 C 
ATOM      4  N   UNL     1       2.749  -0.171  -7.562  0.00  0.00    -0.238 N 
ATOM      5  C   UNL     1       3.644  -0.670  -8.466  0.00  0.00    +0.119 A 
ATOM      6  C   UNL     1       4.657  -1.238  -7.782  0.00  0.00    +0.078 A 
ATOM      7  C   UNL     1       4.382  -1.084  -6.404  0.00  0.00    +0.150 A 
ATOM      8  N   UNL     1       3.231  -0.446  -6.284  0.00  0.00    -0.164 NA
ATOM      9  N   UNL     1       3.456  -0.561  -9.846  0.00  0.00    -0.322 N 
ATOM     10  H   UNL     1       3.992  -1.063 -10.479  0.00  0.00    +0.148 HD
ENDROOT
BRANCH   1  14
ATOM     11  C   UNL     1       1.363  -0.452 -14.348  0.00  0.00    -0.045 A 
ATOM     12  C   UNL     1       1.424   0.855 -13.900  0.00  0.00    +0.004 A 
ATOM     13  C   UNL     1       1.757   1.119 -12.585  0.00  0.00    +0.006 A 
ATOM     14  C   UNL     1       2.030   0.078 -11.718  0.00  0.00    -0.027 A 
ATOM     15  C   UNL     1       1.975  -1.228 -12.168  0.00  0.00    +0.006 A 
ATOM     16  C   UNL     1       1.637  -1.493 -13.482  0.00  0.00    +0.004 A 
BRANCH  11  18
ATOM     17  C   UNL     1       2.148  -1.492 -16.458  0.00  0.00    +0.012 C 
ATOM     18  C   UNL     1       1.000  -0.740 -15.782  0.00  0.00    +0.013 C 
ATOM     19  C   UNL     1      -0.267  -1.598 -15.824  0.00  0.00    +0.012 C 
ENDBRANCH  11  18
ENDBRANCH   1  14
BRANCH   7  20
ATOM     20  C   UNL     1       5.231  -1.558  -5.293  0.00  0.00    +0.280 C 
ATOM     21  O   UNL     1       6.272  -2.141  -5.528  0.00  0.00    -0.267 OA
ATOM     22  N   UNL     1       4.852  -1.346  -4.017  0.00  0.00    -0.230 N 
ATOM     23  H   UNL     1       4.021  -0.881  -3.829  0.00  0.00    +0.173 HD
BRANCH  22  24
ATOM     24  N   UNL     1       5.657  -1.796  -2.962  0.00  0.00    -0.246 N 
ATOM     25  H   UNL     1       6.487  -2.261  -3.150  0.00  0.00    +0.172 HD
BRANCH  24  26
ATOM     26  C   UNL     1       5.277  -1.584  -1.687  0.00  0.00    +0.147 C 
ATOM     27  S   UNL     1       6.261  -2.134  -0.398  0.00  0.00    -0.017 S 
BRANCH  26  28
ATOM     28  N   UNL     1       4.124  -0.938  -1.425  0.00  0.00    -0.321 N 
ATOM     29  H   UNL     1       3.566  -0.626  -2.155  0.00  0.00    +0.148 HD
BRANCH  28  30
ATOM     30  C   UNL     1       3.711  -0.707  -0.039  0.00  0.00    +0.138 C 
BRANCH  30  31
ATOM     31  C   UNL     1       2.396   0.029  -0.022  0.00  0.00    -0.030 A 
ATOM     32  C   UNL     1       1.208  -0.679  -0.014  0.00  0.00    +0.005 A 
ATOM     33  C   UNL     1       0.002  -0.004   0.002  0.00  0.00    +0.000 A 
ATOM     34  C   UNL     1      -0.017   1.378   0.010  0.00  0.00    +0.000 A 
ATOM     35  C   UNL     1       1.171   2.086   0.002  0.00  0.00    +0.000 A 
ATOM     36  C   UNL     1       2.377   1.411  -0.014  0.00  0.00    +0.005 A 
ENDBRANCH  30  31
ENDBRANCH  28  30
ENDBRANCH  26  28
ENDBRANCH  24  26
ENDBRANCH  22  24
ENDBRANCH   7  20
BRANCH   3  37
ATOM     37  C   UNL     1       0.374   0.070  -7.018  0.00  0.00    +0.412 C 
ATOM     38  F   UNL     1       0.697   0.386  -5.694  0.00  0.00    -0.168 F 
ATOM     39  F   UNL     1      -0.806   0.728  -7.380  0.00  0.00    -0.168 F 
ATOM     40  F   UNL     1       0.193  -1.312  -7.138  0.00  0.00    -0.168 F 
ENDBRANCH   3  37
TORSDOF 9
