REMARK  Name = ZINC62473704
REMARK  5 active torsions:
REMARK  status: ('A' for Active; 'I' for Inactive)
REMARK    1  A    between atoms: C_1  and  C_2
REMARK    2  A    between atoms: C_2  and  C_3
REMARK    3  A    between atoms: C_2  and  N_10
REMARK    4  A    between atoms: C_16  and  C_19
REMARK    5  A    between atoms: N_21  and  C_22
REMARK                            x       y       z     vdW  Elec       q    Type
REMARK                         _______ _______ _______ _____ _____    ______ ____
ROOT
ATOM      1  N   UNL     1       2.859  -0.410   0.036  0.00  0.00    -0.296 N 
ATOM      2  C   UNL     1       2.284  -0.782  -1.124  0.00  0.00    +0.302 C 
ATOM      3  O   UNL     1       1.119  -0.513  -1.339  0.00  0.00    -0.253 OA
ATOM      4  N   UNL     1       3.002  -1.455  -2.046  0.00  0.00    -0.286 N 
ATOM      5  C   UNL     1       2.428  -1.761  -3.364  0.00  0.00    +0.110 C 
ATOM      6  C   UNL     1       3.380  -1.246  -4.448  0.00  0.00    +0.032 C 
ATOM      7  C   UNL     1       4.774  -1.833  -4.218  0.00  0.00    +0.078 C 
ATOM      8  C   UNL     1       5.303  -1.378  -2.856  0.00  0.00    +0.032 C 
ATOM      9  C   UNL     1       4.375  -1.889  -1.755  0.00  0.00    +0.110 C 
ATOM     10  H   UNL     1       3.808  -0.557   0.177  0.00  0.00    +0.151 HD
ENDROOT
BRANCH   7  11
ATOM     11  C   UNL     1       5.705  -1.356  -5.302  0.00  0.00    +0.216 C 
ATOM     12  O   UNL     1       5.294  -0.619  -6.173  0.00  0.00    -0.276 OA
ATOM     13  N   UNL     1       6.995  -1.748  -5.304  0.00  0.00    -0.312 N 
ATOM     14  H   UNL     1       7.323  -2.338  -4.608  0.00  0.00    +0.149 HD
BRANCH  13  15
ATOM     15  C   UNL     1       7.900  -1.284  -6.359  0.00  0.00    +0.073 C 
ATOM     16  C   UNL     1       7.772  -2.199  -7.579  0.00  0.00    +0.022 C 
ATOM     17  C   UNL     1       8.718  -1.714  -8.680  0.00  0.00    +0.002 C 
ATOM     18  C   UNL     1      10.158  -1.747  -8.166  0.00  0.00    +0.000 C 
ATOM     19  C   UNL     1      10.286  -0.832  -6.946  0.00  0.00    +0.002 C 
ATOM     20  C   UNL     1       9.340  -1.317  -5.845  0.00  0.00    +0.022 C 
ENDBRANCH  13  15
ENDBRANCH   7  11
BRANCH   1  22
ATOM     21  C   UNL     1       1.385  -0.866   1.934  0.00  0.00    +0.028 C 
ATOM     22  C   UNL     1       2.052   0.219   1.085  0.00  0.00    +0.075 C 
BRANCH  22  23
ATOM     23  C   UNL     1       2.952   1.080   1.974  0.00  0.00    +0.012 C 
ATOM     24  C   UNL     1       3.432   2.331   1.203  0.00  0.00    +0.009 C 
ATOM     25  C   UNL     1       2.867   3.536   2.015  0.00  0.00    -0.010 C 
ATOM     26  C   UNL     1       1.328   3.487   1.768  0.00  0.00    +0.004 C 
ATOM     27  C   UNL     1       0.848   2.236   2.539  0.00  0.00    +0.004 C 
ATOM     28  C   UNL     1       2.142   1.647   3.180  0.00  0.00    -0.006 C 
ATOM     29  C   UNL     1       2.944   2.963   3.475  0.00  0.00    +0.007 C 
ENDBRANCH  22  23
ENDBRANCH   1  22
TORSDOF 4
