REMARK  Name = ZINC25449354
REMARK  7 active torsions:
REMARK  status: ('A' for Active; 'I' for Inactive)
REMARK    1  A    between atoms: C_3  and  O_31
REMARK    2  A    between atoms: C_6  and  C_7
REMARK    3  A    between atoms: C_7  and  C_9
REMARK    4  A    between atoms: N_12  and  C_15
REMARK    5  A    between atoms: C_15  and  C_16
REMARK    6  A    between atoms: N_18  and  C_19
REMARK    7  A    between atoms: C_24  and  N_25
REMARK                            x       y       z     vdW  Elec       q    Type
REMARK                         _______ _______ _______ _____ _____    ______ ____
ROOT
ATOM      1  C   UNL     1      -3.805   1.796   0.029  0.00  0.00    +0.057 C 
ATOM      2  C   UNL     1      -4.188   2.130   1.473  0.00  0.00    -0.007 C 
ATOM      3  C   UNL     1      -5.552   2.825   1.487  0.00  0.00    -0.077 C 
ATOM      4  N   UNL     1      -6.559   1.942   0.885  0.00  0.00    +0.385 N 
ATOM      5  C   UNL     1      -6.237   1.647  -0.517  0.00  0.00    -0.077 C 
ATOM      6  C   UNL     1      -4.895   0.916  -0.591  0.00  0.00    -0.007 C 
ATOM      7  H   UNL     1      -6.547   0.992   1.439  0.00  0.00    -0.081 HD
ENDROOT
BRANCH   1   8
ATOM      8  C   UNL     1      -2.492   1.057   0.014  0.00  0.00    +0.166 C 
ATOM      9  O   UNL     1      -2.479  -0.156  -0.006  0.00  0.00    -0.292 OA
BRANCH   8  15
ATOM     10  C   UNL     1      -0.007   1.121   0.009  0.00  0.00    +0.015 A 
ATOM     11  C   UNL     1       1.170   1.825   0.012  0.00  0.00    +0.046 A 
ATOM     12  C   UNL     1       1.152   3.215   0.035  0.00  0.00    +0.117 A 
ATOM     13  C   UNL     1      -0.059   3.899   0.054  0.00  0.00    +0.046 A 
ATOM     14  C   UNL     1      -1.241   3.205   0.052  0.00  0.00    +0.015 A 
ATOM     15  C   UNL     1      -1.228   1.805   0.023  0.00  0.00    +0.018 A 
BRANCH  12  16
ATOM     16  O   UNL     1       2.319   3.906   0.038  0.00  0.00    -0.507 OA
ATOM     17  H   UNL     1       2.307   5.006   0.056  0.00  0.00    +0.292 HD
ENDBRANCH  12  16
ENDBRANCH   8  15
ENDBRANCH   1   8
BRANCH   4  18
ATOM     18  C   UNL     1      -7.905   2.519   1.005  0.00  0.00    +0.019 C 
BRANCH  18  19
ATOM     19  C   UNL     1      -8.297   2.581   2.459  0.00  0.00    +0.201 C 
ATOM     20  O   UNL     1      -7.531   2.183   3.311  0.00  0.00    -0.278 OA
ATOM     21  N   UNL     1      -9.498   3.078   2.813  0.00  0.00    -0.285 N 
ATOM     22  H   UNL     1     -10.162   3.508   2.048  0.00  0.00    +0.155 HD
BRANCH  21  23
ATOM     23  C   UNL     1      -9.901   3.048   4.153  0.00  0.00    +0.060 A 
ATOM     24  C   UNL     1      -8.967   3.221   5.164  0.00  0.00    +0.045 A 
ATOM     25  C   UNL     1      -9.369   3.196   6.487  0.00  0.00    +0.043 A 
ATOM     26  C   UNL     1     -10.700   2.988   6.806  0.00  0.00    +0.022 A 
ATOM     27  C   UNL     1     -11.635   2.809   5.805  0.00  0.00    +0.031 A 
ATOM     28  C   UNL     1     -11.241   2.838   4.475  0.00  0.00    +0.088 A 
ATOM     29 CL   UNL     1      -8.200   3.419   7.751  0.00  0.00    -0.083 Cl
BRANCH  28  30
ATOM     30  N   UNL     1     -12.189   2.656   3.458  0.00  0.00    -0.218 N 
ATOM     31  C   UNL     1     -13.523   2.538   3.608  0.00  0.00    +0.225 A 
ATOM     32  N   UNL     1     -14.052   2.386   2.420  0.00  0.00    -0.222 NA
ATOM     33  C   UNL     1     -13.095   2.393   1.494  0.00  0.00    +0.245 A 
ATOM     34  N   UNL     1     -11.937   2.556   2.080  0.00  0.00    -0.153 NA
ENDBRANCH  28  30
ENDBRANCH  21  23
ENDBRANCH  18  19
ENDBRANCH   4  18
TORSDOF 7
