REMARK  Name = ZINC09282841
REMARK  11 active torsions:
REMARK  status: ('A' for Active; 'I' for Inactive)
REMARK    1  A    between atoms: C_1  and  C_2
REMARK    2  A    between atoms: C_2  and  C_3
REMARK    3  A    between atoms: C_3  and  N_64
REMARK    4  A    between atoms: C_4  and  C_5
REMARK    5  A    between atoms: C_4  and  N_64
REMARK    6  A    between atoms: N_7  and  C_8
REMARK    7  A    between atoms: C_9  and  C_17
REMARK    8  A    between atoms: N_19  and  C_20
REMARK    9  A    between atoms: C_21  and  C_33
REMARK   10  A    between atoms: N_22  and  C_32
REMARK   11  A    between atoms: N_23  and  C_26
REMARK                            x       y       z     vdW  Elec       q    Type
REMARK                         _______ _______ _______ _____ _____    ______ ____
ROOT
ATOM      1  C   UNL     1      -0.668   2.172   4.354  0.00  0.00    +0.084 A 
ATOM      2  C   UNL     1      -0.177   1.583   3.197  0.00  0.00    +0.069 A 
ATOM      3  C   UNL     1      -0.421   2.264   1.940  0.00  0.00    -0.023 A 
ATOM      4  C   UNL     1      -1.119   3.419   2.037  0.00  0.00    -0.004 A 
ATOM      5  S   UNL     1      -1.444   3.607   3.767  0.00  0.00    -0.077 S 
ATOM      6  C   UNL     1      -1.519   4.331   0.917  0.00  0.00    +0.043 C 
ATOM      7  C   UNL     1      -0.701   3.956  -0.327  0.00  0.00    +0.005 C 
ATOM      8  C   UNL     1      -0.757   2.437  -0.515  0.00  0.00    +0.005 C 
ATOM      9  C   UNL     1       0.049   1.746   0.586  0.00  0.00    +0.037 C 
ENDROOT
BRANCH   1  12
ATOM     10  C   UNL     1      -1.110   2.437   6.665  0.00  0.00    +0.201 C 
ATOM     11  O   UNL     1      -1.693   3.473   6.425  0.00  0.00    -0.278 OA
ATOM     12  N   UNL     1      -0.564   1.723   5.661  0.00  0.00    -0.281 N 
ATOM     13  H   UNL     1      -0.098   0.894   5.854  0.00  0.00    +0.155 HD
BRANCH  10  14
ATOM     14  C   UNL     1      -0.997   1.948   8.086  0.00  0.00    +0.015 C 
BRANCH  14  15
ATOM     15  N   UNL     1      -1.674   2.905   8.982  0.00  0.00    +0.385 N 
ATOM     16  H   UNL     1      -1.227   3.826   8.893  0.00  0.00    -0.085 HD
ATOM     17  H   UNL     1      -2.663   2.978   8.716  0.00  0.00    -0.085 HD
BRANCH  15  18
ATOM     18  C   UNL     1      -1.579   2.451  10.382  0.00  0.00    -0.082 C 
BRANCH  18  20
ATOM     19  C   UNL     1      -2.194   2.999  12.741  0.00  0.00    +0.002 C 
ATOM     20  C   UNL     1      -2.288   3.462  11.286  0.00  0.00    -0.022 C 
ENDBRANCH  18  20
ENDBRANCH  15  18
ENDBRANCH  14  15
ENDBRANCH  10  14
ENDBRANCH   1  12
BRANCH   2  21
ATOM     21  C   UNL     1       0.565   0.319   3.244  0.00  0.00    +0.251 C 
ATOM     22  O   UNL     1      -0.030  -0.740   3.153  0.00  0.00    -0.270 OA
ATOM     23  N   UNL     1       1.905   0.328   3.389  0.00  0.00    -0.276 N 
ATOM     24  H   UNL     1       2.386   1.170   3.389  0.00  0.00    +0.155 HD
BRANCH  23  25
ATOM     25  C   UNL     1       2.606  -0.885   3.541  0.00  0.00    +0.121 A 
ATOM     26  C   UNL     1       3.611  -1.333   2.757  0.00  0.00    +0.059 A 
ATOM     27  N   UNL     1       4.027  -2.549   3.233  0.00  0.00    -0.282 N 
ATOM     28  N   UNL     1       3.264  -2.888   4.356  0.00  0.00    -0.216 N 
ATOM     29  C   UNL     1       2.385  -1.891   4.581  0.00  0.00    +0.293 A 
ATOM     30  O   UNL     1       1.562  -1.838   5.477  0.00  0.00    -0.264 OA
ATOM     31  C   UNL     1       5.100  -3.364   2.658  0.00  0.00    +0.171 C 
ATOM     32  C   UNL     1       4.179  -0.616   1.560  0.00  0.00    +0.067 C 
BRANCH  28  33
ATOM     33  C   UNL     1       3.395  -4.055   5.116  0.00  0.00    +0.067 A 
ATOM     34  C   UNL     1       3.458  -5.292   4.487  0.00  0.00    +0.028 A 
ATOM     35  C   UNL     1       3.593  -6.441   5.240  0.00  0.00    +0.002 A 
ATOM     36  C   UNL     1       3.654  -6.363   6.620  0.00  0.00    +0.000 A 
ATOM     37  C   UNL     1       3.586  -5.133   7.249  0.00  0.00    +0.002 A 
ATOM     38  C   UNL     1       3.457  -3.979   6.502  0.00  0.00    +0.028 A 
ENDBRANCH  28  33
ENDBRANCH  23  25
ENDBRANCH   2  21
TORSDOF 8
