REMARK  Name = ZINC36694874
REMARK  8 active torsions:
REMARK  status: ('A' for Active; 'I' for Inactive)
REMARK    1  A    between atoms: C_1  and  C_2
REMARK    2  A    between atoms: C_7  and  C_9
REMARK    3  A    between atoms: C_7  and  C_10
REMARK    4  A    between atoms: N_13  and  C_17
REMARK    5  A    between atoms: C_17  and  C_18
REMARK    6  A    between atoms: N_20  and  C_21
REMARK    7  A    between atoms: C_24  and  C_27
REMARK    8  A    between atoms: C_27  and  C_29
REMARK                            x       y       z     vdW  Elec       q    Type
REMARK                         _______ _______ _______ _____ _____    ______ ____
ROOT
ATOM      1  C   UNL     1      -0.027   1.544  -0.025  0.00  0.00    +0.007 C 
ATOM      2  C   UNL     1       0.002   0.013  -0.029  0.00  0.00    -0.011 C 
ATOM      3  C   UNL     1      -1.433  -0.519   0.005  0.00  0.00    +0.038 C 
ATOM      4  C   UNL     1      -1.417  -2.041  -0.048  0.00  0.00    +0.113 C 
ATOM      5  C   UNL     1      -0.551  -2.659   1.031  0.00  0.00    +0.041 C 
ATOM      6  C   UNL     1       0.804  -2.006   1.238  0.00  0.00    -0.032 C 
ATOM      7  C   UNL     1       0.732  -0.484   1.217  0.00  0.00    +0.009 C 
ATOM      8  C   UNL     1       1.333  -2.432   2.625  0.00  0.00    +0.011 C 
ATOM      9  C   UNL     1       1.809  -2.500   0.194  0.00  0.00    +0.011 C 
ATOM     10  C   UNL     1      -1.044  -2.527  -1.427  0.00  0.00    +0.247 C 
ATOM     11  O   UNL     1      -0.066  -2.242  -2.084  0.00  0.00    -0.273 OA
ATOM     12  N   UNL     1      -2.050  -3.343  -1.813  0.00  0.00    -0.215 N 
ATOM     13  C   UNL     1      -3.054  -3.333  -0.930  0.00  0.00    +0.310 C 
ATOM     14  O   UNL     1      -4.077  -3.976  -1.064  0.00  0.00    -0.252 OA
ATOM     15  N   UNL     1      -2.803  -2.534   0.121  0.00  0.00    -0.285 N 
ATOM     16  H   UNL     1      -3.399  -2.316   0.852  0.00  0.00    +0.151 HD
ENDROOT
BRANCH  12  17
ATOM     17  C   UNL     1      -2.038  -4.136  -3.044  0.00  0.00    +0.214 C 
BRANCH  17  18
ATOM     18  C   UNL     1      -1.428  -5.486  -2.765  0.00  0.00    +0.235 C 
ATOM     19  O   UNL     1      -1.042  -5.758  -1.648  0.00  0.00    -0.274 OA
ATOM     20  N   UNL     1      -1.312  -6.391  -3.757  0.00  0.00    -0.284 N 
ATOM     21  H   UNL     1      -1.680  -6.199  -4.634  0.00  0.00    +0.155 HD
BRANCH  20  22
ATOM     22  C   UNL     1      -0.664  -7.602  -3.524  0.00  0.00    +0.033 A 
ATOM     23  C   UNL     1       0.101  -8.185  -4.530  0.00  0.00    +0.024 A 
ATOM     24  C   UNL     1       0.741  -9.376  -4.305  0.00  0.00    +0.013 A 
ATOM     25  C   UNL     1       0.625 -10.006  -3.059  0.00  0.00    +0.017 A 
ATOM     26  C   UNL     1      -0.145  -9.415  -2.049  0.00  0.00    +0.013 A 
ATOM     27  C   UNL     1      -0.777  -8.222  -2.282  0.00  0.00    +0.024 A 
BRANCH  25  28
ATOM     28  C   UNL     1       1.309 -11.282  -2.813  0.00  0.00    +0.160 C 
ATOM     29  O   UNL     1       2.049 -11.746  -3.655  0.00  0.00    -0.292 OA
ATOM     30  C   UNL     1       1.091 -12.015  -1.514  0.00  0.00    +0.091 C 
ENDBRANCH  25  28
ENDBRANCH  20  22
ENDBRANCH  17  18
ENDBRANCH  12  17
TORSDOF 4
