REMARK  Name = ZINC37276188
REMARK  7 active torsions:
REMARK  status: ('A' for Active; 'I' for Inactive)
REMARK    1  A    between atoms: C_1  and  C_2
REMARK    2  A    between atoms: C_2  and  C_4
REMARK    3  A    between atoms: C_2  and  N_13
REMARK    4  A    between atoms: C_7  and  O_11
REMARK    5  A    between atoms: O_11  and  C_12
REMARK    6  A    between atoms: N_13  and  C_14
REMARK    7  A    between atoms: C_14  and  C_21
REMARK                            x       y       z     vdW  Elec       q    Type
REMARK                         _______ _______ _______ _____ _____    ______ ____
ROOT
ATOM      1  C   UNL     1       0.022   1.031   0.499  0.00  0.00    -0.009 C 
ATOM      2  C   UNL     1       0.050  -0.434   0.061  0.00  0.00    -0.043 C 
ENDROOT
BRANCH   2   3
ATOM      3  C   UNL     1      -1.349  -0.992   0.083  0.00  0.00    -0.060 A 
ATOM      4  C   UNL     1      -2.212  -0.736  -0.967  0.00  0.00    +0.005 A 
ATOM      5  C   UNL     1      -3.495  -1.246  -0.950  0.00  0.00    +0.047 A 
ATOM      6  C   UNL     1      -3.920  -2.016   0.123  0.00  0.00    +0.134 A 
ATOM      7  C   UNL     1      -3.053  -2.273   1.176  0.00  0.00    +0.060 A 
ATOM      8  C   UNL     1      -1.768  -1.765   1.151  0.00  0.00    +0.021 A 
ATOM      9 BR   UNL     1      -3.627  -3.322   2.640  0.00  0.00    -0.047 Br
BRANCH   6  10
ATOM     10  O   UNL     1      -5.183  -2.519   0.143  0.00  0.00    -0.494 OA
ATOM     11  C   UNL     1      -6.020  -2.214  -0.974  0.00  0.00    +0.277 C 
ENDBRANCH   6  10
ENDBRANCH   2   3
BRANCH   2  12
ATOM     12  N   UNL     1       0.593  -0.528  -1.301  0.00  0.00    +0.388 N 
ATOM     13  H   UNL     1       0.483  -1.470  -1.643  0.00  0.00    -0.084 HD
ATOM     14  H   UNL     1       0.096   0.110  -1.906  0.00  0.00    -0.084 HD
BRANCH  12  15
ATOM     15  C   UNL     1       2.019  -0.176  -1.285  0.00  0.00    -0.049 C 
ATOM     16  C   UNL     1       2.645  -0.606  -2.611  0.00  0.00    +0.011 C 
ATOM     17  C   UNL     1       2.556   0.548  -3.648  0.00  0.00    +0.164 C 
ATOM     18  S   UNL     1       2.924   1.982  -2.545  0.00  0.00    -0.032 S 
ATOM     19  O   UNL     1       2.192   3.116  -2.992  0.00  0.00    -0.174 OA
ATOM     20  O   UNL     1       4.329   2.081  -2.359  0.00  0.00    -0.174 OA
ATOM     21  C   UNL     1       2.152   1.333  -1.004  0.00  0.00    +0.153 C 
ATOM     22  C   UNL     1       2.700  -0.948  -0.153  0.00  0.00    -0.008 C 
ENDBRANCH  12  15
ENDBRANCH   2  12
TORSDOF 4
