REMARK  Name = ZINC16696741
REMARK  9 active torsions:
REMARK  status: ('A' for Active; 'I' for Inactive)
REMARK    1  A    between atoms: C_1  and  C_2
REMARK    2  A    between atoms: C_2  and  N_3
REMARK    3  A    between atoms: C_4  and  C_25
REMARK    4  A    between atoms: C_7  and  S_8
REMARK    5  A    between atoms: S_8  and  C_9
REMARK    6  A    between atoms: C_9  and  C_10
REMARK    7  A    between atoms: C_10  and  C_12
REMARK    8  A    between atoms: C_13  and  N_24
REMARK    9  A    between atoms: N_14  and  C_21
REMARK                            x       y       z     vdW  Elec       q    Type
REMARK                         _______ _______ _______ _____ _____    ______ ____
ROOT
ATOM      1  C   UNL     1       0.286   0.932   0.343  0.00  0.00    +0.182 C 
ATOM      2  O   UNL     1       0.243  -0.258   0.106  0.00  0.00    -0.291 OA
ENDROOT
BRANCH   1   3
ATOM      3  C   UNL     1       1.521   1.549   0.635  0.00  0.00    +0.120 A 
ATOM      4  C   UNL     1       2.699   0.792   0.757  0.00  0.00    +0.116 A 
ATOM      5  N   UNL     1       3.872   1.435   1.037  0.00  0.00    -0.278 N 
ATOM      6  C   UNL     1       3.915   2.765   1.206  0.00  0.00    +0.331 A 
ATOM      7  O   UNL     1       4.982   3.289   1.458  0.00  0.00    -0.246 OA
ATOM      8  N   UNL     1       2.822   3.539   1.106  0.00  0.00    -0.274 N 
ATOM      9  H   UNL     1       2.903   4.527   1.240  0.00  0.00    +0.173 HD
ATOM     10  C   UNL     1       1.616   3.002   0.828  0.00  0.00    +0.266 A 
ATOM     11  O   UNL     1       0.628   3.706   0.738  0.00  0.00    -0.267 OA
BRANCH   5  12
ATOM     12  C   UNL     1       5.106   0.655   1.161  0.00  0.00    +0.094 C 
ATOM     13  C   UNL     1       6.346   1.175   0.431  0.00  0.00    +0.027 C 
ATOM     14  C   UNL     1       5.615  -0.065  -0.089  0.00  0.00    +0.027 C 
ENDBRANCH   5  12
BRANCH   4  15
ATOM     15  N   UNL     1       2.673  -0.559   0.596  0.00  0.00    -0.344 N 
ATOM     16  H   UNL     1       1.861  -0.995   0.295  0.00  0.00    +0.144 HD
ATOM     17  H   UNL     1       3.467  -1.085   0.780  0.00  0.00    +0.144 HD
ENDBRANCH   4  15
ENDBRANCH   1   3
BRANCH   1  18
ATOM     18  C   UNL     1      -0.978   1.752   0.319  0.00  0.00    +0.157 C 
BRANCH  18  19
ATOM     19  S   UNL     1      -2.381   0.684  -0.091  0.00  0.00    -0.078 S 
BRANCH  19  24
ATOM     20  N   UNL     1      -5.009   1.623  -0.294  0.00  0.00    -0.302 N 
ATOM     21  C   UNL     1      -5.644   2.834  -0.145  0.00  0.00    +0.165 A 
ATOM     22  N   UNL     1      -4.722   3.717   0.160  0.00  0.00    -0.128 NA
ATOM     23  N   UNL     1      -3.571   3.148   0.215  0.00  0.00    -0.122 NA
ATOM     24  C   UNL     1      -3.687   1.867  -0.050  0.00  0.00    +0.192 A 
BRANCH  21  25
ATOM     25  C   UNL     1      -7.090   3.093  -0.303  0.00  0.00    +0.019 A 
ATOM     26  C   UNL     1      -7.552   4.395  -0.502  0.00  0.00    +0.011 A 
ATOM     27  C   UNL     1      -8.902   4.630  -0.656  0.00  0.00    +0.001 A 
ATOM     28  C   UNL     1      -9.801   3.579  -0.600  0.00  0.00    +0.000 A 
ATOM     29  C   UNL     1      -9.351   2.286  -0.397  0.00  0.00    +0.001 A 
ATOM     30  C   UNL     1      -8.002   2.037  -0.249  0.00  0.00    +0.011 A 
ENDBRANCH  21  25
BRANCH  20  32
ATOM     31  C   UNL     1      -5.977  -0.419   0.642  0.00  0.00    +0.027 C 
ATOM     32  C   UNL     1      -5.622   0.338  -0.640  0.00  0.00    +0.122 C 
ENDBRANCH  20  32
ENDBRANCH  19  24
ENDBRANCH  18  19
ENDBRANCH   1  18
TORSDOF 8
