REMARK  Name = ZINC40844484
REMARK  8 active torsions:
REMARK  status: ('A' for Active; 'I' for Inactive)
REMARK    1  A    between atoms: C_1  and  O_2
REMARK    2  A    between atoms: O_2  and  C_3
REMARK    3  A    between atoms: C_6  and  C_10
REMARK    4  A    between atoms: N_11  and  N_12
REMARK    5  A    between atoms: N_15  and  C_16
REMARK    6  A    between atoms: C_17  and  C_25
REMARK    7  A    between atoms: C_25  and  O_27
REMARK    8  A    between atoms: O_27  and  C_28
REMARK                            x       y       z     vdW  Elec       q    Type
REMARK                         _______ _______ _______ _____ _____    ______ ____
ROOT
ATOM      1  N   UNL     1       3.162  -4.406  -5.520  0.00  0.00    -0.191 N 
ATOM      2  C   UNL     1       3.211  -5.751  -5.592  0.00  0.00    +0.324 C 
ATOM      3  O   UNL     1       3.751  -6.290  -6.539  0.00  0.00    -0.251 OA
ATOM      4  N   UNL     1       2.661  -6.499  -4.615  0.00  0.00    -0.262 N 
ATOM      5  H   UNL     1       3.558  -3.868  -6.223  0.00  0.00    +0.179 HD
ATOM      6  H   UNL     1       2.230  -6.069  -3.860  0.00  0.00    +0.157 HD
ENDROOT
BRANCH   4   7
ATOM      7  C   UNL     1       2.711  -7.881  -4.689  0.00  0.00    +0.088 A 
ATOM      8  C   UNL     1       2.199  -8.803  -3.787  0.00  0.00    +0.091 A 
ATOM      9  C   UNL     1       2.385 -10.210  -4.099  0.00  0.00    -0.021 A 
ATOM     10  C   UNL     1       3.049 -10.437  -5.252  0.00  0.00    -0.004 A 
ATOM     11  S   UNL     1       3.400  -8.827  -5.894  0.00  0.00    -0.077 S 
ATOM     12  C   UNL     1       3.397 -11.769  -5.843  0.00  0.00    +0.043 C 
ATOM     13  C   UNL     1       3.219 -12.840  -4.756  0.00  0.00    +0.005 C 
ATOM     14  C   UNL     1       1.862 -12.634  -4.075  0.00  0.00    +0.005 C 
ATOM     15  C   UNL     1       1.891 -11.358  -3.231  0.00  0.00    +0.037 C 
BRANCH   8  16
ATOM     16  C   UNL     1       1.500  -8.376  -2.574  0.00  0.00    +0.342 C 
ATOM     17  O   UNL     1       0.296  -8.204  -2.593  0.00  0.00    -0.245 OA
BRANCH  16  18
ATOM     18  O   UNL     1       2.192  -8.174  -1.433  0.00  0.00    -0.464 OA
ATOM     19  C   UNL     1       1.446  -7.758  -0.287  0.00  0.00    +0.280 C 
ENDBRANCH  16  18
ENDBRANCH   8  16
ENDBRANCH   4   7
BRANCH   1  21
ATOM     20  C   UNL     1       2.493  -2.490  -4.360  0.00  0.00    +0.138 C 
ATOM     21  N   UNL     1       2.540  -3.785  -4.429  0.00  0.00    -0.186 NA
BRANCH  20  25
ATOM     22  C   UNL     1       0.606  -0.607  -1.056  0.00  0.00    +0.134 A 
ATOM     23  C   UNL     1       1.172   0.165  -2.062  0.00  0.00    +0.047 A 
ATOM     24  C   UNL     1       1.786  -0.442  -3.136  0.00  0.00    +0.013 A 
ATOM     25  C   UNL     1       1.838  -1.837  -3.212  0.00  0.00    -0.004 A 
ATOM     26  C   UNL     1       1.266  -2.610  -2.198  0.00  0.00    +0.028 A 
ATOM     27  C   UNL     1       0.659  -1.994  -1.124  0.00  0.00    +0.060 A 
ATOM     28 BR   UNL     1      -0.108  -3.038   0.253  0.00  0.00    -0.046 Br
BRANCH  22  30
ATOM     29  C   UNL     1      -0.017   1.425   0.010  0.00  0.00    +0.277 C 
ATOM     30  O   UNL     1       0.002  -0.004   0.002  0.00  0.00    -0.494 OA
ENDBRANCH  22  30
ENDBRANCH  20  25
ENDBRANCH   1  21
TORSDOF 6
