REMARK  Name = ZINC04903895
REMARK  9 active torsions:
REMARK  status: ('A' for Active; 'I' for Inactive)
REMARK    1  A    between atoms: C_1  and  C_2
REMARK    2  A    between atoms: C_2  and  C_3
REMARK    3  A    between atoms: C_2  and  C_4
REMARK    4  A    between atoms: N_7  and  C_8
REMARK    5  A    between atoms: C_11  and  S_14
REMARK    6  A    between atoms: S_14  and  N_17
REMARK    7  A    between atoms: C_19  and  C_22
REMARK    8  A    between atoms: C_22  and  C_23
REMARK    9  A    between atoms: C_22  and  C_24
REMARK                            x       y       z     vdW  Elec       q    Type
REMARK                         _______ _______ _______ _____ _____    ______ ____
ROOT
ATOM      1  C   UNL     1      -1.486  -0.374  -0.069  0.00  0.00    +0.004 C 
ATOM      2  C   UNL     1      -1.936  -1.130  -1.093  0.00  0.00    +0.035 C 
ATOM      3  C   UNL     1      -3.213  -1.839  -0.972  0.00  0.00    +0.065 C 
ATOM      4  N   UNL     1      -3.656  -2.579  -1.973  0.00  0.00    -0.248 NA
ATOM      5  C   UNL     1      -3.999  -1.725   0.260  0.00  0.00    +0.035 C 
ATOM      6  C   UNL     1      -3.544  -0.969   1.281  0.00  0.00    +0.004 C 
ATOM      7  C   UNL     1      -2.268  -0.267   1.161  0.00  0.00    +0.186 C 
ATOM      8  O   UNL     1      -1.856   0.412   2.087  0.00  0.00    -0.287 OA
ENDROOT
BRANCH   4   9
ATOM      9  C   UNL     1      -4.883  -3.127  -1.913  0.00  0.00    +0.065 A 
ATOM     10  C   UNL     1      -6.014  -2.312  -1.723  0.00  0.00    +0.029 A 
ATOM     11  C   UNL     1      -7.265  -2.882  -1.663  0.00  0.00    +0.030 A 
ATOM     12  C   UNL     1      -7.413  -4.255  -1.790  0.00  0.00    +0.105 A 
ATOM     13  C   UNL     1      -6.306  -5.067  -1.978  0.00  0.00    +0.030 A 
ATOM     14  C   UNL     1      -5.046  -4.518  -2.047  0.00  0.00    +0.029 A 
BRANCH  12  15
ATOM     15  S   UNL     1      -9.020  -4.972  -1.711  0.00  0.00    +0.056 S 
ATOM     16  O   UNL     1      -8.843  -6.323  -1.310  0.00  0.00    -0.153 OA
ATOM     17  O   UNL     1      -9.835  -4.062  -0.984  0.00  0.00    -0.153 OA
BRANCH  15  18
ATOM     18  N   UNL     1      -9.616  -5.010  -3.256  0.00  0.00    -0.204 NA
ATOM     19  H   UNL     1      -9.081  -4.670  -3.990  0.00  0.00    +0.144 HD
ATOM     20  H   UNL     1     -10.499  -5.373  -3.426  0.00  0.00    +0.144 HD
ENDBRANCH  15  18
ENDBRANCH  12  15
ENDBRANCH   4   9
BRANCH   1  22
ATOM     21  C   UNL     1      -0.406   1.858  -0.032  0.00  0.00    +0.012 C 
ATOM     22  C   UNL     1      -0.172   0.354  -0.192  0.00  0.00    +0.017 C 
ATOM     23  C   UNL     1       0.785  -0.132   0.898  0.00  0.00    +0.012 C 
ENDBRANCH   1  22
BRANCH   6  24
ATOM     24  C   UNL     1      -4.351  -0.851   2.549  0.00  0.00    +0.017 C 
ATOM     25  C   UNL     1      -3.527  -1.370   3.728  0.00  0.00    +0.012 C 
ATOM     26  C   UNL     1      -4.716   0.615   2.787  0.00  0.00    +0.012 C 
ENDBRANCH   6  24
TORSDOF 5
