REMARK  Name = ZINC22192284
REMARK  5 active torsions:
REMARK  status: ('A' for Active; 'I' for Inactive)
REMARK    1  A    between atoms: C_1  and  C_2
REMARK    2  A    between atoms: C_7  and  C_11
REMARK    3  A    between atoms: N_17  and  N_18
REMARK    4  A    between atoms: C_19  and  C_20
REMARK    5  A    between atoms: C_19  and  C_21
REMARK                            x       y       z     vdW  Elec       q    Type
REMARK                         _______ _______ _______ _____ _____    ______ ____
ROOT
ATOM      1  C   UNL     1       9.300   5.022  -0.066  0.00  0.00    +0.088 C 
ATOM      2  C   UNL     1       7.836   4.664  -0.052  0.00  0.00    +0.129 A 
ATOM      3  N   UNL     1       6.936   5.630  -0.038  0.00  0.00    -0.216 NA
ATOM      4  C   UNL     1       5.635   5.382  -0.026  0.00  0.00    +0.150 A 
ATOM      5  C   UNL     1       5.187   4.030  -0.029  0.00  0.00    +0.050 A 
ATOM      6  C   UNL     1       3.837   3.504  -0.018  0.00  0.00    +0.029 A 
ATOM      7  C   UNL     1       3.657   2.160  -0.023  0.00  0.00    +0.022 A 
ATOM      8  S   UNL     1       5.320   1.519  -0.035  0.00  0.00    -0.069 S 
ATOM      9  C   UNL     1       6.209   3.054  -0.044  0.00  0.00    +0.114 A 
ATOM     10  N   UNL     1       7.483   3.393  -0.055  0.00  0.00    -0.225 NA
ATOM     11  N   UNL     1       4.724   6.421  -0.012  0.00  0.00    -0.220 N 
ATOM     12  H   UNL     1       3.646   6.207  -0.003  0.00  0.00    +0.176 HD
ENDROOT
BRANCH   7  13
ATOM     13  C   UNL     1       2.385   1.407  -0.014  0.00  0.00    -0.011 A 
ATOM     14  C   UNL     1       1.167   2.088   0.002  0.00  0.00    +0.009 A 
ATOM     15  C   UNL     1      -0.017   1.379   0.010  0.00  0.00    +0.001 A 
ATOM     16  C   UNL     1       0.002  -0.004   0.002  0.00  0.00    +0.000 A 
ATOM     17  C   UNL     1       1.206  -0.686  -0.013  0.00  0.00    +0.001 A 
ATOM     18  C   UNL     1       2.397   0.011  -0.021  0.00  0.00    +0.009 A 
ENDBRANCH   7  13
BRANCH  11  19
ATOM     19  N   UNL     1       5.175   7.748  -0.009  0.00  0.00    -0.184 NA
ATOM     20  C   UNL     1       4.319   8.724   0.004  0.00  0.00    +0.082 C 
ATOM     21  C   UNL     1       2.841   8.431   0.016  0.00  0.00    +0.069 C 
BRANCH  20  22
ATOM     22  C   UNL     1       4.793  10.119   0.006  0.00  0.00    +0.095 A 
ATOM     23  C   UNL     1       6.135  10.396  -0.005  0.00  0.00    +0.078 A 
ATOM     24  S   UNL     1       6.107  12.184   0.005  0.00  0.00    -0.060 S 
ATOM     25  C   UNL     1       4.331  12.383   0.023  0.00  0.00    +0.156 A 
ATOM     26  N   UNL     1       3.922  11.129   0.015  0.00  0.00    -0.224 NA
ATOM     27  N   UNL     1       3.582  13.548   0.036  0.00  0.00    -0.338 N 
ATOM     28  H   UNL     1       2.483  13.495   0.046  0.00  0.00    +0.144 HD
ATOM     29  H   UNL     1       4.085  14.526   0.036  0.00  0.00    +0.144 HD
ENDBRANCH  20  22
ENDBRANCH  11  19
TORSDOF 3
