REMARK  Name = ZINC10751840
REMARK  10 active torsions:
REMARK  status: ('A' for Active; 'I' for Inactive)
REMARK    1  A    between atoms: C_1  and  C_2
REMARK    2  A    between atoms: C_5  and  C_33
REMARK    3  A    between atoms: N_11  and  C_12
REMARK    4  A    between atoms: C_12  and  C_13
REMARK    5  A    between atoms: C_13  and  N_63
REMARK    6  A    between atoms: C_14  and  N_63
REMARK    7  A    between atoms: C_15  and  N_63
REMARK    8  A    between atoms: C_16  and  C_18
REMARK    9  A    between atoms: N_23  and  S_25
REMARK   10  A    between atoms: S_25  and  C_28
REMARK                            x       y       z     vdW  Elec       q    Type
REMARK                         _______ _______ _______ _____ _____    ______ ____
ROOT
ATOM      1  C   UNL     1       1.294   7.010  10.504  0.00  0.00    +0.046 C 
ATOM      2  C   UNL     1       1.064   8.260   9.694  0.00  0.00    -0.024 A 
ATOM      3  C   UNL     1       1.294   9.486  10.261  0.00  0.00    +0.006 A 
ATOM      4  C   UNL     1       1.095  10.662   9.552  0.00  0.00    +0.005 A 
ATOM      5  C   UNL     1       0.655  10.597   8.243  0.00  0.00    -0.035 A 
ATOM      6  C   UNL     1       0.422   9.373   7.666  0.00  0.00    +0.044 A 
ATOM      7  C   UNL     1       0.614   8.155   8.358  0.00  0.00    +0.083 A 
ATOM      8  N   UNL     1       0.337   7.034   7.657  0.00  0.00    -0.224 NA
ATOM      9  C   UNL     1      -0.073   7.065   6.411  0.00  0.00    +0.168 A 
ATOM     10  S   UNL     1      -0.130   8.819   6.071  0.00  0.00    -0.052 S 
ATOM     11  N   UNL     1      -0.388   6.007   5.573  0.00  0.00    -0.252 N 
ATOM     12  C   UNL     1      -0.669   6.236   4.275  0.00  0.00    +0.226 C 
ATOM     13  O   UNL     1      -1.033   5.324   3.564  0.00  0.00    -0.275 OA
ATOM     14  C   UNL     1       0.432  11.861   7.454  0.00  0.00    +0.045 C 
ENDROOT
BRANCH  12  15
ATOM     15  C   UNL     1      -0.530   7.625   3.708  0.00  0.00    +0.091 C 
ATOM     16  C   UNL     1       0.938   8.055   3.763  0.00  0.00    +0.015 C 
ATOM     17  C   UNL     1       1.076   9.478   3.217  0.00  0.00    +0.018 C 
ATOM     18  C   UNL     1       0.619   9.504   1.750  0.00  0.00    +0.109 C 
ATOM     19  N   UNL     1      -0.743   8.958   1.675  0.00  0.00    -0.175 NA
ATOM     20  C   UNL     1      -1.006   7.633   2.252  0.00  0.00    +0.122 C 
BRANCH  19  21
ATOM     21  S   UNL     1      -1.957   9.818   0.948  0.00  0.00    +0.067 S 
ATOM     22  O   UNL     1      -2.932   8.872   0.531  0.00  0.00    -0.152 OA
ATOM     23  O   UNL     1      -1.332  10.717   0.042  0.00  0.00    -0.152 OA
BRANCH  21  24
ATOM     24  C   UNL     1      -2.715  10.805   2.195  0.00  0.00    +0.143 A 
ATOM     25  C   UNL     1      -2.410  12.066   2.589  0.00  0.00    +0.036 A 
ATOM     26  C   UNL     1      -3.147  12.648   3.603  0.00  0.00    +0.010 A 
ATOM     27  C   UNL     1      -4.160  11.946   4.166  0.00  0.00    +0.047 A 
ATOM     28  S   UNL     1      -4.090  10.408   3.263  0.00  0.00    -0.077 S 
ENDBRANCH  21  24
ENDBRANCH  19  21
ENDBRANCH  12  15
BRANCH  11  29
ATOM     29  C   UNL     1      -0.416   4.640   6.099  0.00  0.00    +0.097 C 
BRANCH  29  30
ATOM     30  C   UNL     1       0.930   3.964   5.834  0.00  0.00    -0.060 C 
BRANCH  30  33
ATOM     31  C   UNL     1       2.082   1.836   5.920  0.00  0.00    -0.097 C 
ATOM     32  C   UNL     1       0.794   2.595   7.826  0.00  0.00    -0.097 C 
ATOM     33  N   UNL     1       0.879   2.580   6.350  0.00  0.00    +0.377 N 
ATOM     34  H   UNL     1       0.046   2.114   5.973  0.00  0.00    -0.083 HD
ENDBRANCH  30  33
ENDBRANCH  29  30
ENDBRANCH  11  29
TORSDOF 6
