REMARK  Name = ZINC01992455
REMARK  11 active torsions:
REMARK  status: ('A' for Active; 'I' for Inactive)
REMARK    1  A    between atoms: C_1  and  C_2
REMARK    2  A    between atoms: C_2  and  C_3
REMARK    3  A    between atoms: C_2  and  C_4
REMARK    4  A    between atoms: C_4  and  N_5
REMARK    5  A    between atoms: C_6  and  C_8
REMARK    6  A    between atoms: C_12  and  N_13
REMARK    7  A    between atoms: C_16  and  C_26
REMARK    8  A    between atoms: C_21  and  O_24
REMARK    9  A    between atoms: O_24  and  C_25
REMARK   10  A    between atoms: C_29  and  O_32
REMARK   11  A    between atoms: O_32  and  C_33
REMARK                            x       y       z     vdW  Elec       q    Type
REMARK                         _______ _______ _______ _____ _____    ______ ____
ROOT
ATOM      1  N   UNL     1      -8.483  -1.810   0.074  0.00  0.00    -0.348 N 
ATOM      2  C   UNL     1      -7.350  -2.498  -0.031  0.00  0.00    +0.054 A 
ATOM      3  C   UNL     1      -6.094  -1.845  -0.076  0.00  0.00    +0.073 A 
ATOM      4  C   UNL     1      -4.958  -2.585  -0.189  0.00  0.00    +0.138 A 
ATOM      5  O   UNL     1      -4.973  -3.928  -0.250  0.00  0.00    -0.455 OA
ATOM      6  C   UNL     1      -6.120  -4.640  -0.208  0.00  0.00    +0.138 A 
ATOM      7  C   UNL     1      -7.351  -3.975  -0.098  0.00  0.00    +0.044 A 
ATOM      8  C   UNL     1      -8.539  -4.699  -0.054  0.00  0.00    +0.059 A 
ATOM      9  C   UNL     1      -8.498  -6.081  -0.120  0.00  0.00    +0.121 A 
ATOM     10  C   UNL     1      -7.279  -6.739  -0.229  0.00  0.00    +0.049 A 
ATOM     11  C   UNL     1      -6.098  -6.027  -0.273  0.00  0.00    +0.050 A 
ATOM     12  H   UNL     1      -8.453  -0.723   0.236  0.00  0.00    +0.166 HD
ENDROOT
BRANCH   1  17
ATOM     13  C   UNL     1     -10.522  -2.861   1.009  0.00  0.00    +0.071 A 
ATOM     14  C   UNL     1     -11.752  -3.531   0.625  0.00  0.00    -0.023 A 
ATOM     15  C   UNL     1     -11.959  -3.692  -0.701  0.00  0.00    -0.004 A 
ATOM     16  S   UNL     1     -10.546  -2.961  -1.481  0.00  0.00    -0.075 S 
ATOM     17  C   UNL     1      -9.664  -2.443  -0.019  0.00  0.00    +0.091 A 
ATOM     18  C   UNL     1     -13.134  -4.345  -1.363  0.00  0.00    +0.043 C 
ATOM     19  C   UNL     1     -13.908  -5.141  -0.302  0.00  0.00    +0.005 C 
ATOM     20  C   UNL     1     -14.111  -4.252   0.928  0.00  0.00    +0.005 C 
ATOM     21  C   UNL     1     -12.775  -4.035   1.639  0.00  0.00    +0.037 C 
BRANCH  13  23
ATOM     22  N   UNL     1      -9.490  -3.553   3.102  0.00  0.00    -0.311 N 
ATOM     23  C   UNL     1     -10.191  -2.630   2.414  0.00  0.00    +0.247 C 
ATOM     24  O   UNL     1     -10.549  -1.604   2.964  0.00  0.00    -0.270 OA
ATOM     25  H   UNL     1      -9.167  -4.480   2.605  0.00  0.00    +0.149 HD
BRANCH  22  26
ATOM     26  C   UNL     1      -9.158  -3.322   4.510  0.00  0.00    +0.107 C 
BRANCH  26  28
ATOM     27  C   UNL     1      -7.911  -4.220   6.480  0.00  0.00    +0.009 C 
ATOM     28  C   UNL     1      -8.364  -4.514   5.049  0.00  0.00    -0.000 C 
ATOM     29  C   UNL     1      -9.250  -5.762   5.041  0.00  0.00    +0.009 C 
ENDBRANCH  26  28
ENDBRANCH  22  26
ENDBRANCH  13  23
ENDBRANCH   1  17
BRANCH   4  30
ATOM     30  C   UNL     1      -3.660  -1.887  -0.241  0.00  0.00    +0.018 A 
ATOM     31  C   UNL     1      -2.474  -2.620  -0.351  0.00  0.00    +0.015 A 
ATOM     32  C   UNL     1      -1.264  -1.964  -0.400  0.00  0.00    +0.046 A 
ATOM     33  C   UNL     1      -1.221  -0.577  -0.339  0.00  0.00    +0.120 A 
ATOM     34  C   UNL     1      -2.396   0.155  -0.224  0.00  0.00    +0.046 A 
ATOM     35  C   UNL     1      -3.611  -0.492  -0.181  0.00  0.00    +0.015 A 
BRANCH  33  36
ATOM     36  O   UNL     1      -0.025   0.066  -0.387  0.00  0.00    -0.495 OA
ATOM     37  C   UNL     1      -0.052   1.493  -0.319  0.00  0.00    +0.277 C 
ENDBRANCH  33  36
ENDBRANCH   4  30
BRANCH   9  38
ATOM     38  O   UNL     1      -9.654  -6.796  -0.077  0.00  0.00    -0.495 OA
ATOM     39  C   UNL     1      -9.539  -8.219  -0.149  0.00  0.00    +0.277 C 
ENDBRANCH   9  38
TORSDOF 7
