REMARK  Name = ZINC12820079
REMARK  12 active torsions:
REMARK  status: ('A' for Active; 'I' for Inactive)
REMARK    1  A    between atoms: C_1  and  C_2
REMARK    2  A    between atoms: C_2  and  C_4
REMARK    3  A    between atoms: C_2  and  N_60
REMARK    4  A    between atoms: N_6  and  C_7
REMARK    5  A    between atoms: C_12  and  C_13
REMARK    6  A    between atoms: C_13  and  C_15
REMARK    7  A    between atoms: C_21  and  N_60
REMARK    8  A    between atoms: C_22  and  C_23
REMARK    9  A    between atoms: C_22  and  N_60
REMARK   10  A    between atoms: N_25  and  C_26
REMARK   11  A    between atoms: C_31  and  S_32
REMARK   12  A    between atoms: S_32  and  C_33
REMARK                            x       y       z     vdW  Elec       q    Type
REMARK                         _______ _______ _______ _____ _____    ______ ____
ROOT
ATOM      1  C   UNL     1      -1.418   3.233   2.256  0.00  0.00    -0.004 C 
ATOM      2  C   UNL     1      -0.758   2.868   0.924  0.00  0.00    +0.017 C 
ENDROOT
BRANCH   2   3
ATOM      3  C   UNL     1      -1.671   3.252  -0.211  0.00  0.00    +0.203 C 
ATOM      4  O   UNL     1      -2.102   2.400  -0.958  0.00  0.00    -0.277 OA
ATOM      5  N   UNL     1      -2.009   4.544  -0.396  0.00  0.00    -0.286 N 
ATOM      6  H   UNL     1      -1.609   5.234   0.156  0.00  0.00    +0.155 HD
BRANCH   5   7
ATOM      7  C   UNL     1      -2.931   4.888  -1.381  0.00  0.00    +0.044 A 
ATOM      8  C   UNL     1      -3.980   4.031  -1.685  0.00  0.00    +0.024 A 
ATOM      9  C   UNL     1      -4.896   4.376  -2.658  0.00  0.00    +0.002 A 
ATOM     10  C   UNL     1      -4.772   5.573  -3.346  0.00  0.00    +0.001 A 
ATOM     11  C   UNL     1      -3.735   6.434  -3.062  0.00  0.00    +0.013 A 
ATOM     12  C   UNL     1      -2.802   6.101  -2.076  0.00  0.00    +0.043 A 
BRANCH  12  13
ATOM     13  C   UNL     1      -1.690   7.018  -1.767  0.00  0.00    +0.195 C 
ATOM     14  O   UNL     1      -1.895   8.027  -1.121  0.00  0.00    -0.287 OA
BRANCH  13  15
ATOM     15  C   UNL     1      -0.325   6.710  -2.243  0.00  0.00    +0.022 A 
ATOM     16  C   UNL     1      -0.102   5.607  -3.070  0.00  0.00    +0.012 A 
ATOM     17  C   UNL     1       1.173   5.328  -3.515  0.00  0.00    +0.001 A 
ATOM     18  C   UNL     1       2.233   6.133  -3.134  0.00  0.00    +0.000 A 
ATOM     19  C   UNL     1       2.021   7.224  -2.310  0.00  0.00    +0.001 A 
ATOM     20  C   UNL     1       0.750   7.517  -1.863  0.00  0.00    +0.012 A 
ENDBRANCH  13  15
ENDBRANCH  12  13
ENDBRANCH   5   7
ENDBRANCH   2   3
BRANCH   2  22
ATOM     21  C   UNL     1       0.593   1.050   1.781  0.00  0.00    -0.094 C 
ATOM     22  N   UNL     1      -0.501   1.414   0.856  0.00  0.00    +0.391 N 
ATOM     23  H   UNL     1      -0.223   1.169  -0.102  0.00  0.00    -0.080 HD
BRANCH  22  24
ATOM     24  C   UNL     1      -1.727   0.666   1.206  0.00  0.00    +0.020 C 
BRANCH  24  25
ATOM     25  C   UNL     1      -1.504  -0.796   0.917  0.00  0.00    +0.201 C 
ATOM     26  O   UNL     1      -0.436  -1.173   0.485  0.00  0.00    -0.278 OA
ATOM     27  N   UNL     1      -2.493  -1.685   1.140  0.00  0.00    -0.286 N 
ATOM     28  H   UNL     1      -3.368  -1.376   1.422  0.00  0.00    +0.155 HD
BRANCH  27  29
ATOM     29  C   UNL     1      -2.256  -3.055   0.963  0.00  0.00    +0.047 A 
ATOM     30  C   UNL     1      -1.395  -3.488  -0.034  0.00  0.00    +0.024 A 
ATOM     31  C   UNL     1      -1.159  -4.840  -0.203  0.00  0.00    +0.002 A 
ATOM     32  C   UNL     1      -1.787  -5.764   0.612  0.00  0.00    +0.001 A 
ATOM     33  C   UNL     1      -2.651  -5.341   1.604  0.00  0.00    +0.016 A 
ATOM     34  C   UNL     1      -2.890  -3.986   1.785  0.00  0.00    +0.029 A 
BRANCH  34  35
ATOM     35  S   UNL     1      -3.992  -3.444   3.049  0.00  0.00    -0.127 S 
ATOM     36  C   UNL     1      -4.553  -4.982   3.831  0.00  0.00    +0.090 C 
ENDBRANCH  34  35
ENDBRANCH  27  29
ENDBRANCH  24  25
ENDBRANCH  22  24
ENDBRANCH   2  22
TORSDOF 9
