REMARK  Name = ZINC12993616
REMARK  10 active torsions:
REMARK  status: ('A' for Active; 'I' for Inactive)
REMARK    1  A    between atoms: C_1  and  C_2
REMARK    2  A    between atoms: C_2  and  N_3
REMARK    3  A    between atoms: N_10  and  C_13
REMARK    4  A    between atoms: C_13  and  C_14
REMARK    5  A    between atoms: C_14  and  C_15
REMARK    6  A    between atoms: N_17  and  C_18
REMARK    7  A    between atoms: C_18  and  C_20
REMARK    8  A    between atoms: C_18  and  C_21
REMARK    9  A    between atoms: C_24  and  S_27
REMARK   10  A    between atoms: S_27  and  N_30
REMARK                            x       y       z     vdW  Elec       q    Type
REMARK                         _______ _______ _______ _____ _____    ______ ____
ROOT
ATOM      1  C   UNL     1      -3.667  -1.958  -1.414  0.00  0.00    +0.215 C 
ATOM      2  O   UNL     1      -3.849  -2.538  -0.364  0.00  0.00    -0.276 OA
ATOM      3  N   UNL     1      -3.891  -2.591  -2.582  0.00  0.00    -0.309 N 
ATOM      4  H   UNL     1      -3.746  -2.127  -3.421  0.00  0.00    +0.149 HD
ENDROOT
BRANCH   3   5
ATOM      5  C   UNL     1      -4.355  -3.981  -2.584  0.00  0.00    +0.100 C 
ATOM      6  C   UNL     1      -3.152  -4.920  -2.475  0.00  0.00    +0.033 C 
BRANCH   5   7
ATOM      7  C   UNL     1      -5.096  -4.261  -3.866  0.00  0.00    -0.027 A 
ATOM      8  C   UNL     1      -4.632  -3.742  -5.060  0.00  0.00    +0.007 A 
ATOM      9  C   UNL     1      -5.309  -4.003  -6.237  0.00  0.00    +0.029 A 
ATOM     10  C   UNL     1      -6.455  -4.775  -6.218  0.00  0.00    +0.105 A 
ATOM     11  C   UNL     1      -6.922  -5.290  -5.023  0.00  0.00    +0.029 A 
ATOM     12  C   UNL     1      -6.242  -5.033  -3.847  0.00  0.00    +0.007 A 
BRANCH  10  13
ATOM     13  S   UNL     1      -7.322  -5.101  -7.717  0.00  0.00    +0.056 S 
ATOM     14  O   UNL     1      -6.379  -4.961  -8.771  0.00  0.00    -0.153 OA
ATOM     15  O   UNL     1      -8.058  -6.299  -7.508  0.00  0.00    -0.153 OA
BRANCH  13  16
ATOM     16  N   UNL     1      -8.435  -3.891  -7.913  0.00  0.00    -0.204 NA
ATOM     17  H   UNL     1      -8.503  -3.183  -7.253  0.00  0.00    +0.144 HD
ATOM     18  H   UNL     1      -9.019  -3.889  -8.688  0.00  0.00    +0.144 HD
ENDBRANCH  13  16
ENDBRANCH  10  13
ENDBRANCH   5   7
ENDBRANCH   3   5
BRANCH   1  19
ATOM     19  C   UNL     1      -3.190  -0.528  -1.411  0.00  0.00    +0.117 C 
BRANCH  19  20
ATOM     20  C   UNL     1      -3.015  -0.051   0.032  0.00  0.00    +0.136 C 
BRANCH  20  28
ATOM     21  N   UNL     1      -2.573   3.540   0.044  0.00  0.00    -0.292 N 
ATOM     22  C   UNL     1      -1.236   3.151   0.029  0.00  0.00    +0.070 A 
ATOM     23  C   UNL     1      -0.040   3.853   0.021  0.00  0.00    +0.028 A 
ATOM     24  C   UNL     1       1.159   3.168   0.007  0.00  0.00    +0.002 A 
ATOM     25  C   UNL     1       1.173   1.784   0.000  0.00  0.00    +0.002 A 
ATOM     26  C   UNL     1      -0.013   1.076   0.008  0.00  0.00    +0.028 A 
ATOM     27  C   UNL     1      -1.222   1.754   0.017  0.00  0.00    +0.070 A 
ATOM     28  N   UNL     1      -2.551   1.338   0.034  0.00  0.00    -0.292 N 
ATOM     29  C   UNL     1      -3.337   2.431   0.046  0.00  0.00    +0.330 A 
ATOM     30  O   UNL     1      -4.554   2.419   0.059  0.00  0.00    -0.246 OA
BRANCH  21  32
ATOM     31  C   UNL     1      -3.249   5.406  -1.385  0.00  0.00    +0.027 C 
ATOM     32  C   UNL     1      -3.064   4.920   0.054  0.00  0.00    +0.123 C 
ENDBRANCH  21  32
ENDBRANCH  20  28
ENDBRANCH  19  20
ENDBRANCH   1  19
TORSDOF 8
