REMARK  Name = ZINC33630134
REMARK  9 active torsions:
REMARK  status: ('A' for Active; 'I' for Inactive)
REMARK    1  A    between atoms: C_1  and  C_2
REMARK    2  A    between atoms: C_2  and  C_3
REMARK    3  A    between atoms: C_3  and  C_4
REMARK    4  A    between atoms: C_4  and  N_5
REMARK    5  A    between atoms: C_10  and  C_29
REMARK    6  A    between atoms: C_13  and  C_18
REMARK    7  A    between atoms: C_13  and  C_26
REMARK    8  A    between atoms: C_18  and  C_19
REMARK    9  A    between atoms: C_22  and  O_25
REMARK                            x       y       z     vdW  Elec       q    Type
REMARK                         _______ _______ _______ _____ _____    ______ ____
ROOT
ATOM      1  N   UNL     1       5.534   1.694  -3.551  0.00  0.00    -0.242 N 
ATOM      2  C   UNL     1       5.109   2.717  -2.739  0.00  0.00    +0.224 C 
ATOM      3  O   UNL     1       4.677   3.799  -3.074  0.00  0.00    -0.275 OA
ATOM      4  C   UNL     1       5.292   2.217  -1.395  0.00  0.00    +0.080 C 
ATOM      5  C   UNL     1       4.785   2.464  -0.031  0.00  0.00    +0.010 C 
ATOM      6  N   UNL     1       5.296   1.262   0.714  0.00  0.00    +0.398 N 
ATOM      7  C   UNL     1       5.529   0.173  -0.282  0.00  0.00    +0.052 C 
ATOM      8  C   UNL     1       4.928   0.689  -1.588  0.00  0.00    +0.086 C 
ATOM      9  C   UNL     1       5.680   0.513  -2.879  0.00  0.00    +0.225 C 
ATOM     10  O   UNL     1       6.288  -0.469  -3.245  0.00  0.00    -0.275 OA
ATOM     11  H   UNL     1       6.236   1.519   1.225  0.00  0.00    -0.083 HD
ATOM     12  H   UNL     1       4.549   0.946   1.458  0.00  0.00    -0.083 HD
ENDROOT
BRANCH   5  13
ATOM     13  C   UNL     1       3.278   2.506  -0.016  0.00  0.00    +0.093 A 
ATOM     14  C   UNL     1       2.542   3.626  -0.003  0.00  0.00    +0.051 A 
ATOM     15  C   UNL     1       1.140   3.193   0.008  0.00  0.00    +0.020 A 
ATOM     16  C   UNL     1      -0.086   3.858   0.024  0.00  0.00    +0.011 A 
ATOM     17  C   UNL     1      -1.248   3.138   0.032  0.00  0.00    +0.001 A 
ATOM     18  C   UNL     1      -1.214   1.751   0.017  0.00  0.00    +0.004 A 
ATOM     19  C   UNL     1      -0.013   1.076   0.008  0.00  0.00    +0.047 A 
ATOM     20  C   UNL     1       1.180   1.789   0.000  0.00  0.00    +0.135 A 
ATOM     21  O   UNL     1       2.478   1.425  -0.014  0.00  0.00    -0.461 OA
ENDBRANCH   5  13
BRANCH   7  22
ATOM     22  C   UNL     1       4.832  -1.091   0.150  0.00  0.00    +0.347 C 
ATOM     23  O   UNL     1       4.286  -1.791  -0.670  0.00  0.00    -0.248 OA
ATOM     24  O   UNL     1       4.819  -1.441   1.446  0.00  0.00    -0.248 OA
ENDBRANCH   7  22
BRANCH   1  25
ATOM     25  C   UNL     1       5.802   1.852  -4.982  0.00  0.00    +0.116 C 
BRANCH  25  26
ATOM     26  C   UNL     1       4.524   1.571  -5.774  0.00  0.00    +0.019 C 
BRANCH  26  28
ATOM     27  C   UNL     1       3.525   1.454  -8.062  0.00  0.00    +0.004 C 
ATOM     28  C   UNL     1       4.803   1.736  -7.270  0.00  0.00    -0.002 C 
ENDBRANCH  26  28
ENDBRANCH  25  26
ENDBRANCH   1  25
BRANCH   7  29
ATOM     29  C   UNL     1       7.028  -0.079  -0.452  0.00  0.00    +0.035 C 
BRANCH  29  30
ATOM     30  C   UNL     1       7.602  -0.587   0.846  0.00  0.00    -0.048 A 
ATOM     31  C   UNL     1       8.098   0.306   1.778  0.00  0.00    +0.007 A 
ATOM     32  C   UNL     1       8.619  -0.157   2.970  0.00  0.00    +0.045 A 
ATOM     33  C   UNL     1       8.655  -1.520   3.228  0.00  0.00    +0.117 A 
ATOM     34  C   UNL     1       8.162  -2.414   2.289  0.00  0.00    +0.045 A 
ATOM     35  C   UNL     1       7.637  -1.946   1.100  0.00  0.00    +0.007 A 
BRANCH  33  36
ATOM     36  O   UNL     1       9.173  -1.978   4.398  0.00  0.00    -0.507 OA
ATOM     37  H   UNL     1       9.201  -3.059   4.601  0.00  0.00    +0.292 HD
ENDBRANCH  33  36
ENDBRANCH  29  30
ENDBRANCH   7  29
TORSDOF 8
