REMARK  Name = ZINC06492193
REMARK  5 active torsions:
REMARK  status: ('A' for Active; 'I' for Inactive)
REMARK    1  A    between atoms: C_3  and  C_6
REMARK    2  A    between atoms: C_6  and  N_7
REMARK    3  A    between atoms: C_16  and  C_26
REMARK    4  A    between atoms: C_16  and  C_30
REMARK    5  A    between atoms: C_18  and  C_20
REMARK                            x       y       z     vdW  Elec       q    Type
REMARK                         _______ _______ _______ _____ _____    ______ ____
ROOT
ATOM      1  N   UNL     1       3.361   1.423   1.120  0.00  0.00    -0.274 N 
ATOM      2  C   UNL     1       3.988   2.366   1.895  0.00  0.00    +0.120 A 
ATOM      3  C   UNL     1       4.426   2.033   3.143  0.00  0.00    +0.100 A 
ATOM      4  C   UNL     1       4.217   0.725   3.612  0.00  0.00    +0.262 A 
ATOM      5  O   UNL     1       4.594   0.404   4.726  0.00  0.00    -0.267 OA
ATOM      6  N   UNL     1       3.596  -0.172   2.820  0.00  0.00    -0.275 N 
ATOM      7  H   UNL     1       3.451  -1.076   3.140  0.00  0.00    +0.173 HD
ATOM      8  C   UNL     1       3.171   0.177   1.592  0.00  0.00    +0.331 A 
ATOM      9  O   UNL     1       2.612  -0.648   0.895  0.00  0.00    -0.246 OA
ATOM     10  C   UNL     1       5.127   3.047   4.002  0.00  0.00    +0.285 C 
ATOM     11  N   UNL     1       4.918   4.398   3.498  0.00  0.00    -0.244 NA
ATOM     12  C   UNL     1       4.485   4.649   2.316  0.00  0.00    +0.100 C 
ATOM     13  N   UNL     1       4.177   3.647   1.431  0.00  0.00    -0.289 N 
ATOM     14  H   UNL     1       4.093   3.840   0.484  0.00  0.00    +0.155 HD
ENDROOT
BRANCH  12  15
ATOM     15  C   UNL     1       4.309   6.084   1.889  0.00  0.00    +0.052 C 
ATOM     16  C   UNL     1       5.560   6.550   1.142  0.00  0.00    +0.011 C 
ATOM     17  C   UNL     1       5.382   8.007   0.708  0.00  0.00    +0.001 C 
ATOM     18  C   UNL     1       5.169   8.884   1.944  0.00  0.00    +0.000 C 
ATOM     19  C   UNL     1       3.918   8.418   2.691  0.00  0.00    +0.001 C 
ATOM     20  C   UNL     1       4.097   6.961   3.125  0.00  0.00    +0.011 C 
ENDBRANCH  12  15
BRANCH  10  21
ATOM     21  C   UNL     1       4.587   2.954   5.430  0.00  0.00    +0.428 C 
ATOM     22  F   UNL     1       5.113   1.819   6.055  0.00  0.00    -0.167 F 
ATOM     23  F   UNL     1       4.961   4.096   6.145  0.00  0.00    -0.167 F 
ATOM     24  F   UNL     1       3.191   2.862   5.395  0.00  0.00    -0.167 F 
ENDBRANCH  10  21
BRANCH  10  25
ATOM     25  C   UNL     1       6.627   2.743   4.014  0.00  0.00    +0.428 C 
ATOM     26  F   UNL     1       7.126   2.807   2.709  0.00  0.00    -0.167 F 
ATOM     27  F   UNL     1       7.287   3.684   4.812  0.00  0.00    -0.167 F 
ATOM     28  F   UNL     1       6.839   1.461   4.532  0.00  0.00    -0.167 F 
ENDBRANCH  10  25
BRANCH   1  29
ATOM     29  C   UNL     1       2.892   1.776  -0.222  0.00  0.00    +0.202 C 
BRANCH  29  32
ATOM     30  C   UNL     1      -0.293   3.609   0.052  0.00  0.00    +0.041 A 
ATOM     31  C   UNL     1       1.120   3.577   0.036  0.00  0.00    +0.046 A 
ATOM     32  C   UNL     1       1.479   2.293  -0.141  0.00  0.00    +0.125 A 
ATOM     33  O   UNL     1       0.364   1.550  -0.233  0.00  0.00    -0.466 OA
ATOM     34  C   UNL     1      -0.714   2.342  -0.117  0.00  0.00    +0.195 A 
ENDBRANCH  29  32
ENDBRANCH   1  29
TORSDOF 5
