REMARK  Name = ZINC14023510
REMARK  8 active torsions:
REMARK  status: ('A' for Active; 'I' for Inactive)
REMARK    1  A    between atoms: C_1  and  N_60
REMARK    2  A    between atoms: C_2  and  N_60
REMARK    3  A    between atoms: C_3  and  C_4
REMARK    4  A    between atoms: C_3  and  N_60
REMARK    5  A    between atoms: C_4  and  N_5
REMARK    6  A    between atoms: C_16  and  C_18
REMARK    7  A    between atoms: N_23  and  S_25
REMARK    8  A    between atoms: S_25  and  C_28
REMARK                            x       y       z     vdW  Elec       q    Type
REMARK                         _______ _______ _______ _____ _____    ______ ____
ROOT
ATOM      1  N   UNL     1      -0.093   4.435   5.452  0.00  0.00    -0.252 N 
ATOM      2  C   UNL     1       0.078   3.277   6.193  0.00  0.00    +0.168 A 
ATOM      3  N   UNL     1       0.149   3.136   7.495  0.00  0.00    -0.224 NA
ATOM      4  C   UNL     1       0.316   1.933   8.088  0.00  0.00    +0.080 A 
ATOM      5  C   UNL     1       0.403   1.646   9.470  0.00  0.00    +0.032 A 
ATOM      6  C   UNL     1       0.581   0.360   9.909  0.00  0.00    +0.040 A 
ATOM      7  C   UNL     1       0.680  -0.702   9.019  0.00  0.00    +0.125 A 
ATOM      8  C   UNL     1       0.599  -0.457   7.659  0.00  0.00    +0.055 A 
ATOM      9  C   UNL     1       0.421   0.829   7.213  0.00  0.00    +0.043 A 
ATOM     10  S   UNL     1       0.267   1.595   5.617  0.00  0.00    -0.052 S 
ATOM     11  F   UNL     1       0.855  -1.962   9.477  0.00  0.00    -0.205 F 
ATOM     12  C   UNL     1      -0.020   4.392   4.107  0.00  0.00    +0.226 C 
ATOM     13  O   UNL     1      -0.069   5.418   3.463  0.00  0.00    -0.275 OA
ENDROOT
BRANCH  12  14
ATOM     14  C   UNL     1       0.123   3.067   3.402  0.00  0.00    +0.091 C 
ATOM     15  C   UNL     1      -1.221   2.334   3.414  0.00  0.00    +0.015 C 
ATOM     16  C   UNL     1      -1.069   0.975   2.728  0.00  0.00    +0.018 C 
ATOM     17  C   UNL     1      -0.647   1.187   1.271  0.00  0.00    +0.109 C 
ATOM     18  N   UNL     1       0.567   2.015   1.246  0.00  0.00    -0.176 NA
ATOM     19  C   UNL     1       0.560   3.301   1.957  0.00  0.00    +0.122 C 
BRANCH  18  20
ATOM     20  S   UNL     1       1.919   1.506   0.436  0.00  0.00    +0.061 S 
ATOM     21  O   UNL     1       1.837   0.089   0.359  0.00  0.00    -0.153 OA
ATOM     22  O   UNL     1       3.024   2.174   1.031  0.00  0.00    -0.153 OA
BRANCH  20  23
ATOM     23  C   UNL     1       1.796   2.108  -1.215  0.00  0.00    +0.106 A 
ATOM     24  C   UNL     1       1.182   1.339  -2.186  0.00  0.00    +0.031 A 
ATOM     25  C   UNL     1       1.080   1.812  -3.481  0.00  0.00    +0.040 A 
ATOM     26  C   UNL     1       1.603   3.053  -3.807  0.00  0.00    +0.124 A 
ATOM     27  C   UNL     1       2.222   3.819  -2.834  0.00  0.00    +0.040 A 
ATOM     28  C   UNL     1       2.318   3.346  -1.539  0.00  0.00    +0.031 A 
ATOM     29  F   UNL     1       1.508   3.514  -5.073  0.00  0.00    -0.205 F 
ENDBRANCH  20  23
ENDBRANCH  18  20
ENDBRANCH  12  14
BRANCH   1  30
ATOM     30  C   UNL     1      -0.354   5.707   6.130  0.00  0.00    +0.097 C 
BRANCH  30  31
ATOM     31  C   UNL     1      -1.864   5.939   6.216  0.00  0.00    -0.060 C 
BRANCH  31  34
ATOM     32  C   UNL     1      -3.542   7.588   6.790  0.00  0.00    -0.097 C 
ATOM     33  C   UNL     1      -1.700   7.159   8.301  0.00  0.00    -0.097 C 
ATOM     34  N   UNL     1      -2.110   7.235   6.883  0.00  0.00    +0.377 N 
ATOM     35  H   UNL     1      -1.556   7.962   6.415  0.00  0.00    -0.083 HD
ENDBRANCH  31  34
ENDBRANCH  30  31
ENDBRANCH   1  30
TORSDOF 6
