REMARK  Name = ZINC05758316
REMARK  12 active torsions:
REMARK  status: ('A' for Active; 'I' for Inactive)
REMARK    1  A    between atoms: C_4  and  C_7
REMARK    2  A    between atoms: C_7  and  C_8
REMARK    3  A    between atoms: C_8  and  C_10
REMARK    4  A    between atoms: C_8  and  N_62
REMARK    5  A    between atoms: N_12  and  N_13
REMARK    6  A    between atoms: C_14  and  C_16
REMARK    7  A    between atoms: C_16  and  C_18
REMARK    8  A    between atoms: C_16  and  N_25
REMARK    9  A    between atoms: C_18  and  C_19
REMARK   10  A    between atoms: C_26  and  O_28
REMARK   11  A    between atoms: O_28  and  C_29
REMARK   12  A    between atoms: C_29  and  C_30
REMARK                            x       y       z     vdW  Elec       q    Type
REMARK                         _______ _______ _______ _____ _____    ______ ____
ROOT
ATOM      1  N   UNL     1      -6.671   0.175   1.312  0.00  0.00    -0.233 N 
ATOM      2  C   UNL     1      -7.785   0.917   1.153  0.00  0.00    +0.250 C 
ATOM      3  O   UNL     1      -7.697   2.118   1.006  0.00  0.00    -0.272 OA
ATOM      4  H   UNL     1      -6.741  -0.785   1.430  0.00  0.00    +0.173 HD
ENDROOT
BRANCH   1   7
ATOM      5  C   UNL     1      -4.299   0.049   1.467  0.00  0.00    +0.215 C 
ATOM      6  O   UNL     1      -4.386  -1.152   1.614  0.00  0.00    -0.276 OA
ATOM      7  N   UNL     1      -5.412   0.791   1.308  0.00  0.00    -0.236 N 
ATOM      8  H   UNL     1      -5.343   1.751   1.190  0.00  0.00    +0.173 HD
BRANCH   5   9
ATOM      9  C   UNL     1      -2.945   0.711   1.462  0.00  0.00    +0.019 C 
BRANCH   9  12
ATOM     10  H   UNL     1      -1.897  -1.054   1.623  0.00  0.00    -0.089 HD
ATOM     11  H   UNL     1      -1.064   0.275   2.177  0.00  0.00    -0.089 HD
ATOM     12  N   UNL     1      -1.977  -0.175   2.132  0.00  0.00    +0.386 N 
ATOM     13  H   UNL     1      -2.301  -0.369   3.087  0.00  0.00    -0.089 HD
ENDBRANCH   9  12
BRANCH   9  14
ATOM     14  C   UNL     1      -2.514   0.980   0.019  0.00  0.00    +0.028 C 
BRANCH  14  18
ATOM     15  C   UNL     1       1.156   3.165   0.008  0.00  0.00    +0.000 A 
ATOM     16  C   UNL     1       1.175   1.783   0.000  0.00  0.00    +0.000 A 
ATOM     17  C   UNL     1      -0.013   1.076   0.008  0.00  0.00    +0.003 A 
ATOM     18  C   UNL     1      -1.219   1.751   0.017  0.00  0.00    -0.048 A 
ATOM     19  C   UNL     1      -1.238   3.133   0.030  0.00  0.00    +0.003 A 
ATOM     20  C   UNL     1      -0.050   3.840   0.022  0.00  0.00    +0.000 A 
ENDBRANCH  14  18
ENDBRANCH   9  14
ENDBRANCH   5   9
ENDBRANCH   1   7
BRANCH   2  21
ATOM     21  C   UNL     1      -9.139   0.255   1.158  0.00  0.00    +0.168 C 
BRANCH  21  22
ATOM     22  N   UNL     1     -10.179   1.269   0.969  0.00  0.00    -0.269 N 
ATOM     23  C   UNL     1     -11.428   1.045   1.422  0.00  0.00    +0.401 C 
ATOM     24  O   UNL     1     -11.692   0.003   1.988  0.00  0.00    -0.226 OA
ATOM     25  H   UNL     1      -9.968   2.101   0.517  0.00  0.00    +0.153 HD
BRANCH  23  26
ATOM     26  O   UNL     1     -12.384   1.977   1.248  0.00  0.00    -0.446 OA
BRANCH  26  27
ATOM     27  C   UNL     1     -13.707   1.669   1.762  0.00  0.00    +0.269 C 
BRANCH  27  28
ATOM     28  C   UNL     1     -14.637   2.820   1.478  0.00  0.00    -0.010 A 
ATOM     29  C   UNL     1     -14.776   3.840   2.399  0.00  0.00    +0.007 A 
ATOM     30  C   UNL     1     -15.626   4.898   2.136  0.00  0.00    +0.000 A 
ATOM     31  C   UNL     1     -16.345   4.931   0.956  0.00  0.00    +0.000 A 
ATOM     32  C   UNL     1     -16.210   3.907   0.037  0.00  0.00    +0.000 A 
ATOM     33  C   UNL     1     -15.356   2.852   0.297  0.00  0.00    +0.007 A 
ENDBRANCH  27  28
ENDBRANCH  26  27
ENDBRANCH  23  26
ENDBRANCH  21  22
BRANCH  21  34
ATOM     34  C   UNL     1      -9.210  -0.767   0.022  0.00  0.00    +0.067 C 
BRANCH  34  35
ATOM     35  C   UNL     1     -10.516  -1.516   0.101  0.00  0.00    -0.045 A 
ATOM     36  C   UNL     1     -10.600  -2.682   0.838  0.00  0.00    +0.004 A 
ATOM     37  C   UNL     1     -11.799  -3.366   0.915  0.00  0.00    +0.000 A 
ATOM     38  C   UNL     1     -12.911  -2.889   0.246  0.00  0.00    +0.000 A 
ATOM     39  C   UNL     1     -12.825  -1.726  -0.495  0.00  0.00    +0.000 A 
ATOM     40  C   UNL     1     -11.627  -1.039  -0.568  0.00  0.00    +0.004 A 
ENDBRANCH  34  35
ENDBRANCH  21  34
ENDBRANCH   2  21
TORSDOF 12
