REMARK  Name = ZINC34675675
REMARK  7 active torsions:
REMARK  status: ('A' for Active; 'I' for Inactive)
REMARK    1  A    between atoms: C_4  and  N_7
REMARK    2  A    between atoms: N_7  and  C_8
REMARK    3  A    between atoms: N_7  and  S_24
REMARK    4  A    between atoms: N_11  and  C_14
REMARK    5  A    between atoms: C_14  and  C_15
REMARK    6  A    between atoms: C_20  and  N_21
REMARK    7  A    between atoms: S_24  and  C_27
REMARK                            x       y       z     vdW  Elec       q    Type
REMARK                         _______ _______ _______ _____ _____    ______ ____
ROOT
ATOM      1  N   UNL     1       3.956  -0.968  -0.556  0.00  0.00    -0.200 N 
ENDROOT
BRANCH   1   2
ATOM      2  C   UNL     1       3.986  -2.220   0.204  0.00  0.00    +0.095 C 
ATOM      3  C   UNL     1       3.517  -1.959   1.639  0.00  0.00    +0.006 C 
ATOM      4  C   UNL     1       3.474  -3.283   2.404  0.00  0.00    -0.077 C 
ATOM      5  N   UNL     1       2.543  -4.205   1.743  0.00  0.00    +0.383 N 
ATOM      6  C   UNL     1       3.025  -4.516   0.392  0.00  0.00    -0.077 C 
ATOM      7  C   UNL     1       3.050  -3.240  -0.451  0.00  0.00    +0.006 C 
ATOM      8  H   UNL     1       1.632  -3.776   1.684  0.00  0.00    -0.081 HD
BRANCH   5   9
ATOM      9  C   UNL     1       2.447  -5.445   2.525  0.00  0.00    -0.041 C 
BRANCH   9  10
ATOM     10  C   UNL     1       1.380  -6.330   1.933  0.00  0.00    -0.034 A 
ATOM     11  C   UNL     1       1.736  -7.407   1.142  0.00  0.00    +0.004 A 
ATOM     12  C   UNL     1       0.758  -8.219   0.600  0.00  0.00    +0.000 A 
ATOM     13  C   UNL     1      -0.576  -7.955   0.848  0.00  0.00    +0.002 A 
ATOM     14  C   UNL     1      -0.932  -6.879   1.640  0.00  0.00    +0.033 A 
ATOM     15  C   UNL     1       0.047  -6.069   2.186  0.00  0.00    +0.128 A 
BRANCH  15  16
ATOM     16  N   UNL     1      -0.334  -4.920   3.038  0.00  0.00    +0.057 N 
ATOM     17  O   UNL     1      -1.496  -4.728   3.310  0.00  0.00    -0.126 OA
ATOM     18  O   UNL     1       0.518  -4.173   3.462  0.00  0.00    -0.126 OA
ENDBRANCH  15  16
ENDBRANCH   9  10
ENDBRANCH   5   9
ENDBRANCH   1   2
BRANCH   1  22
ATOM     19  C   UNL     1       0.378   1.115  -0.999  0.00  0.00    +0.000 A 
ATOM     20  C   UNL     1       1.014   1.090   0.228  0.00  0.00    +0.002 A 
ATOM     21  C   UNL     1       2.201   0.400   0.379  0.00  0.00    +0.025 A 
ATOM     22  C   UNL     1       2.756  -0.269  -0.705  0.00  0.00    +0.052 A 
ATOM     23  C   UNL     1       2.114  -0.242  -1.937  0.00  0.00    +0.025 A 
ATOM     24  C   UNL     1       0.927   0.450  -2.080  0.00  0.00    +0.002 A 
ENDBRANCH   1  22
BRANCH   1  25
ATOM     25  S   UNL     1       5.346  -0.381  -1.240  0.00  0.00    +0.075 S 
ATOM     26  O   UNL     1       6.160  -1.507  -1.536  0.00  0.00    -0.150 OA
ATOM     27  O   UNL     1       4.946   0.553  -2.233  0.00  0.00    -0.150 OA
BRANCH  25  28
ATOM     28  C   UNL     1       6.191   0.537   0.004  0.00  0.00    +0.109 A 
ATOM     29  C   UNL     1       5.861   1.861   0.230  0.00  0.00    +0.031 A 
ATOM     30  C   UNL     1       6.523   2.582   1.206  0.00  0.00    +0.040 A 
ATOM     31  C   UNL     1       7.516   1.978   1.957  0.00  0.00    +0.124 A 
ATOM     32  C   UNL     1       7.846   0.652   1.730  0.00  0.00    +0.040 A 
ATOM     33  C   UNL     1       7.179  -0.068   0.758  0.00  0.00    +0.031 A 
ATOM     34  F   UNL     1       8.164   2.682   2.911  0.00  0.00    -0.205 F 
ENDBRANCH  25  28
ENDBRANCH   1  25
TORSDOF 7
