REMARK  Name = ZINC20849750
REMARK  6 active torsions:
REMARK  status: ('A' for Active; 'I' for Inactive)
REMARK    1  A    between atoms: C_1  and  C_2
REMARK    2  A    between atoms: C_2  and  O_3
REMARK    3  A    between atoms: O_3  and  C_4
REMARK    4  A    between atoms: C_14  and  C_16
REMARK    5  A    between atoms: C_25  and  C_29
REMARK    6  A    between atoms: C_25  and  C_30
REMARK                            x       y       z     vdW  Elec       q    Type
REMARK                         _______ _______ _______ _____ _____    ______ ____
ROOT
ATOM      1  C   UNL     1      -0.001   0.002   0.031  0.00  0.00    +0.122 A 
ATOM      2  C   UNL     1      -0.018   1.394   0.016  0.00  0.00    +0.048 A 
ATOM      3  C   UNL     1       1.141   2.123   0.001  0.00  0.00    +0.032 A 
ATOM      4  C   UNL     1       2.401   1.481   0.000  0.00  0.00    +0.081 A 
ATOM      5  C   UNL     1       2.383   0.068   0.015  0.00  0.00    +0.044 A 
ATOM      6  C   UNL     1       1.218  -0.659   0.031  0.00  0.00    +0.063 A 
ATOM      7  S   UNL     1       4.114  -0.333   0.009  0.00  0.00    -0.052 S 
ATOM      8  C   UNL     1       4.733   1.343  -0.013  0.00  0.00    +0.166 A 
ATOM      9  N   UNL     1       3.627   2.050  -0.014  0.00  0.00    -0.225 NA
ATOM     10  N   UNL     1       6.045   1.784  -0.026  0.00  0.00    -0.260 N 
ATOM     11  C   UNL     1       6.312   3.105  -0.042  0.00  0.00    +0.255 C 
ATOM     12  O   UNL     1       5.404   3.908  -0.139  0.00  0.00    -0.270 OA
ATOM     13  H   UNL     1       6.870   1.056  -0.023  0.00  0.00    +0.157 HD
ENDROOT
BRANCH  11  14
ATOM     14  C   UNL     1       7.702   3.576   0.059  0.00  0.00    +0.102 A 
ATOM     15  C   UNL     1       7.991   4.930   0.163  0.00  0.00    +0.031 A 
ATOM     16  C   UNL     1       9.340   5.333   0.261  0.00  0.00    +0.038 A 
ATOM     17  C   UNL     1      10.360   4.397   0.252  0.00  0.00    +0.030 A 
ATOM     18  N   UNL     1      10.081   3.083   0.143  0.00  0.00    -0.325 N 
ATOM     19  H   UNL     1      10.898   2.346   0.132  0.00  0.00    +0.169 HD
ATOM     20  C   UNL     1       8.821   2.629   0.045  0.00  0.00    +0.261 A 
ATOM     21  O   UNL     1       8.608   1.434  -0.054  0.00  0.00    -0.267 OA
ATOM     22  C   UNL     1      11.805   4.809   0.370  0.00  0.00    +0.060 C 
ATOM     23  C   UNL     1      12.008   6.255  -0.072  0.00  0.00    -0.023 C 
ATOM     24  C   UNL     1      11.065   7.165   0.726  0.00  0.00    +0.086 C 
ATOM     25  C   UNL     1       9.649   6.770   0.366  0.00  0.00    +0.165 C 
ATOM     26  O   UNL     1       8.796   7.610   0.170  0.00  0.00    -0.292 OA
ATOM     27  C   UNL     1      13.458   6.670   0.186  0.00  0.00    +0.011 C 
ATOM     28  C   UNL     1      11.699   6.381  -1.565  0.00  0.00    +0.011 C 
ENDBRANCH  11  14
BRANCH   1  29
ATOM     29  O   UNL     1      -1.165  -0.701   0.046  0.00  0.00    -0.492 OA
BRANCH  29  31
ATOM     30  C   UNL     1      -3.573  -0.901   0.064  0.00  0.00    +0.048 C 
ATOM     31  C   UNL     1      -2.378   0.054   0.046  0.00  0.00    +0.225 C 
ENDBRANCH  29  31
ENDBRANCH   1  29
TORSDOF 3
