REMARK  Name = ZINC14290577
REMARK  9 active torsions:
REMARK  status: ('A' for Active; 'I' for Inactive)
REMARK    1  A    between atoms: C_1  and  C_2
REMARK    2  A    between atoms: C_2  and  C_3
REMARK    3  A    between atoms: C_2  and  C_4
REMARK    4  A    between atoms: C_4  and  C_5
REMARK    5  A    between atoms: C_8  and  C_11
REMARK    6  A    between atoms: C_14  and  C_16
REMARK    7  A    between atoms: C_16  and  C_17
REMARK    8  A    between atoms: C_17  and  C_18
REMARK    9  A    between atoms: N_20  and  N_21
REMARK                            x       y       z     vdW  Elec       q    Type
REMARK                         _______ _______ _______ _____ _____    ______ ____
ROOT
ATOM      1  C   UNL     1      -2.482   0.853   0.018  0.00  0.00    +0.106 C 
ENDROOT
BRANCH   1   2
ATOM      2  C   UNL     1      -1.187   1.624   0.017  0.00  0.00    +0.230 C 
ATOM      3  O   UNL     1      -1.204   2.837   0.023  0.00  0.00    -0.274 OA
ATOM      4  N   UNL     1      -0.011   0.966   0.007  0.00  0.00    -0.224 N 
ATOM      5  H   UNL     1       0.002  -0.004   0.002  0.00  0.00    +0.174 HD
BRANCH   4   6
ATOM      6  N   UNL     1       1.193   1.683  -0.000  0.00  0.00    -0.137 N 
ATOM      7  C   UNL     1       2.002   1.817   1.071  0.00  0.00    +0.263 C 
ATOM      8  O   UNL     1       1.834   1.358   2.180  0.00  0.00    -0.271 OA
ATOM      9  C   UNL     1       3.163   2.660   0.596  0.00  0.00    +0.114 C 
ATOM     10  C   UNL     1       4.469   1.881   0.716  0.00  0.00    +0.035 C 
ATOM     11  C   UNL     1       5.628   2.741   0.204  0.00  0.00    +0.003 C 
ATOM     12  C   UNL     1       5.706   4.030   1.025  0.00  0.00    +0.000 C 
ATOM     13  C   UNL     1       4.399   4.811   0.874  0.00  0.00    +0.003 C 
ATOM     14  C   UNL     1       3.235   3.960   1.389  0.00  0.00    +0.035 C 
ATOM     15  N   UNL     1       2.854   2.932  -0.814  0.00  0.00    -0.284 N 
ATOM     16  C   UNL     1       1.685   2.315  -1.073  0.00  0.00    +0.326 C 
ATOM     17  O   UNL     1       1.137   2.333  -2.157  0.00  0.00    -0.251 OA
ATOM     18  H   UNL     1       3.388   3.450  -1.436  0.00  0.00    +0.151 HD
ENDBRANCH   4   6
ENDBRANCH   1   2
BRANCH   1  19
ATOM     19  C   UNL     1      -3.658   1.831   0.029  0.00  0.00    +0.105 C 
BRANCH  19  23
ATOM     20  C   UNL     1      -6.731   0.008  -0.645  0.00  0.00    +0.155 A 
ATOM     21  C   UNL     1      -6.705   0.012   0.713  0.00  0.00    +0.161 A 
ATOM     22  N   UNL     1      -5.598   0.667   1.094  0.00  0.00    -0.221 NA
ATOM     23  C   UNL     1      -4.953   1.060   0.031  0.00  0.00    +0.197 A 
ATOM     24  O   UNL     1      -5.629   0.672  -1.059  0.00  0.00    -0.440 OA
BRANCH  20  28
ATOM     25  C   UNL     1      -9.709  -1.743  -3.116  0.00  0.00    -0.047 A 
ATOM     26  C   UNL     1      -9.823  -1.821  -1.739  0.00  0.00    +0.004 A 
ATOM     27  C   UNL     1      -8.859  -1.255  -0.931  0.00  0.00    +0.012 A 
ATOM     28  C   UNL     1      -7.767  -0.602  -1.505  0.00  0.00    +0.019 A 
ATOM     29  C   UNL     1      -7.661  -0.521  -2.894  0.00  0.00    +0.012 A 
ATOM     30  C   UNL     1      -8.630  -1.096  -3.691  0.00  0.00    +0.004 A 
BRANCH  25  31
ATOM     31  C   UNL     1     -10.766  -2.363  -3.992  0.00  0.00    +0.038 C 
BRANCH  31  33
ATOM     32  C   UNL     1     -11.276  -0.183  -5.102  0.00  0.00    +0.007 C 
ATOM     33  C   UNL     1     -11.861  -1.333  -4.279  0.00  0.00    -0.013 C 
ATOM     34  C   UNL     1     -12.993  -1.997  -5.063  0.00  0.00    +0.007 C 
ENDBRANCH  31  33
ENDBRANCH  25  31
ENDBRANCH  20  28
ENDBRANCH  19  23
ENDBRANCH   1  19
TORSDOF 7
