REMARK  Name = ZINC39604487
REMARK  11 active torsions:
REMARK  status: ('A' for Active; 'I' for Inactive)
REMARK    1  A    between atoms: C_1  and  C_2
REMARK    2  A    between atoms: C_2  and  O_3
REMARK    3  A    between atoms: O_3  and  C_4
REMARK    4  A    between atoms: C_4  and  C_5
REMARK    5  A    between atoms: C_5  and  C_6
REMARK    6  A    between atoms: C_6  and  N_7
REMARK    7  A    between atoms: C_8  and  C_10
REMARK    8  A    between atoms: C_21  and  C_23
REMARK    9  A    between atoms: C_29  and  O_31
REMARK   10  A    between atoms: O_31  and  C_32
REMARK   11  A    between atoms: C_32  and  C_33
REMARK                            x       y       z     vdW  Elec       q    Type
REMARK                         _______ _______ _______ _____ _____    ______ ____
ROOT
ATOM      1  C   UNL     1       3.170  -5.820  -5.499  0.00  0.00    +0.100 C 
ATOM      2  C   UNL     1       2.320  -5.438  -6.732  0.00  0.00    +0.121 C 
ATOM      3  N   UNL     1       2.553  -6.535  -7.701  0.00  0.00    -0.300 N 
ATOM      4  C   UNL     1       2.581  -7.762  -6.869  0.00  0.00    +0.115 C 
ATOM      5  C   UNL     1       3.338  -7.346  -5.592  0.00  0.00    -0.004 C 
ATOM      6  C   UNL     1       2.722  -8.021  -4.371  0.00  0.00    -0.010 C 
ATOM      7  C   UNL     1       2.953  -9.532  -4.457  0.00  0.00    -0.082 C 
ATOM      8  N   UNL     1       4.394  -9.806  -4.519  0.00  0.00    +0.379 N 
ATOM      9  C   UNL     1       4.961  -9.232  -5.745  0.00  0.00    -0.082 C 
ATOM     10  C   UNL     1       4.815  -7.708  -5.713  0.00  0.00    -0.010 C 
ATOM     11  C   UNL     1       2.704  -6.439  -9.037  0.00  0.00    +0.219 C 
ATOM     12  O   UNL     1       2.889  -7.438  -9.699  0.00  0.00    -0.275 OA
ATOM     13  H   UNL     1       4.847  -9.396  -3.716  0.00  0.00    -0.086 HD
ATOM     14  H   UNL     1       4.546 -10.804  -4.514  0.00  0.00    -0.086 HD
ENDROOT
BRANCH  11  15
ATOM     15  C   UNL     1       2.645  -5.090  -9.707  0.00  0.00    +0.078 C 
ATOM     16  C   UNL     1       1.281  -4.449  -9.441  0.00  0.00    +0.032 C 
ATOM     17  C   UNL     1       1.237  -3.064 -10.094  0.00  0.00    +0.112 C 
ATOM     18  N   UNL     1       1.572  -3.202 -11.518  0.00  0.00    -0.267 N 
ATOM     19  C   UNL     1       2.819  -3.885 -11.888  0.00  0.00    +0.112 C 
ATOM     20  C   UNL     1       2.845  -5.261 -11.214  0.00  0.00    +0.032 C 
ATOM     21  C   UNL     1       0.750  -2.711 -12.467  0.00  0.00    +0.403 C 
ATOM     22  O   UNL     1      -0.279  -2.148 -12.149  0.00  0.00    -0.226 OA
BRANCH  21  23
ATOM     23  O   UNL     1       1.069  -2.844 -13.768  0.00  0.00    -0.445 OA
BRANCH  23  24
ATOM     24  C   UNL     1       0.153  -2.300 -14.720  0.00  0.00    +0.269 C 
BRANCH  24  25
ATOM     25  C   UNL     1       0.673  -2.543 -16.114  0.00  0.00    -0.010 A 
ATOM     26  C   UNL     1       1.499  -1.611 -16.715  0.00  0.00    +0.007 A 
ATOM     27  C   UNL     1       1.977  -1.834 -17.993  0.00  0.00    +0.000 A 
ATOM     28  C   UNL     1       1.628  -2.987 -18.670  0.00  0.00    +0.000 A 
ATOM     29  C   UNL     1       0.803  -3.919 -18.069  0.00  0.00    +0.000 A 
ATOM     30  C   UNL     1       0.329  -3.699 -16.789  0.00  0.00    +0.007 A 
ENDBRANCH  24  25
ENDBRANCH  23  24
ENDBRANCH  21  23
ENDBRANCH  11  15
BRANCH   1  32
ATOM     31  N   UNL     1       3.151  -5.144  -3.120  0.00  0.00    -0.315 N 
ATOM     32  C   UNL     1       2.449  -5.448  -4.229  0.00  0.00    +0.218 C 
ATOM     33  O   UNL     1       1.236  -5.423  -4.205  0.00  0.00    -0.275 OA
ATOM     34  H   UNL     1       4.121  -5.164  -3.139  0.00  0.00    +0.149 HD
BRANCH  31  35
ATOM     35  C   UNL     1       2.450  -4.782  -1.885  0.00  0.00    +0.106 C 
BRANCH  35  36
ATOM     36  C   UNL     1       3.472  -4.486  -0.786  0.00  0.00    +0.047 C 
BRANCH  36  37
ATOM     37  C   UNL     1       2.740  -4.108   0.503  0.00  0.00    +0.161 C 
BRANCH  37  38
ATOM     38  O   UNL     1       3.695  -3.831   1.529  0.00  0.00    -0.380 OA
BRANCH  38  40
ATOM     39  C   UNL     1       4.222  -3.194   3.800  0.00  0.00    +0.034 C 
ATOM     40  C   UNL     1       3.112  -3.466   2.782  0.00  0.00    +0.156 C 
ENDBRANCH  38  40
ENDBRANCH  37  38
ENDBRANCH  36  37
ENDBRANCH  35  36
ENDBRANCH  31  35
ENDBRANCH   1  32
TORSDOF 10
