REMARK  Name = ZINC09972479
REMARK  12 active torsions:
REMARK  status: ('A' for Active; 'I' for Inactive)
REMARK    1  A    between atoms: C_1  and  C_2
REMARK    2  A    between atoms: C_2  and  C_3
REMARK    3  A    between atoms: C_8  and  N_9
REMARK    4  A    between atoms: C_13  and  C_14
REMARK    5  A    between atoms: C_17  and  O_22
REMARK    6  A    between atoms: C_18  and  O_20
REMARK    7  A    between atoms: O_20  and  C_21
REMARK    8  A    between atoms: O_22  and  C_23
REMARK    9  A    between atoms: C_23  and  C_24
REMARK   10  A    between atoms: C_27  and  C_29
REMARK   11  A    between atoms: C_29  and  O_31
REMARK   12  A    between atoms: O_31  and  C_32
REMARK                            x       y       z     vdW  Elec       q    Type
REMARK                         _______ _______ _______ _____ _____    ______ ____
ROOT
ATOM      1  N   UNL     1       2.864  -3.686   1.945  0.00  0.00    -0.190 N 
ATOM      2  C   UNL     1       2.661  -2.518   1.301  0.00  0.00    +0.263 C 
ATOM      3  O   UNL     1       1.557  -2.007   1.267  0.00  0.00    -0.269 OA
ATOM      4  C   UNL     1       3.814  -1.876   0.641  0.00  0.00    +0.100 C 
ATOM      5  C   UNL     1       3.684  -0.679  -0.037  0.00  0.00    +0.026 C 
ATOM      6  C   UNL     1       5.113  -2.573   0.732  0.00  0.00    +0.257 C 
ATOM      7  O   UNL     1       6.109  -2.110   0.210  0.00  0.00    -0.270 OA
ATOM      8  N   UNL     1       5.165  -3.735   1.416  0.00  0.00    -0.235 N 
ATOM      9  C   UNL     1       4.074  -4.260   1.991  0.00  0.00    +0.320 C 
ATOM     10  O   UNL     1       4.189  -5.313   2.587  0.00  0.00    -0.251 OA
ATOM     11  H   UNL     1       6.011  -4.204   1.489  0.00  0.00    +0.159 HD
ENDROOT
BRANCH   1  17
ATOM     12  C   UNL     1       1.497  -4.031   3.908  0.00  0.00    -0.026 A 
ATOM     13  C   UNL     1       0.428  -4.647   4.529  0.00  0.00    +0.005 A 
ATOM     14  C   UNL     1      -0.348  -5.554   3.833  0.00  0.00    +0.000 A 
ATOM     15  C   UNL     1      -0.062  -5.843   2.511  0.00  0.00    +0.002 A 
ATOM     16  C   UNL     1       1.002  -5.226   1.883  0.00  0.00    +0.024 A 
ATOM     17  C   UNL     1       1.784  -4.314   2.580  0.00  0.00    +0.049 A 
BRANCH  12  19
ATOM     18  C   UNL     1       1.841  -1.627   4.410  0.00  0.00    +0.009 C 
ATOM     19  C   UNL     1       2.348  -3.047   4.670  0.00  0.00    +0.033 C 
ENDBRANCH  12  19
ENDBRANCH   1  17
BRANCH   5  20
ATOM     20  C   UNL     1       2.354  -0.133  -0.307  0.00  0.00    -0.020 A 
ATOM     21  C   UNL     1       1.339  -0.964  -0.804  0.00  0.00    +0.012 A 
ATOM     22  C   UNL     1       0.090  -0.446  -1.058  0.00  0.00    +0.050 A 
ATOM     23  C   UNL     1      -0.171   0.899  -0.822  0.00  0.00    +0.163 A 
ATOM     24  C   UNL     1       0.833   1.733  -0.327  0.00  0.00    +0.162 A 
ATOM     25  C   UNL     1       2.089   1.224  -0.070  0.00  0.00    +0.057 A 
BRANCH  24  26
ATOM     26  O   UNL     1       0.573   3.048  -0.099  0.00  0.00    -0.491 OA
ATOM     27  C   UNL     1       1.646   3.844   0.408  0.00  0.00    +0.277 C 
ENDBRANCH  24  26
BRANCH  23  28
ATOM     28  O   UNL     1      -1.404   1.404  -1.079  0.00  0.00    -0.481 OA
BRANCH  28  29
ATOM     29  C   UNL     1      -2.383   0.497  -1.589  0.00  0.00    +0.303 C 
BRANCH  29  30
ATOM     30  C   UNL     1      -3.680   1.231  -1.813  0.00  0.00    +0.143 A 
ATOM     31  C   UNL     1      -4.045   1.855  -2.955  0.00  0.00    +0.049 A 
ATOM     32  C   UNL     1      -5.317   2.405  -2.737  0.00  0.00    +0.057 A 
ATOM     33  C   UNL     1      -5.669   2.086  -1.456  0.00  0.00    +0.212 A 
ATOM     34  O   UNL     1      -4.663   1.368  -0.914  0.00  0.00    -0.450 OA
BRANCH  33  35
ATOM     35  C   UNL     1      -6.920   2.454  -0.789  0.00  0.00    +0.375 C 
ATOM     36  O   UNL     1      -7.758   3.103  -1.385  0.00  0.00    -0.241 OA
BRANCH  35  37
ATOM     37  O   UNL     1      -7.143   2.073   0.485  0.00  0.00    -0.462 OA
ATOM     38  C   UNL     1      -8.405   2.473   1.082  0.00  0.00    +0.280 C 
ENDBRANCH  35  37
ENDBRANCH  33  35
ENDBRANCH  29  30
ENDBRANCH  28  29
ENDBRANCH  23  28
ENDBRANCH   5  20
TORSDOF 9
