REMARK  Name = ZINC20783409
REMARK  9 active torsions:
REMARK  status: ('A' for Active; 'I' for Inactive)
REMARK    1  A    between atoms: C_1  and  C_2
REMARK    2  A    between atoms: C_2  and  C_4
REMARK    3  A    between atoms: C_2  and  N_9
REMARK    4  A    between atoms: C_10  and  C_12
REMARK    5  A    between atoms: C_15  and  C_20
REMARK    6  A    between atoms: C_20  and  N_21
REMARK    7  A    between atoms: N_24  and  C_27
REMARK    8  A    between atoms: C_27  and  C_28
REMARK    9  A    between atoms: C_29  and  C_30
REMARK                            x       y       z     vdW  Elec       q    Type
REMARK                         _______ _______ _______ _____ _____    ______ ____
ROOT
ATOM      1  C   UNL     1      -2.626   1.933  -5.732  0.00  0.00    +0.101 A 
ATOM      2  C   UNL     1      -1.357   2.503  -5.656  0.00  0.00    +0.020 A 
ATOM      3  C   UNL     1      -0.549   2.206  -4.559  0.00  0.00    +0.023 A 
ATOM      4  C   UNL     1      -0.995   1.365  -3.591  0.00  0.00    +0.033 A 
ATOM      5  N   UNL     1      -2.228   0.808  -3.658  0.00  0.00    -0.324 N 
ATOM      6  H   UNL     1      -2.571   0.133  -2.860  0.00  0.00    +0.169 HD
ATOM      7  C   UNL     1      -3.050   1.065  -4.693  0.00  0.00    +0.261 A 
ATOM      8  O   UNL     1      -4.156   0.554  -4.736  0.00  0.00    -0.267 OA
ENDROOT
BRANCH   1  10
ATOM      9  N   UNL     1      -4.686   1.579  -6.994  0.00  0.00    -0.304 N 
ATOM     10  C   UNL     1      -3.511   2.226  -6.870  0.00  0.00    +0.250 C 
ATOM     11  O   UNL     1      -3.181   3.052  -7.700  0.00  0.00    -0.270 OA
ATOM     12  H   UNL     1      -5.024   0.894  -6.202  0.00  0.00    +0.150 HD
BRANCH   9  14
ATOM     13  C   UNL     1      -6.387   3.029  -7.987  0.00  0.00    +0.033 C 
ATOM     14  C   UNL     1      -5.516   1.787  -8.184  0.00  0.00    +0.107 C 
BRANCH  14  15
ATOM     15  C   UNL     1      -6.397   0.584  -8.399  0.00  0.00    +0.010 A 
ATOM     16  C   UNL     1      -6.734  -0.032  -9.559  0.00  0.00    +0.013 A 
ATOM     17  C   UNL     1      -7.566  -1.134  -9.516  0.00  0.00    +0.008 A 
ATOM     18  C   UNL     1      -8.022  -1.567  -8.315  0.00  0.00    +0.045 A 
ATOM     19  S   UNL     1      -7.262  -0.406  -7.191  0.00  0.00    -0.100 S 
ENDBRANCH  14  15
ENDBRANCH   9  14
ENDBRANCH   1  10
BRANCH   4  20
ATOM     20  C   UNL     1      -0.106   1.052  -2.415  0.00  0.00    +0.137 C 
BRANCH  20  21
ATOM     21  N   UNL     1      -0.711   1.585  -1.187  0.00  0.00    -0.300 NA
ATOM     22  C   UNL     1      -0.000   1.099   0.004  0.00  0.00    +0.066 C 
ATOM     23  C   UNL     1      -0.707   1.610   1.261  0.00  0.00    -0.063 C 
ATOM     24  N   UNL     1      -0.744   3.079   1.236  0.00  0.00    +0.384 N 
ATOM     25  C   UNL     1      -1.454   3.565   0.045  0.00  0.00    -0.063 C 
ATOM     26  C   UNL     1      -0.747   3.054  -1.212  0.00  0.00    +0.066 C 
ATOM     27  H   UNL     1       0.293   3.444   1.185  0.00  0.00    -0.081 HD
BRANCH  24  28
ATOM     28  C   UNL     1      -1.349   3.612   2.464  0.00  0.00    -0.051 C 
BRANCH  28  29
ATOM     29  C   UNL     1      -0.459   3.299   3.639  0.00  0.00    -0.045 C 
ATOM     30  C   UNL     1      -0.037   4.275   4.430  0.00  0.00    +0.002 C 
BRANCH  30  31
ATOM     31  C   UNL     1       0.835   3.967   5.583  0.00  0.00    -0.025 A 
ATOM     32  C   UNL     1       1.212   2.650   5.845  0.00  0.00    +0.008 A 
ATOM     33  C   UNL     1       2.031   2.370   6.919  0.00  0.00    +0.001 A 
ATOM     34  C   UNL     1       2.470   3.391   7.743  0.00  0.00    +0.000 A 
ATOM     35  C   UNL     1       2.095   4.699   7.492  0.00  0.00    +0.001 A 
ATOM     36  C   UNL     1       1.281   4.993   6.418  0.00  0.00    +0.008 A 
ENDBRANCH  30  31
ENDBRANCH  28  29
ENDBRANCH  24  28
ENDBRANCH  20  21
ENDBRANCH   4  20
TORSDOF 8
