REMARK  Name = ZINC37152672
REMARK  8 active torsions:
REMARK  status: ('A' for Active; 'I' for Inactive)
REMARK    1  A    between atoms: C_1  and  C_2
REMARK    2  A    between atoms: C_2  and  C_4
REMARK    3  A    between atoms: C_2  and  N_13
REMARK    4  A    between atoms: C_4  and  C_5
REMARK    5  A    between atoms: C_5  and  C_6
REMARK    6  A    between atoms: C_9  and  O_12
REMARK    7  A    between atoms: N_13  and  C_14
REMARK    8  A    between atoms: C_17  and  C_20
REMARK                            x       y       z     vdW  Elec       q    Type
REMARK                         _______ _______ _______ _____ _____    ______ ____
ROOT
ATOM      1  N   UNL     1       0.814  -0.489   1.126  0.00  0.00    +0.383 N 
ATOM      2  H   UNL     1       0.452  -0.249   2.037  0.00  0.00    -0.085 HD
ATOM      3  H   UNL     1       0.816  -1.492   1.019  0.00  0.00    -0.085 HD
ENDROOT
BRANCH   1   4
ATOM      4  C   UNL     1       2.186   0.020   0.995  0.00  0.00    -0.071 C 
ATOM      5  C   UNL     1       3.031  -0.485   2.166  0.00  0.00    -0.015 C 
ATOM      6  C   UNL     1       4.460   0.045   2.030  0.00  0.00    +0.011 C 
ATOM      7  C   UNL     1       5.064  -0.449   0.714  0.00  0.00    +0.075 C 
ATOM      8  C   UNL     1       4.218   0.056  -0.457  0.00  0.00    +0.011 C 
ATOM      9  C   UNL     1       2.789  -0.474  -0.321  0.00  0.00    -0.015 C 
BRANCH   7  10
ATOM     10  C   UNL     1       6.471   0.073   0.579  0.00  0.00    +0.214 C 
ATOM     11  O   UNL     1       6.944   0.772   1.450  0.00  0.00    -0.276 OA
ATOM     12  N   UNL     1       7.204  -0.237  -0.509  0.00  0.00    -0.329 N 
ATOM     13  H   UNL     1       6.825  -0.796  -1.205  0.00  0.00    +0.145 HD
ATOM     14  H   UNL     1       8.109   0.099  -0.595  0.00  0.00    +0.145 HD
ENDBRANCH   7  10
ENDBRANCH   1   4
BRANCH   1  16
ATOM     15  C   UNL     1      -0.151   1.619   0.335  0.00  0.00    -0.014 C 
ATOM     16  C   UNL     1      -0.033   0.113   0.088  0.00  0.00    -0.074 C 
BRANCH  16  17
ATOM     17  C   UNL     1      -1.425  -0.521   0.134  0.00  0.00    -0.011 C 
BRANCH  17  18
ATOM     18  C   UNL     1      -1.322  -2.002  -0.236  0.00  0.00    +0.033 C 
BRANCH  18  19
ATOM     19  C   UNL     1      -2.693  -2.627  -0.191  0.00  0.00    -0.047 A 
ATOM     20  C   UNL     1      -3.159  -3.185   0.985  0.00  0.00    +0.007 A 
ATOM     21  C   UNL     1      -4.415  -3.759   1.029  0.00  0.00    +0.045 A 
ATOM     22  C   UNL     1      -5.209  -3.775  -0.108  0.00  0.00    +0.117 A 
ATOM     23  C   UNL     1      -4.739  -3.214  -1.287  0.00  0.00    +0.045 A 
ATOM     24  C   UNL     1      -3.485  -2.636  -1.324  0.00  0.00    +0.007 A 
BRANCH  22  25
ATOM     25  O   UNL     1      -6.445  -4.339  -0.068  0.00  0.00    -0.507 OA
ATOM     26  H   UNL     1      -7.150  -3.724   0.176  0.00  0.00    +0.292 HD
ENDBRANCH  22  25
ENDBRANCH  18  19
ENDBRANCH  17  18
ENDBRANCH  16  17
ENDBRANCH   1  16
TORSDOF 7
