REMARK  Name = ZINC19372324
REMARK  3 active torsions:
REMARK  status: ('A' for Active; 'I' for Inactive)
REMARK    1  A    between atoms: C_4  and  C_7
REMARK    2  A    between atoms: C_7  and  N_8
REMARK    3  A    between atoms: C_26  and  C_29
REMARK                            x       y       z     vdW  Elec       q    Type
REMARK                         _______ _______ _______ _____ _____    ______ ____
ROOT
ATOM      1  N   UNL     1      -7.081   4.926   2.020  0.00  0.00    -0.293 NA
ATOM      2  C   UNL     1      -7.172   4.149   0.774  0.00  0.00    +0.091 C 
ATOM      3  C   UNL     1      -5.822   4.215   0.057  0.00  0.00    +0.071 C 
ATOM      4  C   UNL     1      -4.716   3.861   1.016  0.00  0.00    +0.054 A 
ATOM      5  C   UNL     1      -4.911   3.869   2.377  0.00  0.00    +0.026 A 
ATOM      6  C   UNL     1      -3.837   3.535   3.209  0.00  0.00    +0.107 A 
ATOM      7  N   UNL     1      -2.670   3.214   2.660  0.00  0.00    -0.316 N 
ATOM      8  C   UNL     1      -2.523   3.220   1.344  0.00  0.00    +0.197 A 
ATOM      9  N   UNL     1      -3.522   3.534   0.534  0.00  0.00    -0.220 NA
ATOM     10  N   UNL     1      -1.293   2.891   0.801  0.00  0.00    -0.301 N 
ATOM     11  C   UNL     1      -0.881   1.530   1.208  0.00  0.00    +0.108 C 
ATOM     12  C   UNL     1      -0.097   0.974  -0.007  0.00  0.00    +0.020 C 
ATOM     13  C   UNL     1      -0.902   1.563  -1.196  0.00  0.00    +0.020 C 
ATOM     14  C   UNL     1      -1.332   2.949  -0.672  0.00  0.00    +0.108 C 
ATOM     15  N   UNL     1      -3.987   3.539   4.586  0.00  0.00    -0.316 N 
ATOM     16  C   UNL     1      -3.088   4.518   5.211  0.00  0.00    +0.106 C 
ATOM     17  C   UNL     1      -3.383   4.599   6.711  0.00  0.00    +0.020 C 
ATOM     18  C   UNL     1      -3.182   3.218   7.341  0.00  0.00    +0.016 C 
ATOM     19  C   UNL     1      -4.095   2.208   6.640  0.00  0.00    +0.092 C 
ATOM     20  C   UNL     1      -3.779   2.196   5.142  0.00  0.00    +0.119 C 
ATOM     21  C   UNL     1      -6.232   4.235   2.994  0.00  0.00    +0.125 C 
ATOM     22  H   UNL     1      -1.824   2.942   3.307  0.00  0.00    +0.170 HD
ENDROOT
BRANCH  19  23
ATOM     23  C   UNL     1      -3.860   0.835   7.214  0.00  0.00    +0.215 C 
ATOM     24  O   UNL     1      -3.478  -0.066   6.497  0.00  0.00    -0.276 OA
ATOM     25  N   UNL     1      -4.075   0.607   8.525  0.00  0.00    -0.329 N 
ATOM     26  H   UNL     1      -3.903  -0.396   8.944  0.00  0.00    +0.145 HD
ATOM     27  H   UNL     1      -4.421   1.423   9.175  0.00  0.00    +0.145 HD
ENDBRANCH  19  23
BRANCH   1  28
ATOM     28  C   UNL     1      -8.416   5.188   2.575  0.00  0.00    +0.120 C 
BRANCH  28  32
ATOM     29  C   UNL     1     -11.003   6.574  -0.529  0.00  0.00    +0.000 A 
ATOM     30  C   UNL     1     -10.904   5.221  -0.264  0.00  0.00    +0.000 A 
ATOM     31  C   UNL     1     -10.067   4.773   0.741  0.00  0.00    +0.005 A 
ATOM     32  C   UNL     1      -9.328   5.677   1.480  0.00  0.00    -0.033 A 
ATOM     33  C   UNL     1      -9.430   7.031   1.218  0.00  0.00    +0.005 A 
ATOM     34  C   UNL     1     -10.264   7.479   0.211  0.00  0.00    +0.000 A 
ENDBRANCH  28  32
ENDBRANCH   1  28
TORSDOF 3
