REMARK  Name = ZINC20874601
REMARK  11 active torsions:
REMARK  status: ('A' for Active; 'I' for Inactive)
REMARK    1  A    between atoms: C_1  and  C_2
REMARK    2  A    between atoms: C_5  and  C_8
REMARK    3  A    between atoms: C_8  and  O_9
REMARK    4  A    between atoms: O_9  and  C_10
REMARK    5  A    between atoms: C_15  and  C_16
REMARK    6  A    between atoms: C_16  and  N_17
REMARK    7  A    between atoms: N_17  and  C_18
REMARK    8  A    between atoms: C_18  and  C_19
REMARK    9  A    between atoms: C_19  and  N_20
REMARK   10  A    between atoms: N_20  and  C_21
REMARK   11  A    between atoms: C_24  and  N_27
REMARK                            x       y       z     vdW  Elec       q    Type
REMARK                         _______ _______ _______ _____ _____    ______ ____
ROOT
ATOM      1  C   UNL     1      -2.553   3.879   0.047  0.00  0.00    -0.043 C 
ENDROOT
BRANCH   1   7
ATOM      2  C   UNL     1      -1.223   1.754   0.017  0.00  0.00    +0.122 A 
ATOM      3  C   UNL     1      -0.013   1.076   0.008  0.00  0.00    +0.047 A 
ATOM      4  C   UNL     1       1.174   1.783   0.000  0.00  0.00    +0.019 A 
ATOM      5  C   UNL     1       1.156   3.167   0.008  0.00  0.00    +0.018 A 
ATOM      6  C   UNL     1      -0.050   3.844   0.024  0.00  0.00    +0.020 A 
ATOM      7  C   UNL     1      -1.239   3.140   0.031  0.00  0.00    -0.022 A 
ATOM      8 BR   UNL     1       2.781   4.132  -0.002  0.00  0.00    -0.050 Br
BRANCH   2   9
ATOM      9  O   UNL     1      -2.392   1.060   0.019  0.00  0.00    -0.487 OA
BRANCH   9  10
ATOM     10  C   UNL     1      -2.299  -0.366   0.011  0.00  0.00    +0.264 C 
BRANCH  10  15
ATOM     11  C   UNL     1      -7.611  -2.642   0.023  0.00  0.00    +0.044 C 
ATOM     12  C   UNL     1      -6.226  -2.049   0.020  0.00  0.00    -0.050 A 
ATOM     13  C   UNL     1      -5.596  -1.769  -1.179  0.00  0.00    +0.004 A 
ATOM     14  C   UNL     1      -4.326  -1.225  -1.182  0.00  0.00    +0.007 A 
ATOM     15  C   UNL     1      -3.685  -0.960   0.014  0.00  0.00    -0.010 A 
ATOM     16  C   UNL     1      -4.312  -1.244   1.213  0.00  0.00    +0.007 A 
ATOM     17  C   UNL     1      -5.585  -1.784   1.216  0.00  0.00    +0.004 A 
ENDBRANCH  10  15
ENDBRANCH   9  10
ENDBRANCH   2   9
ENDBRANCH   1   7
BRANCH   1  18
ATOM     18  N   UNL     1      -3.084   3.902   1.417  0.00  0.00    +0.383 N 
ATOM     19  H   UNL     1      -3.239   2.871   1.767  0.00  0.00    -0.085 HD
ATOM     20  H   UNL     1      -2.369   4.411   2.079  0.00  0.00    -0.085 HD
BRANCH  18  21
ATOM     21  C   UNL     1      -4.367   4.616   1.471  0.00  0.00    -0.063 C 
BRANCH  21  22
ATOM     22  C   UNL     1      -4.888   4.618   2.910  0.00  0.00    +0.082 C 
BRANCH  22  23
ATOM     23  N   UNL     1      -6.168   5.330   2.964  0.00  0.00    -0.346 N 
ATOM     24  H   UNL     1      -6.598   5.759   2.047  0.00  0.00    +0.146 HD
BRANCH  23  25
ATOM     25  C   UNL     1      -6.841   5.464   4.181  0.00  0.00    +0.027 A 
ATOM     26  C   UNL     1      -6.302   4.918   5.338  0.00  0.00    +0.025 A 
ATOM     27  C   UNL     1      -6.968   5.056   6.540  0.00  0.00    +0.034 A 
ATOM     28  C   UNL     1      -8.175   5.729   6.590  0.00  0.00    +0.126 A 
ATOM     29  C   UNL     1      -8.718   6.269   5.438  0.00  0.00    +0.034 A 
ATOM     30  C   UNL     1      -8.054   6.138   4.234  0.00  0.00    +0.025 A 
BRANCH  28  31
ATOM     31  N   UNL     1      -8.889   5.871   7.879  0.00  0.00    +0.056 N 
ATOM     32  O   UNL     1      -9.952   6.463   7.925  0.00  0.00    -0.126 OA
ATOM     33  O   UNL     1      -8.412   5.396   8.894  0.00  0.00    -0.126 OA
ENDBRANCH  28  31
ENDBRANCH  23  25
ENDBRANCH  22  23
ENDBRANCH  21  22
ENDBRANCH  18  21
ENDBRANCH   1  18
TORSDOF 10
