REMARK  Name = ZINC35578434
REMARK  6 active torsions:
REMARK  status: ('A' for Active; 'I' for Inactive)
REMARK    1  A    between atoms: C_1  and  C_2
REMARK    2  A    between atoms: C_2  and  C_3
REMARK    3  A    between atoms: C_2  and  C_4
REMARK    4  A    between atoms: C_7  and  C_10
REMARK    5  A    between atoms: C_12  and  N_27
REMARK    6  A    between atoms: N_13  and  C_26
REMARK                            x       y       z     vdW  Elec       q    Type
REMARK                         _______ _______ _______ _____ _____    ______ ____
ROOT
ATOM      1  C   UNL     1       2.922  -1.353   4.847  0.00  0.00    +0.089 A 
ATOM      2  C   UNL     1       2.199  -1.733   6.000  0.00  0.00    +0.086 A 
ATOM      3  C   UNL     1       0.869  -1.684   6.402  0.00  0.00    +0.126 A 
ATOM      4  N   UNL     1       0.800  -2.210   7.637  0.00  0.00    -0.251 N 
ATOM      5  N   UNL     1       2.074  -2.607   8.059  0.00  0.00    -0.149 NA
ATOM      6  C   UNL     1       2.948  -2.342   7.113  0.00  0.00    +0.188 A 
ATOM      7  N   UNL     1       4.278  -2.501   6.965  0.00  0.00    -0.193 NA
ATOM      8  C   UNL     1       4.873  -2.118   5.854  0.00  0.00    +0.220 A 
ATOM      9  N   UNL     1       4.231  -1.570   4.827  0.00  0.00    -0.214 NA
ATOM     10  N   UNL     1       6.240  -2.302   5.749  0.00  0.00    -0.301 N 
ATOM     11  C   UNL     1       6.923  -1.872   4.511  0.00  0.00    +0.106 C 
ATOM     12  C   UNL     1       8.264  -1.185   4.829  0.00  0.00    -0.000 C 
ATOM     13  C   UNL     1       8.103  -0.307   6.050  0.00  0.00    -0.081 C 
ATOM     14  N   UNL     1       8.483  -1.063   7.241  0.00  0.00    +0.380 N 
ATOM     15  C   UNL     1       7.439  -1.810   7.830  0.00  0.00    -0.063 C 
ATOM     16  C   UNL     1       6.952  -2.903   6.857  0.00  0.00    +0.089 C 
ATOM     17  C   UNL     1      -0.427  -2.346   8.425  0.00  0.00    +0.174 C 
ATOM     18  H   UNL     1       9.227  -1.697   6.992  0.00  0.00    -0.086 HD
ATOM     19  H   UNL     1       8.838  -0.416   7.929  0.00  0.00    -0.086 HD
ENDROOT
BRANCH   1  23
ATOM     20  C   UNL     1       0.955   0.421   1.524  0.00  0.00    -0.045 A 
ATOM     21  C   UNL     1       1.881  -0.587   1.319  0.00  0.00    +0.004 A 
ATOM     22  C   UNL     1       2.523  -1.167   2.394  0.00  0.00    +0.010 A 
ATOM     23  C   UNL     1       2.237  -0.735   3.689  0.00  0.00    +0.001 A 
ATOM     24  C   UNL     1       1.303   0.282   3.890  0.00  0.00    +0.010 A 
ATOM     25  C   UNL     1       0.672   0.858   2.806  0.00  0.00    +0.004 A 
BRANCH  20  27
ATOM     26  C   UNL     1       1.296   1.676  -0.587  0.00  0.00    +0.012 C 
ATOM     27  C   UNL     1       0.257   1.050   0.346  0.00  0.00    +0.013 C 
ATOM     28  C   UNL     1      -0.529  -0.021  -0.412  0.00  0.00    +0.012 C 
ENDBRANCH  20  27
ENDBRANCH   1  23
BRANCH   3  29
ATOM     29  N   UNL     1      -0.190  -1.186   5.665  0.00  0.00    -0.343 N 
ATOM     30  H   UNL     1      -0.105  -1.081   4.705  0.00  0.00    +0.144 HD
ATOM     31  H   UNL     1      -1.017  -0.943   6.109  0.00  0.00    +0.144 HD
ENDBRANCH   3  29
TORSDOF 3
