REMARK  Name = ZINC13117935
REMARK  7 active torsions:
REMARK  status: ('A' for Active; 'I' for Inactive)
REMARK    1  A    between atoms: C_4  and  C_7
REMARK    2  A    between atoms: C_7  and  N_8
REMARK    3  A    between atoms: C_9  and  N_33
REMARK    4  A    between atoms: C_10  and  N_17
REMARK    5  A    between atoms: N_17  and  C_18
REMARK    6  A    between atoms: C_18  and  C_19
REMARK    7  A    between atoms: C_24  and  C_26
REMARK                            x       y       z     vdW  Elec       q    Type
REMARK                         _______ _______ _______ _____ _____    ______ ____
ROOT
ATOM      1  N   UNL     1       3.512  -1.538   2.962  0.00  0.00    -0.276 N 
ATOM      2  C   UNL     1       4.343  -0.461   3.171  0.00  0.00    +0.128 A 
ATOM      3  C   UNL     1       5.194  -0.468   4.257  0.00  0.00    +0.140 A 
ATOM      4  C   UNL     1       5.186  -1.581   5.120  0.00  0.00    +0.277 A 
ATOM      5  O   UNL     1       5.927  -1.613   6.088  0.00  0.00    -0.266 OA
ATOM      6  N   UNL     1       4.352  -2.609   4.870  0.00  0.00    -0.273 N 
ATOM      7  H   UNL     1       4.345  -3.376   5.464  0.00  0.00    +0.173 HD
ATOM      8  C   UNL     1       3.525  -2.582   3.810  0.00  0.00    +0.331 A 
ATOM      9  O   UNL     1       2.780  -3.522   3.610  0.00  0.00    -0.246 OA
ENDROOT
BRANCH   3  10
ATOM     10  N   UNL     1       6.059   0.620   4.498  0.00  0.00    -0.253 N 
ATOM     11  C   UNL     1       7.394   0.444   4.444  0.00  0.00    +0.251 C 
ATOM     12  O   UNL     1       8.138   1.398   4.572  0.00  0.00    -0.270 OA
BRANCH  11  13
ATOM     13  C   UNL     1       7.954  -0.907   4.230  0.00  0.00    +0.039 A 
ATOM     14  C   UNL     1       7.235  -1.857   3.503  0.00  0.00    +0.013 A 
ATOM     15  C   UNL     1       7.763  -3.116   3.306  0.00  0.00    +0.002 A 
ATOM     16  C   UNL     1       9.003  -3.439   3.828  0.00  0.00    +0.020 A 
ATOM     17  C   UNL     1       9.722  -2.502   4.551  0.00  0.00    +0.042 A 
ATOM     18  C   UNL     1       9.207  -1.236   4.750  0.00  0.00    +0.033 A 
ATOM     19 CL   UNL     1      11.276  -2.918   5.203  0.00  0.00    -0.084 Cl
ENDBRANCH  11  13
BRANCH  10  20
ATOM     20  C   UNL     1       5.505   1.940   4.808  0.00  0.00    +0.188 C 
BRANCH  20  21
ATOM     21  C   UNL     1       5.474   2.135   6.302  0.00  0.00    +0.122 A 
ATOM     22  C   UNL     1       6.428   2.734   7.037  0.00  0.00    +0.046 A 
ATOM     23  C   UNL     1       5.992   2.697   8.382  0.00  0.00    +0.041 A 
ATOM     24  C   UNL     1       4.799   2.077   8.388  0.00  0.00    +0.195 A 
ATOM     25  O   UNL     1       4.487   1.743   7.125  0.00  0.00    -0.466 OA
ENDBRANCH  20  21
ENDBRANCH  10  20
ENDBRANCH   3  10
BRANCH   2  26
ATOM     26  N   UNL     1       4.326   0.608   2.308  0.00  0.00    -0.343 N 
ATOM     27  H   UNL     1       3.757   0.588   1.523  0.00  0.00    +0.144 HD
ATOM     28  H   UNL     1       4.883   1.383   2.485  0.00  0.00    +0.144 HD
ENDBRANCH   2  26
BRANCH   1  29
ATOM     29  C   UNL     1       2.603  -1.543   1.813  0.00  0.00    +0.163 C 
BRANCH  29  33
ATOM     30  C   UNL     1      -1.119   0.229   2.930  0.00  0.00    +0.000 A 
ATOM     31  C   UNL     1      -0.104   1.016   2.419  0.00  0.00    +0.000 A 
ATOM     32  C   UNL     1       1.100   0.443   2.058  0.00  0.00    +0.005 A 
ATOM     33  C   UNL     1       1.290  -0.918   2.208  0.00  0.00    -0.028 A 
ATOM     34  C   UNL     1       0.276  -1.705   2.720  0.00  0.00    +0.005 A 
ATOM     35  C   UNL     1      -0.929  -1.132   3.080  0.00  0.00    +0.000 A 
ENDBRANCH  29  33
ENDBRANCH   1  29
TORSDOF 7
