REMARK  Name = ZINC39608618
REMARK  7 active torsions:
REMARK  status: ('A' for Active; 'I' for Inactive)
REMARK    1  A    between atoms: C_4  and  C_7
REMARK    2  A    between atoms: C_7  and  N_8
REMARK    3  A    between atoms: C_11  and  N_14
REMARK    4  A    between atoms: C_15  and  C_17
REMARK    5  A    between atoms: C_28  and  C_30
REMARK    6  A    between atoms: C_30  and  O_31
REMARK    7  A    between atoms: O_31  and  C_32
REMARK                            x       y       z     vdW  Elec       q    Type
REMARK                         _______ _______ _______ _____ _____    ______ ____
ROOT
ATOM      1  C   UNL     1       9.389  -2.329   4.123  0.00  0.00    +0.100 C 
ATOM      2  C   UNL     1       8.776  -2.456   5.535  0.00  0.00    +0.121 C 
ATOM      3  N   UNL     1       9.943  -2.483   6.449  0.00  0.00    -0.297 N 
ATOM      4  C   UNL     1      10.885  -1.494   5.873  0.00  0.00    +0.115 C 
ATOM      5  C   UNL     1      10.773  -1.696   4.348  0.00  0.00    -0.004 C 
ATOM      6  C   UNL     1      10.863  -0.353   3.631  0.00  0.00    -0.010 C 
ATOM      7  C   UNL     1      12.266   0.230   3.821  0.00  0.00    -0.082 C 
ATOM      8  N   UNL     1      13.263  -0.704   3.281  0.00  0.00    +0.379 N 
ATOM      9  C   UNL     1      13.233  -1.961   4.039  0.00  0.00    -0.082 C 
ATOM     10  C   UNL     1      11.870  -2.636   3.858  0.00  0.00    -0.010 C 
ATOM     11  C   UNL     1      10.110  -3.237   7.554  0.00  0.00    +0.253 C 
ATOM     12  O   UNL     1      11.130  -3.144   8.203  0.00  0.00    -0.272 OA
ATOM     13  H   UNL     1      13.055  -0.892   2.312  0.00  0.00    -0.086 HD
ATOM     14  H   UNL     1      14.181  -0.292   3.353  0.00  0.00    -0.086 HD
ENDROOT
BRANCH   1  16
ATOM     15  N   UNL     1       8.511  -1.612   1.924  0.00  0.00    -0.314 N 
ATOM     16  C   UNL     1       8.537  -1.434   3.260  0.00  0.00    +0.218 C 
ATOM     17  O   UNL     1       7.875  -0.554   3.768  0.00  0.00    -0.275 OA
ATOM     18  H   UNL     1       9.041  -2.316   1.518  0.00  0.00    +0.149 HD
BRANCH  15  22
ATOM     19  N   UNL     1       6.964  -0.762  -1.235  0.00  0.00    +0.384 N 
ATOM     20  C   UNL     1       5.769  -0.704  -0.367  0.00  0.00    -0.077 C 
ATOM     21  C   UNL     1       6.235  -1.290   0.989  0.00  0.00    +0.002 C 
ATOM     22  C   UNL     1       7.683  -0.742   1.085  0.00  0.00    +0.055 C 
ATOM     23  C   UNL     1       8.165  -0.772  -0.380  0.00  0.00    -0.056 C 
ATOM     24  H   UNL     1       6.936  -1.603  -1.792  0.00  0.00    -0.081 HD
BRANCH  19  25
ATOM     25  C   UNL     1       6.993   0.414  -2.115  0.00  0.00    -0.043 C 
BRANCH  25  29
ATOM     26  C   UNL     1       3.694   0.249  -4.824  0.00  0.00    +0.000 A 
ATOM     27  C   UNL     1       3.554   0.879  -3.601  0.00  0.00    +0.000 A 
ATOM     28  C   UNL     1       4.621   0.932  -2.725  0.00  0.00    +0.002 A 
ATOM     29  C   UNL     1       5.829   0.355  -3.071  0.00  0.00    -0.064 A 
ATOM     30  C   UNL     1       5.969  -0.275  -4.293  0.00  0.00    +0.002 A 
ATOM     31  C   UNL     1       4.902  -0.327  -5.170  0.00  0.00    +0.000 A 
ENDBRANCH  25  29
ENDBRANCH  19  25
ENDBRANCH  15  22
ENDBRANCH   1  16
BRANCH  11  32
ATOM     32  C   UNL     1       9.029  -4.195   7.983  0.00  0.00    +0.324 C 
BRANCH  32  33
ATOM     33  O   UNL     1       9.438  -4.873   9.172  0.00  0.00    -0.483 OA
BRANCH  33  34
ATOM     34  C   UNL     1       8.570  -5.779   9.695  0.00  0.00    +0.123 A 
ATOM     35  C   UNL     1       7.353  -6.015   9.073  0.00  0.00    +0.046 A 
ATOM     36  C   UNL     1       6.473  -6.936   9.605  0.00  0.00    +0.005 A 
ATOM     37  C   UNL     1       6.804  -7.625  10.758  0.00  0.00    +0.020 A 
ATOM     38  C   UNL     1       8.017  -7.391  11.382  0.00  0.00    +0.044 A 
ATOM     39  C   UNL     1       8.903  -6.474  10.848  0.00  0.00    +0.065 A 
ATOM     40 CL   UNL     1       8.429  -8.256  12.829  0.00  0.00    -0.083 Cl
ENDBRANCH  33  34
ENDBRANCH  32  33
ENDBRANCH  11  32
TORSDOF 7
