REMARK  Name = ZINC13038983
REMARK  14 active torsions:
REMARK  status: ('A' for Active; 'I' for Inactive)
REMARK    1  A    between atoms: C_1  and  C_2
REMARK    2  A    between atoms: C_2  and  C_3
REMARK    3  A    between atoms: C_2  and  C_4
REMARK    4  A    between atoms: C_4  and  C_5
REMARK    5  A    between atoms: C_5  and  C_7
REMARK    6  A    between atoms: C_5  and  N_26
REMARK    7  A    between atoms: C_7  and  O_9
REMARK    8  A    between atoms: O_9  and  C_10
REMARK    9  A    between atoms: C_10  and  C_11
REMARK   10  A    between atoms: C_11  and  C_12
REMARK   11  A    between atoms: C_12  and  N_13
REMARK   12  A    between atoms: N_20  and  C_21
REMARK   13  A    between atoms: N_22  and  C_25
REMARK   14  A    between atoms: C_27  and  C_29
REMARK                            x       y       z     vdW  Elec       q    Type
REMARK                         _______ _______ _______ _____ _____    ______ ____
ROOT
ATOM      1  C   UNL     1      -0.364   1.601   3.940  0.00  0.00    +0.328 C 
ATOM      2  O   UNL     1      -1.263   2.356   4.230  0.00  0.00    -0.249 OA
ENDROOT
BRANCH   1   3
ATOM      3  C   UNL     1       0.472   0.974   5.026  0.00  0.00    +0.182 C 
BRANCH   3   4
ATOM      4  N   UNL     1      -0.000   1.434   6.334  0.00  0.00    -0.298 N 
ATOM      5  C   UNL     1       0.855   1.502   7.373  0.00  0.00    +0.245 C 
ATOM      6  O   UNL     1       2.037   1.275   7.204  0.00  0.00    -0.270 OA
ATOM      7  H   UNL     1      -0.928   1.690   6.452  0.00  0.00    +0.150 HD
BRANCH   5   8
ATOM      8  C   UNL     1       0.356   1.853   8.719  0.00  0.00    +0.037 A 
ATOM      9  C   UNL     1      -1.000   2.120   8.916  0.00  0.00    +0.014 A 
ATOM     10  C   UNL     1      -1.462   2.441  10.175  0.00  0.00    +0.021 A 
ATOM     11  C   UNL     1      -0.580   2.510  11.242  0.00  0.00    +0.041 A 
ATOM     12  C   UNL     1       0.767   2.253  11.051  0.00  0.00    +0.021 A 
ATOM     13  C   UNL     1       1.239   1.925   9.798  0.00  0.00    +0.014 A 
ATOM     14 CL   UNL     1      -1.167   2.922  12.823  0.00  0.00    -0.084 Cl
ENDBRANCH   5   8
ENDBRANCH   3   4
BRANCH   3  15
ATOM     15  C   UNL     1       0.351  -0.549   4.947  0.00  0.00    +0.036 C 
BRANCH  15  17
ATOM     16  C   UNL     1       2.494  -0.717   3.674  0.00  0.00    +0.007 C 
ATOM     17  C   UNL     1       1.000  -1.046   3.653  0.00  0.00    -0.015 C 
ATOM     18  C   UNL     1       0.813  -2.560   3.537  0.00  0.00    +0.007 C 
ENDBRANCH  15  17
ENDBRANCH   3  15
ENDBRANCH   1   3
BRANCH   1  19
ATOM     19  O   UNL     1      -0.111   1.322   2.652  0.00  0.00    -0.463 OA
BRANCH  19  20
ATOM     20  C   UNL     1      -0.957   1.963   1.660  0.00  0.00    +0.234 C 
BRANCH  20  21
ATOM     21  C   UNL     1      -0.520   1.527   0.260  0.00  0.00    +0.063 C 
BRANCH  21  22
ATOM     22  C   UNL     1      -1.411   2.201  -0.785  0.00  0.00    +0.133 C 
BRANCH  22  23
ATOM     23  N   UNL     1      -0.994   1.784  -2.125  0.00  0.00    -0.259 N 
ATOM     24  C   UNL     1      -1.549   0.689  -2.684  0.00  0.00    +0.282 A 
ATOM     25  O   UNL     1      -2.392   0.050  -2.080  0.00  0.00    -0.265 OA
ATOM     26  C   UNL     1      -1.142   0.292  -3.976  0.00  0.00    +0.151 A 
ATOM     27  C   UNL     1      -0.179   1.040  -4.642  0.00  0.00    +0.168 A 
ATOM     28  N   UNL     1       0.024   0.459  -5.827  0.00  0.00    -0.218 NA
ATOM     29  C   UNL     1      -0.745  -0.594  -5.942  0.00  0.00    +0.202 A 
ATOM     30  N   UNL     1      -1.484  -0.741  -4.825  0.00  0.00    -0.328 N 
ATOM     31  C   UNL     1      -2.465  -1.797  -4.562  0.00  0.00    +0.150 C 
ATOM     32  N   UNL     1       0.353   2.155  -4.015  0.00  0.00    -0.280 N 
ATOM     33  C   UNL     1      -0.067   2.502  -2.783  0.00  0.00    +0.333 A 
ATOM     34  O   UNL     1       0.408   3.487  -2.251  0.00  0.00    -0.246 OA
ATOM     35  C   UNL     1       1.369   2.962  -4.695  0.00  0.00    +0.155 C 
ENDBRANCH  22  23
ENDBRANCH  21  22
ENDBRANCH  20  21
ENDBRANCH  19  20
ENDBRANCH   1  19
TORSDOF 10
