REMARK  Name = ZINC64697702
REMARK  7 active torsions:
REMARK  status: ('A' for Active; 'I' for Inactive)
REMARK    1  A    between atoms: C_1  and  C_2
REMARK    2  A    between atoms: C_2  and  C_4
REMARK    3  A    between atoms: C_2  and  N_14
REMARK    4  A    between atoms: C_15  and  C_17
REMARK    5  A    between atoms: C_17  and  N_18
REMARK    6  A    between atoms: C_21  and  C_26
REMARK    7  A    between atoms: C_26  and  C_27
REMARK                            x       y       z     vdW  Elec       q    Type
REMARK                         _______ _______ _______ _____ _____    ______ ____
ROOT
ATOM      1  N   UNL     1      -0.240  -1.150  -4.711  0.00  0.00    -0.216 N 
ATOM      2  C   UNL     1      -0.988  -2.230  -5.014  0.00  0.00    +0.244 C 
ATOM      3  O   UNL     1      -1.000  -3.297  -4.439  0.00  0.00    -0.273 OA
ATOM      4  C   UNL     1      -1.811  -1.831  -6.223  0.00  0.00    +0.165 C 
ATOM      5  N   UNL     1      -1.392  -0.444  -6.485  0.00  0.00    -0.287 N 
ATOM      6  C   UNL     1      -0.477  -0.134  -5.549  0.00  0.00    +0.310 C 
ATOM      7  O   UNL     1       0.074   0.946  -5.474  0.00  0.00    -0.252 OA
ATOM      8  H   UNL     1      -1.716   0.135  -7.193  0.00  0.00    +0.151 HD
ENDROOT
BRANCH   1   9
ATOM      9  C   UNL     1       0.712  -1.094  -3.598  0.00  0.00    +0.213 C 
BRANCH   9  11
ATOM     10  N   UNL     1       0.688  -0.476  -1.203  0.00  0.00    -0.307 N 
ATOM     11  C   UNL     1       0.006  -0.608  -2.358  0.00  0.00    +0.231 C 
ATOM     12  O   UNL     1      -1.175  -0.336  -2.400  0.00  0.00    -0.274 OA
ATOM     13  H   UNL     1       1.632  -0.695  -1.170  0.00  0.00    +0.149 HD
BRANCH  10  15
ATOM     14  C   UNL     1      -0.019   1.526   0.010  0.00  0.00    +0.033 C 
ATOM     15  C   UNL     1       0.002  -0.004   0.002  0.00  0.00    +0.100 C 
BRANCH  15  16
ATOM     16  C   UNL     1       0.731  -0.503   1.223  0.00  0.00    -0.027 A 
ATOM     17  C   UNL     1       2.113  -0.515   1.249  0.00  0.00    +0.006 A 
ATOM     18  C   UNL     1       2.773  -0.976   2.369  0.00  0.00    +0.004 A 
ATOM     19  C   UNL     1       2.060  -1.428   3.472  0.00  0.00    -0.044 A 
ATOM     20  C   UNL     1       0.684  -1.412   3.448  0.00  0.00    -0.044 A 
ATOM     21  C   UNL     1       0.021  -0.945   2.320  0.00  0.00    +0.009 A 
ATOM     22  C   UNL     1      -0.153  -1.871   4.613  0.00  0.00    +0.035 C 
ATOM     23  C   UNL     1       0.678  -2.727   5.568  0.00  0.00    +0.005 C 
ATOM     24  C   UNL     1       1.964  -1.964   5.906  0.00  0.00    +0.005 C 
ATOM     25  C   UNL     1       2.845  -1.925   4.659  0.00  0.00    +0.035 C 
ENDBRANCH  15  16
ENDBRANCH  10  15
ENDBRANCH   9  11
ENDBRANCH   1   9
BRANCH   4  26
ATOM     26  C   UNL     1      -3.305  -1.894  -5.900  0.00  0.00    +0.065 C 
BRANCH  26  27
ATOM     27  C   UNL     1      -4.101  -1.614  -7.149  0.00  0.00    -0.039 C 
ATOM     28  C   UNL     1      -4.621  -2.525  -8.004  0.00  0.00    -0.001 A 
ATOM     29  C   UNL     1      -4.601  -3.992  -8.026  0.00  0.00    +0.010 A 
ATOM     30  C   UNL     1      -5.224  -4.641  -9.036  0.00  0.00    +0.001 A 
ATOM     31  C   UNL     1      -5.886  -3.949 -10.059  0.00  0.00    +0.002 A 
ATOM     32  C   UNL     1      -5.948  -2.602 -10.107  0.00  0.00    +0.026 A 
ATOM     33  C   UNL     1      -5.327  -1.817  -9.096  0.00  0.00    +0.043 A 
ATOM     34  N   UNL     1      -5.248  -0.520  -8.923  0.00  0.00    -0.380 N 
ATOM     35  C   UNL     1      -4.486  -0.258  -7.697  0.00  0.00    +0.144 C 
ATOM     36  H   UNL     1      -5.632   0.153  -9.506  0.00  0.00    +0.160 HD
ENDBRANCH  26  27
ENDBRANCH   4  26
TORSDOF 6
