REMARK  Name = ZINC20418456
REMARK  14 active torsions:
REMARK  status: ('A' for Active; 'I' for Inactive)
REMARK    1  A    between atoms: C_1  and  C_2
REMARK    2  A    between atoms: C_7  and  C_8
REMARK    3  A    between atoms: C_8  and  N_9
REMARK    4  A    between atoms: N_9  and  C_10
REMARK    5  A    between atoms: N_9  and  C_20
REMARK    6  A    between atoms: C_12  and  C_18
REMARK    7  A    between atoms: C_12  and  C_19
REMARK    8  A    between atoms: C_14  and  C_16
REMARK    9  A    between atoms: C_14  and  C_17
REMARK   10  A    between atoms: C_20  and  N_22
REMARK   11  A    between atoms: N_22  and  C_23
REMARK   12  A    between atoms: C_28  and  C_29
REMARK   13  A    between atoms: C_29  and  O_31
REMARK   14  A    between atoms: O_31  and  C_32
REMARK                            x       y       z     vdW  Elec       q    Type
REMARK                         _______ _______ _______ _____ _____    ______ ____
ROOT
ATOM      1  N   UNL     1       0.078   0.848  -2.284  0.00  0.00    -0.305 N 
ENDROOT
BRANCH   1   2
ATOM      2  C   UNL     1      -0.505   1.061  -0.953  0.00  0.00    +0.073 C 
ATOM      3  C   UNL     1       0.334   0.321   0.088  0.00  0.00    +0.009 C 
ATOM      4  C   UNL     1      -0.236   0.545   1.487  0.00  0.00    -0.072 C 
ATOM      5  N   UNL     1      -0.493   1.940   1.777  0.00  0.00    +0.386 N 
ATOM      6  C   UNL     1      -1.061   2.804   0.763  0.00  0.00    -0.072 C 
ATOM      7  C   UNL     1      -0.479   2.554  -0.626  0.00  0.00    +0.009 C 
ATOM      8  C   UNL     1      -0.745   4.267   1.143  0.00  0.00    -0.010 C 
ATOM      9  C   UNL     1      -2.587   2.668   0.711  0.00  0.00    -0.010 C 
ATOM     10  C   UNL     1      -1.503  -0.300   1.665  0.00  0.00    -0.010 C 
ATOM     11  C   UNL     1       0.806   0.025   2.502  0.00  0.00    -0.010 C 
ATOM     12  H   UNL     1      -1.202   2.016   2.614  0.00  0.00    -0.084 HD
ATOM     13  H   UNL     1       0.450   2.438   2.048  0.00  0.00    -0.084 HD
ENDBRANCH   1   2
BRANCH   1  14
ATOM     14  C   UNL     1       1.321   1.292  -2.555  0.00  0.00    +0.138 C 
ATOM     15  S   UNL     1       2.267   1.998  -1.315  0.00  0.00    -0.018 S 
BRANCH  14  16
ATOM     16  N   UNL     1       1.819   1.182  -3.802  0.00  0.00    -0.296 N 
ATOM     17  H   UNL     1       1.232   0.682  -4.587  0.00  0.00    +0.154 HD
BRANCH  16  18
ATOM     18  C   UNL     1       3.077   1.699  -4.097  0.00  0.00    +0.047 A 
ATOM     19  C   UNL     1       3.478   2.913  -3.553  0.00  0.00    +0.024 A 
ATOM     20  C   UNL     1       4.728   3.421  -3.843  0.00  0.00    +0.002 A 
ATOM     21  C   UNL     1       5.587   2.733  -4.685  0.00  0.00    +0.001 A 
ATOM     22  C   UNL     1       5.205   1.531  -5.238  0.00  0.00    +0.017 A 
ATOM     23  C   UNL     1       3.945   1.000  -4.950  0.00  0.00    +0.080 A 
BRANCH  23  24
ATOM     24  C   UNL     1       3.530  -0.285  -5.539  0.00  0.00    +0.341 C 
ATOM     25  O   UNL     1       2.403  -0.701  -5.357  0.00  0.00    -0.245 OA
BRANCH  24  26
ATOM     26  O   UNL     1       4.400  -0.999  -6.280  0.00  0.00    -0.464 OA
ATOM     27  C   UNL     1       3.922  -2.256  -6.829  0.00  0.00    +0.280 C 
ENDBRANCH  24  26
ENDBRANCH  23  24
ENDBRANCH  16  18
ENDBRANCH  14  16
ENDBRANCH   1  14
BRANCH   1  28
ATOM     28  C   UNL     1      -0.692   0.151  -3.317  0.00  0.00    +0.142 C 
BRANCH  28  35
ATOM     29  C   UNL     1      -2.523  -0.735  -5.369  0.00  0.00    +0.044 C 
ATOM     30  C   UNL     1      -2.270   0.737  -5.169  0.00  0.00    -0.046 A 
ATOM     31  C   UNL     1      -2.917   1.664  -5.965  0.00  0.00    +0.003 A 
ATOM     32  C   UNL     1      -2.682   3.014  -5.785  0.00  0.00    +0.000 A 
ATOM     33  C   UNL     1      -1.802   3.438  -4.806  0.00  0.00    +0.000 A 
ATOM     34  C   UNL     1      -1.158   2.511  -4.008  0.00  0.00    +0.005 A 
ATOM     35  C   UNL     1      -1.394   1.161  -4.188  0.00  0.00    -0.027 A 
ENDBRANCH  28  35
ENDBRANCH   1  28
TORSDOF 8
