REMARK  Name = ZINC09459856
REMARK  7 active torsions:
REMARK  status: ('A' for Active; 'I' for Inactive)
REMARK    1  A    between atoms: C_1  and  N_2
REMARK    2  A    between atoms: C_6  and  C_7
REMARK    3  A    between atoms: C_12  and  C_13
REMARK    4  A    between atoms: C_12  and  N_61
REMARK    5  A    between atoms: N_15  and  N_16
REMARK    6  A    between atoms: C_19  and  C_23
REMARK    7  A    between atoms: C_19  and  C_29
REMARK                            x       y       z     vdW  Elec       q    Type
REMARK                         _______ _______ _______ _____ _____    ______ ____
ROOT
ATOM      1  N   UNL     1       3.034   3.542  -2.174  0.00  0.00    -0.137 N 
ATOM      2  C   UNL     1       1.954   3.854  -1.430  0.00  0.00    +0.272 C 
ATOM      3  O   UNL     1       0.821   4.032  -1.823  0.00  0.00    -0.270 OA
ATOM      4  C   UNL     1       2.451   3.937  -0.001  0.00  0.00    +0.165 C 
ATOM      5  N   UNL     1       3.888   3.633  -0.116  0.00  0.00    -0.276 N 
ATOM      6  C   UNL     1       4.132   3.417  -1.421  0.00  0.00    +0.327 C 
ATOM      7  O   UNL     1       5.229   3.139  -1.866  0.00  0.00    -0.251 OA
ATOM      8  H   UNL     1       4.532   3.595   0.609  0.00  0.00    +0.152 HD
ENDROOT
BRANCH   4   9
ATOM      9  C   UNL     1       1.759   2.912   0.861  0.00  0.00    -0.011 A 
ATOM     10  C   UNL     1       2.503   2.076   1.673  0.00  0.00    +0.006 A 
ATOM     11  C   UNL     1       1.869   1.136   2.463  0.00  0.00    +0.000 A 
ATOM     12  C   UNL     1       0.491   1.028   2.438  0.00  0.00    +0.000 A 
ATOM     13  C   UNL     1      -0.253   1.867   1.630  0.00  0.00    +0.000 A 
ATOM     14  C   UNL     1       0.381   2.808   0.840  0.00  0.00    +0.006 A 
ENDBRANCH   4   9
BRANCH   4  15
ATOM     15  C   UNL     1       2.245   5.322   0.557  0.00  0.00    -0.011 A 
ATOM     16  C   UNL     1       0.996   5.911   0.500  0.00  0.00    +0.006 A 
ATOM     17  C   UNL     1       0.806   7.179   1.016  0.00  0.00    +0.000 A 
ATOM     18  C   UNL     1       1.867   7.862   1.579  0.00  0.00    +0.000 A 
ATOM     19  C   UNL     1       3.118   7.275   1.631  0.00  0.00    +0.000 A 
ATOM     20  C   UNL     1       3.306   6.005   1.120  0.00  0.00    +0.006 A 
ENDBRANCH   4  15
BRANCH   1  23
ATOM     21  C   UNL     1       3.072   2.132  -4.091  0.00  0.00    +0.213 C 
ATOM     22  O   UNL     1       3.151   1.166  -3.362  0.00  0.00    -0.276 OA
ATOM     23  N   UNL     1       3.009   3.370  -3.564  0.00  0.00    -0.225 N 
ATOM     24  H   UNL     1       2.946   4.143  -4.147  0.00  0.00    +0.173 HD
BRANCH  21  25
ATOM     25  C   UNL     1       3.046   1.947  -5.587  0.00  0.00    +0.021 C 
BRANCH  25  30
ATOM     26  C   UNL     1       3.360   0.306  -7.350  0.00  0.00    -0.020 C 
ATOM     27  C   UNL     1       2.601  -1.002  -7.688  0.00  0.00    -0.011 C 
ATOM     28  C   UNL     1       1.340  -0.873  -6.793  0.00  0.00    -0.020 C 
ATOM     29  C   UNL     1       1.884  -0.181  -5.524  0.00  0.00    -0.077 C 
ATOM     30  N   UNL     1       3.134   0.498  -5.903  0.00  0.00    +0.391 N 
ATOM     31  H   UNL     1       3.916   0.087  -5.380  0.00  0.00    -0.080 HD
BRANCH  26  37
ATOM     32  C   UNL     1       4.658  -0.384 -10.080  0.00  0.00    +0.148 C 
ATOM     33  N   UNL     1       5.391  -0.160  -8.831  0.00  0.00    -0.355 N 
ATOM     34  C   UNL     1       6.745  -0.220  -8.683  0.00  0.00    +0.085 A 
ATOM     35  C   UNL     1       7.041   0.043  -7.394  0.00  0.00    +0.019 A 
ATOM     36  C   UNL     1       5.825   0.279  -6.723  0.00  0.00    +0.021 A 
ATOM     37  C   UNL     1       4.832   0.144  -7.625  0.00  0.00    +0.005 A 
ENDBRANCH  26  37
ENDBRANCH  25  30
ENDBRANCH  21  25
ENDBRANCH   1  23
TORSDOF 6
