REMARK  Name = ZINC19095802
REMARK  8 active torsions:
REMARK  status: ('A' for Active; 'I' for Inactive)
REMARK    1  A    between atoms: C_1  and  C_2
REMARK    2  A    between atoms: C_2  and  O_3
REMARK    3  A    between atoms: O_3  and  C_4
REMARK    4  A    between atoms: C_6  and  C_11
REMARK    5  A    between atoms: C_9  and  O_10
REMARK    6  A    between atoms: C_13  and  C_20
REMARK    7  A    between atoms: C_16  and  C_17
REMARK    8  A    between atoms: C_23  and  O_26
REMARK                            x       y       z     vdW  Elec       q    Type
REMARK                         _______ _______ _______ _____ _____    ______ ____
ROOT
ATOM      1  C   UNL     1      -0.202  -4.966   0.460  0.00  0.00    +0.005 A 
ATOM      2  C   UNL     1      -1.037  -6.018   0.088  0.00  0.00    +0.038 A 
ATOM      3  C   UNL     1      -1.543  -6.865   1.070  0.00  0.00    +0.074 A 
ATOM      4  N   UNL     1      -1.252  -6.679   2.353  0.00  0.00    -0.231 NA
ATOM      5  C   UNL     1      -0.470  -5.694   2.758  0.00  0.00    +0.135 A 
ATOM      6  C   UNL     1       0.088  -4.796   1.832  0.00  0.00    +0.099 A 
ATOM      7  N   UNL     1      -0.198  -5.545   4.107  0.00  0.00    -0.342 N 
ATOM      8  H   UNL     1       0.376  -4.824   4.409  0.00  0.00    +0.144 HD
ATOM      9  H   UNL     1      -0.580  -6.162   4.750  0.00  0.00    +0.144 HD
ENDROOT
BRANCH   1  12
ATOM     10  C   UNL     1       0.777  -1.811  -1.336  0.00  0.00    +0.162 A 
ATOM     11  C   UNL     1       0.254  -2.666  -0.383  0.00  0.00    +0.058 A 
ATOM     12  C   UNL     1       0.360  -4.046  -0.555  0.00  0.00    -0.013 A 
ATOM     13  C   UNL     1       1.002  -4.559  -1.683  0.00  0.00    +0.012 A 
ATOM     14  C   UNL     1       1.527  -3.701  -2.628  0.00  0.00    +0.050 A 
ATOM     15  C   UNL     1       1.417  -2.329  -2.460  0.00  0.00    +0.158 A 
BRANCH  15  16
ATOM     16  O   UNL     1       1.935  -1.488  -3.393  0.00  0.00    -0.503 OA
ATOM     17  H   UNL     1       2.854  -1.236  -3.229  0.00  0.00    +0.292 HD
ENDBRANCH  15  16
BRANCH  10  18
ATOM     18  O   UNL     1       0.671  -0.465  -1.174  0.00  0.00    -0.489 OA
BRANCH  18  20
ATOM     19  C   UNL     1      -0.019   1.526   0.010  0.00  0.00    +0.048 C 
ATOM     20  C   UNL     1       0.002  -0.004   0.002  0.00  0.00    +0.226 C 
ENDBRANCH  18  20
ENDBRANCH  10  18
ENDBRANCH   1  12
BRANCH   3  21
ATOM     21  C   UNL     1      -2.426  -7.988   0.678  0.00  0.00    +0.001 A 
ATOM     22  C   UNL     1      -2.745  -8.191  -0.665  0.00  0.00    +0.013 A 
ATOM     23  C   UNL     1      -3.562  -9.241  -1.027  0.00  0.00    +0.046 A 
ATOM     24  C   UNL     1      -4.077 -10.089  -0.055  0.00  0.00    +0.117 A 
ATOM     25  C   UNL     1      -3.767  -9.886   1.284  0.00  0.00    +0.046 A 
ATOM     26  C   UNL     1      -2.946  -8.841   1.652  0.00  0.00    +0.013 A 
BRANCH  24  27
ATOM     27  O   UNL     1      -4.886 -11.118  -0.414  0.00  0.00    -0.507 OA
ATOM     28  H   UNL     1      -5.826 -10.891  -0.434  0.00  0.00    +0.292 HD
ENDBRANCH  24  27
ENDBRANCH   3  21
BRANCH   6  29
ATOM     29  C   UNL     1       0.934  -3.728   2.271  0.00  0.00    +0.103 C 
ATOM     30  N   UNL     1       1.606  -2.881   2.619  0.00  0.00    -0.191 NA
ENDBRANCH   6  29
TORSDOF 7
