REMARK  Name = ZINC03180024
REMARK  13 active torsions:
REMARK  status: ('A' for Active; 'I' for Inactive)
REMARK    1  A    between atoms: C_1  and  C_2
REMARK    2  A    between atoms: C_2  and  O_3
REMARK    3  A    between atoms: O_3  and  C_4
REMARK    4  A    between atoms: C_4  and  C_6
REMARK    5  A    between atoms: C_10  and  N_11
REMARK    6  A    between atoms: C_12  and  C_14
REMARK    7  A    between atoms: C_15  and  C_16
REMARK    8  A    between atoms: C_19  and  O_22
REMARK    9  A    between atoms: O_22  and  C_23
REMARK   10  A    between atoms: C_24  and  C_29
REMARK   11  A    between atoms: C_24  and  C_30
REMARK   12  A    between atoms: C_25  and  C_27
REMARK   13  A    between atoms: C_25  and  C_28
REMARK                            x       y       z     vdW  Elec       q    Type
REMARK                         _______ _______ _______ _____ _____    ______ ____
ROOT
ATOM      1  C   UNL     1      -2.607  -4.188   0.004  0.00  0.00    +0.091 A 
ATOM      2  C   UNL     1      -3.969  -4.678   0.019  0.00  0.00    -0.024 A 
ATOM      3  C   UNL     1      -4.931  -3.726   0.027  0.00  0.00    -0.016 A 
ATOM      4  S   UNL     1      -4.045  -2.195   0.027  0.00  0.00    -0.079 S 
ATOM      5  C   UNL     1      -2.425  -2.808   0.010  0.00  0.00    +0.086 A 
ATOM      6  C   UNL     1      -6.407  -3.954   0.028  0.00  0.00    -0.041 C 
ATOM      7  C   UNL     1      -5.719  -6.228   0.796  0.00  0.00    -0.069 C 
ATOM      8  C   UNL     1      -4.393  -6.140   0.031  0.00  0.00    +0.024 C 
ATOM      9  C   UNL     1      -5.475  -5.892   2.270  0.00  0.00    -0.010 C 
ATOM     10  C   UNL     1      -6.213  -7.685   0.718  0.00  0.00    -0.010 C 
ATOM     11  C   UNL     1      -7.054  -3.097   1.125  0.00  0.00    -0.005 C 
ATOM     12  C   UNL     1      -6.970  -3.492  -1.330  0.00  0.00    -0.005 C 
ATOM     13  N   UNL     1      -6.791  -5.384   0.209  0.00  0.00    +0.389 N 
ATOM     14  H   UNL     1      -7.040  -5.770  -0.710  0.00  0.00    -0.084 HD
ATOM     15  H   UNL     1      -7.609  -5.423   0.829  0.00  0.00    -0.084 HD
ENDROOT
BRANCH   5  16
ATOM     16  N   UNL     1      -1.236  -2.100   0.003  0.00  0.00    -0.276 N 
ATOM     17  C   UNL     1      -1.254  -0.752   0.010  0.00  0.00    +0.241 C 
ATOM     18  O   UNL     1      -2.316  -0.158   0.023  0.00  0.00    -0.270 OA
ATOM     19  H   UNL     1      -0.389  -2.573  -0.008  0.00  0.00    +0.156 HD
BRANCH  17  20
ATOM     20  C   UNL     1       0.002  -0.004   0.002  0.00  0.00    +0.068 C 
ATOM     21  C   UNL     1      -0.016   1.346   0.009  0.00  0.00    +0.013 C 
BRANCH  21  22
ATOM     22  C   UNL     1       1.247   2.098   0.001  0.00  0.00    -0.025 A 
ATOM     23  C   UNL     1       2.470   1.417  -0.008  0.00  0.00    +0.011 A 
ATOM     24  C   UNL     1       3.649   2.127  -0.020  0.00  0.00    +0.046 A 
ATOM     25  C   UNL     1       3.628   3.517  -0.013  0.00  0.00    +0.120 A 
ATOM     26  C   UNL     1       2.416   4.198   0.002  0.00  0.00    +0.046 A 
ATOM     27  C   UNL     1       1.230   3.498   0.009  0.00  0.00    +0.011 A 
BRANCH  25  28
ATOM     28  O   UNL     1       4.794   4.211  -0.020  0.00  0.00    -0.495 OA
ATOM     29  C   UNL     1       6.003   3.449  -0.035  0.00  0.00    +0.277 C 
ENDBRANCH  25  28
ENDBRANCH  21  22
ENDBRANCH  17  20
ENDBRANCH   5  16
BRANCH   1  30
ATOM     30  C   UNL     1      -1.459  -5.097  -0.018  0.00  0.00    +0.342 C 
ATOM     31  O   UNL     1      -0.966  -5.481   1.026  0.00  0.00    -0.245 OA
BRANCH  30  32
ATOM     32  O   UNL     1      -0.947  -5.508  -1.197  0.00  0.00    -0.461 OA
BRANCH  32  34
ATOM     33  C   UNL     1       0.628  -6.762  -2.566  0.00  0.00    +0.048 C 
ATOM     34  C   UNL     1       0.191  -6.408  -1.143  0.00  0.00    +0.229 C 
ENDBRANCH  32  34
ENDBRANCH  30  32
ENDBRANCH   1  30
TORSDOF 7
