REMARK  Name = ZINC08728519
REMARK  8 active torsions:
REMARK  status: ('A' for Active; 'I' for Inactive)
REMARK    1  A    between atoms: C_1  and  C_2
REMARK    2  A    between atoms: C_2  and  C_4
REMARK    3  A    between atoms: C_2  and  N_56
REMARK    4  A    between atoms: C_7  and  S_10
REMARK    5  A    between atoms: S_10  and  N_13
REMARK    6  A    between atoms: C_14  and  C_15
REMARK    7  A    between atoms: C_14  and  N_56
REMARK    8  A    between atoms: C_26  and  C_28
REMARK                            x       y       z     vdW  Elec       q    Type
REMARK                         _______ _______ _______ _____ _____    ______ ____
ROOT
ATOM      1  C   UNL     1       1.283   1.975   0.019  0.00  0.00    +0.016 C 
ENDROOT
BRANCH   1   2
ATOM      2  C   UNL     1      -0.014   1.209   0.009  0.00  0.00    +0.203 C 
ATOM      3  O   UNL     1      -0.002  -0.004  -0.018  0.00  0.00    -0.277 OA
ATOM      4  N   UNL     1      -1.188   1.871   0.024  0.00  0.00    -0.259 N 
ATOM      5  C   UNL     1      -2.409   1.183   0.131  0.00  0.00    +0.079 A 
ATOM      6  C   UNL     1      -2.425  -0.151   0.504  0.00  0.00    +0.027 A 
ATOM      7  C   UNL     1      -3.629  -0.824   0.606  0.00  0.00    +0.002 A 
ATOM      8  C   UNL     1      -4.815  -0.166   0.335  0.00  0.00    +0.004 A 
ATOM      9  C   UNL     1      -4.805   1.165  -0.036  0.00  0.00    +0.047 A 
ATOM     10  C   UNL     1      -3.602   1.848  -0.140  0.00  0.00    +0.142 A 
ATOM     11  O   UNL     1      -3.602   3.158  -0.502  0.00  0.00    -0.488 OA
ATOM     12  C   UNL     1      -2.387   3.706  -1.018  0.00  0.00    +0.256 C 
ATOM     13  C   UNL     1      -1.236   3.340  -0.064  0.00  0.00    +0.149 C 
BRANCH  13  14
ATOM     14  C   UNL     1      -1.491   3.927   1.300  0.00  0.00    -0.023 A 
ATOM     15  C   UNL     1      -2.395   3.323   2.154  0.00  0.00    +0.005 A 
ATOM     16  C   UNL     1      -2.625   3.858   3.408  0.00  0.00    +0.000 A 
ATOM     17  C   UNL     1      -1.959   5.003   3.804  0.00  0.00    +0.000 A 
ATOM     18  C   UNL     1      -1.059   5.610   2.947  0.00  0.00    +0.000 A 
ATOM     19  C   UNL     1      -0.825   5.072   1.696  0.00  0.00    +0.005 A 
ENDBRANCH  13  14
ENDBRANCH   1   2
BRANCH   1  20
ATOM     20  N   UNL     1       2.406   1.024   0.121  0.00  0.00    +0.389 N 
ATOM     21  H   UNL     1       2.314   0.483   0.989  0.00  0.00    -0.084 HD
ATOM     22  H   UNL     1       2.384   0.386  -0.684  0.00  0.00    -0.084 HD
BRANCH  20  24
ATOM     23  C   UNL     1       4.016   2.188   1.562  0.00  0.00    -0.009 C 
ATOM     24  C   UNL     1       3.691   1.748   0.133  0.00  0.00    -0.043 C 
BRANCH  24  25
ATOM     25  C   UNL     1       4.778   0.834  -0.371  0.00  0.00    -0.062 A 
ATOM     26  C   UNL     1       4.792  -0.497   0.004  0.00  0.00    +0.004 A 
ATOM     27  C   UNL     1       5.787  -1.336  -0.461  0.00  0.00    +0.029 A 
ATOM     28  C   UNL     1       6.773  -0.843  -1.295  0.00  0.00    +0.105 A 
ATOM     29  C   UNL     1       6.762   0.489  -1.666  0.00  0.00    +0.029 A 
ATOM     30  C   UNL     1       5.765   1.327  -1.204  0.00  0.00    +0.004 A 
BRANCH  28  31
ATOM     31  S   UNL     1       8.044  -1.912  -1.884  0.00  0.00    +0.056 S 
ATOM     32  O   UNL     1       7.521  -3.232  -1.832  0.00  0.00    -0.153 OA
ATOM     33  O   UNL     1       8.536  -1.334  -3.086  0.00  0.00    -0.153 OA
BRANCH  31  34
ATOM     34  N   UNL     1       9.283  -1.850  -0.787  0.00  0.00    -0.204 NA
ATOM     35  H   UNL     1       9.206  -1.289   0.000  0.00  0.00    +0.144 HD
ATOM     36  H   UNL     1      10.086  -2.375  -0.933  0.00  0.00    +0.144 HD
ENDBRANCH  31  34
ENDBRANCH  28  31
ENDBRANCH  24  25
ENDBRANCH  20  24
ENDBRANCH   1  20
TORSDOF 7
