REMARK  Name = ZINC22737560
REMARK  6 active torsions:
REMARK  status: ('A' for Active; 'I' for Inactive)
REMARK    1  A    between atoms: C_1  and  C_2
REMARK    2  A    between atoms: C_2  and  C_3
REMARK    3  A    between atoms: C_2  and  C_4
REMARK    4  A    between atoms: C_4  and  C_6
REMARK    5  A    between atoms: C_4  and  N_17
REMARK    6  A    between atoms: C_18  and  C_20
REMARK                            x       y       z     vdW  Elec       q    Type
REMARK                         _______ _______ _______ _____ _____    ______ ____
ROOT
ATOM      1  C   UNL     1      -2.139   7.263  -0.954  0.00  0.00    +0.162 C 
ENDROOT
BRANCH   1   2
ATOM      2  C   UNL     1      -2.159   7.864  -2.336  0.00  0.00    +0.240 C 
ATOM      3  O   UNL     1      -2.314   7.152  -3.305  0.00  0.00    -0.273 OA
ATOM      4  N   UNL     1      -2.003   9.193  -2.495  0.00  0.00    -0.269 N 
ATOM      5  C   UNL     1      -1.705  10.139  -1.416  0.00  0.00    +0.118 C 
ATOM      6  C   UNL     1      -1.622  11.515  -2.098  0.00  0.00    +0.056 C 
ATOM      7  C   UNL     1      -1.897  11.234  -3.558  0.00  0.00    -0.024 A 
ATOM      8  C   UNL     1      -2.108   9.873  -3.713  0.00  0.00    +0.040 A 
ATOM      9  C   UNL     1      -2.383   9.370  -4.986  0.00  0.00    +0.024 A 
ATOM     10  C   UNL     1      -2.444  10.219  -6.070  0.00  0.00    +0.002 A 
ATOM     11  C   UNL     1      -2.232  11.575  -5.905  0.00  0.00    +0.000 A 
ATOM     12  C   UNL     1      -1.959  12.081  -4.647  0.00  0.00    +0.005 A 
ENDBRANCH   1   2
BRANCH   1  13
ATOM     13  N   UNL     1      -1.776   5.846  -1.043  0.00  0.00    -0.303 N 
ATOM     14  C   UNL     1      -1.211   5.228   0.013  0.00  0.00    +0.220 C 
ATOM     15  O   UNL     1      -1.002   5.845   1.036  0.00  0.00    -0.275 OA
ATOM     16  H   UNL     1      -1.966   5.287  -1.971  0.00  0.00    +0.149 HD
BRANCH  14  17
ATOM     17  C   UNL     1      -0.838   3.771  -0.078  0.00  0.00    +0.048 C 
ATOM     18  C   UNL     1       0.174   3.573  -1.208  0.00  0.00    +0.019 C 
ATOM     19  C   UNL     1       0.553   2.094  -1.301  0.00  0.00    -0.009 C 
ATOM     20  C   UNL     1       1.172   1.642   0.024  0.00  0.00    +0.007 C 
ATOM     21  C   UNL     1       0.160   1.840   1.153  0.00  0.00    -0.009 C 
ATOM     22  C   UNL     1      -0.219   3.319   1.246  0.00  0.00    +0.019 C 
ATOM     23  C   UNL     1      -1.093   1.010   0.866  0.00  0.00    +0.007 C 
ATOM     24  C   UNL     1      -1.712   1.461  -0.458  0.00  0.00    -0.009 C 
ATOM     25  C   UNL     1      -0.700   1.264  -1.588  0.00  0.00    +0.007 C 
ATOM     26  C   UNL     1      -2.091   2.941  -0.365  0.00  0.00    +0.019 C 
ENDBRANCH  14  17
ENDBRANCH   1  13
BRANCH   1  28
ATOM     27  C   UNL     1      -4.527   6.544  -1.102  0.00  0.00    +0.009 C 
ATOM     28  C   UNL     1      -3.525   7.396  -0.321  0.00  0.00    +0.012 C 
ATOM     29  C   UNL     1      -3.471   6.915   1.131  0.00  0.00    +0.009 C 
ENDBRANCH   1  28
TORSDOF 4
