REMARK  Name = ZINC22765930
REMARK  13 active torsions:
REMARK  status: ('A' for Active; 'I' for Inactive)
REMARK    1  A    between atoms: C_1  and  C_2
REMARK    2  A    between atoms: C_2  and  C_4
REMARK    3  A    between atoms: C_2  and  N_14
REMARK    4  A    between atoms: N_9  and  C_10
REMARK    5  A    between atoms: C_10  and  C_11
REMARK    6  A    between atoms: C_10  and  C_12
REMARK    7  A    between atoms: C_10  and  C_13
REMARK    8  A    between atoms: N_14  and  C_15
REMARK    9  A    between atoms: C_18  and  N_21
REMARK   10  A    between atoms: C_22  and  C_24
REMARK   11  A    between atoms: C_24  and  C_25
REMARK   12  A    between atoms: C_24  and  C_26
REMARK   13  A    between atoms: C_24  and  C_27
REMARK                            x       y       z     vdW  Elec       q    Type
REMARK                         _______ _______ _______ _____ _____    ______ ____
ROOT
ATOM      1  N   UNL     1      -4.799   3.807   0.174  0.00  0.00    -0.333 N 
ATOM      2  H   UNL     1      -5.754   3.270   0.273  0.00  0.00    +0.147 HD
ENDROOT
BRANCH   1   3
ATOM      3  C   UNL     1      -3.596   3.093   0.132  0.00  0.00    +0.028 A 
ATOM      4  C   UNL     1      -3.608   1.707   0.214  0.00  0.00    +0.025 A 
ATOM      5  C   UNL     1      -2.421   1.003   0.173  0.00  0.00    +0.025 A 
ATOM      6  C   UNL     1      -1.216   1.681   0.049  0.00  0.00    +0.034 A 
ATOM      7  C   UNL     1      -1.204   3.067  -0.028  0.00  0.00    +0.025 A 
ATOM      8  C   UNL     1      -2.391   3.771   0.008  0.00  0.00    +0.025 A 
BRANCH   6   9
ATOM      9  N   UNL     1      -0.011   0.966   0.007  0.00  0.00    -0.285 N 
ATOM     10  C   UNL     1       0.038  -0.237  -0.599  0.00  0.00    +0.223 C 
ATOM     11  O   UNL     1      -0.976  -0.737  -1.039  0.00  0.00    -0.275 OA
ATOM     12  H   UNL     1       0.894   1.386   0.469  0.00  0.00    +0.155 HD
BRANCH  10  13
ATOM     13  C   UNL     1       1.353  -0.961  -0.730  0.00  0.00    +0.039 C 
ATOM     14  C   UNL     1       1.133  -2.293  -1.451  0.00  0.00    +0.020 C 
ATOM     15  C   UNL     1       2.331  -0.102  -1.534  0.00  0.00    +0.020 C 
ATOM     16  C   UNL     1       1.931  -1.225   0.662  0.00  0.00    +0.020 C 
ENDBRANCH  10  13
ENDBRANCH   6   9
ENDBRANCH   1   3
BRANCH   1  18
ATOM     17  C   UNL     1      -4.757   5.692  -1.382  0.00  0.00    +0.038 C 
ATOM     18  C   UNL     1      -4.787   5.269   0.088  0.00  0.00    +0.154 C 
BRANCH  18  19
ATOM     19  C   UNL     1      -6.025   5.822   0.745  0.00  0.00    +0.240 C 
ATOM     20  O   UNL     1      -6.837   5.069   1.237  0.00  0.00    -0.273 OA
ATOM     21  N   UNL     1      -6.229   7.153   0.786  0.00  0.00    -0.239 N 
ATOM     22  C   UNL     1      -7.336   7.648   1.374  0.00  0.00    +0.306 C 
ATOM     23  O   UNL     1      -8.151   6.893   1.867  0.00  0.00    -0.252 OA
ATOM     24  N   UNL     1      -7.540   8.979   1.414  0.00  0.00    -0.294 N 
ATOM     25  H   UNL     1      -5.491   7.837   0.339  0.00  0.00    +0.159 HD
ATOM     26  H   UNL     1      -6.803   9.663   0.968  0.00  0.00    +0.151 HD
BRANCH  24  27
ATOM     27  C   UNL     1      -8.744   9.517   2.053  0.00  0.00    +0.028 C 
ATOM     28  C   UNL     1      -8.774   9.093   3.523  0.00  0.00    +0.031 C 
ATOM     29  C   UNL     1      -8.731  11.044   1.963  0.00  0.00    +0.031 C 
ATOM     30  C   UNL     1      -9.985   8.974   1.341  0.00  0.00    +0.031 C 
ENDBRANCH  24  27
ENDBRANCH  18  19
ENDBRANCH   1  18
TORSDOF 6
