REMARK  Name = ZINC19973398
REMARK  12 active torsions:
REMARK  status: ('A' for Active; 'I' for Inactive)
REMARK    1  A    between atoms: C_1  and  C_2
REMARK    2  A    between atoms: C_2  and  C_3
REMARK    3  A    between atoms: C_3  and  C_4
REMARK    4  A    between atoms: C_3  and  C_5
REMARK    5  A    between atoms: C_3  and  N_6
REMARK    6  A    between atoms: C_7  and  C_11
REMARK    7  A    between atoms: C_11  and  C_13
REMARK    8  A    between atoms: C_11  and  N_28
REMARK    9  A    between atoms: N_28  and  C_29
REMARK   10  A    between atoms: N_28  and  C_36
REMARK   11  A    between atoms: C_29  and  C_30
REMARK   12  A    between atoms: C_36  and  C_37
REMARK                            x       y       z     vdW  Elec       q    Type
REMARK                         _______ _______ _______ _____ _____    ______ ____
ROOT
ATOM      1  C   UNL     1       5.326  -1.763  -2.101  0.00  0.00    +0.163 C 
ENDROOT
BRANCH   1   2
ATOM      2  C   UNL     1       5.854  -1.917  -3.504  0.00  0.00    +0.042 A 
ATOM      3  C   UNL     1       5.710  -3.100  -4.154  0.00  0.00    +0.021 A 
ATOM      4  C   UNL     1       6.232  -3.218  -5.515  0.00  0.00    +0.003 A 
ATOM      5  C   UNL     1       6.111  -4.414  -6.234  0.00  0.00    +0.059 A 
ATOM      6  C   UNL     1       6.612  -4.495  -7.515  0.00  0.00    +0.167 A 
ATOM      7  C   UNL     1       7.241  -3.387  -8.097  0.00  0.00    +0.168 A 
ATOM      8  C   UNL     1       7.365  -2.203  -7.394  0.00  0.00    +0.075 A 
ATOM      9  C   UNL     1       6.865  -2.105  -6.102  0.00  0.00    +0.053 A 
ATOM     10  N   UNL     1       6.979  -0.931  -5.386  0.00  0.00    -0.322 N 
ATOM     11  H   UNL     1       7.476  -0.058  -5.836  0.00  0.00    +0.169 HD
ATOM     12  C   UNL     1       6.489  -0.831  -4.138  0.00  0.00    +0.254 A 
ATOM     13  O   UNL     1       6.603   0.224  -3.538  0.00  0.00    -0.268 OA
ATOM     14  O   UNL     1       7.641  -3.730  -9.356  0.00  0.00    -0.453 OA
ATOM     15  C   UNL     1       6.892  -4.913  -9.690  0.00  0.00    +0.466 C 
ATOM     16  O   UNL     1       6.623  -5.522  -8.414  0.00  0.00    -0.453 OA
ENDBRANCH   1   2
BRANCH   1  18
ATOM     17  N   UNL     1       6.999  -2.359  -0.270  0.00  0.00    -0.222 N 
ATOM     18  C   UNL     1       6.473  -1.497  -1.160  0.00  0.00    +0.174 A 
ATOM     19  N   UNL     1       7.147  -0.379  -1.045  0.00  0.00    -0.111 NA
ATOM     20  N   UNL     1       8.044  -0.547  -0.135  0.00  0.00    -0.023 NA
ATOM     21  N   UNL     1       7.960  -1.744   0.333  0.00  0.00    -0.043 NA
BRANCH  17  22
ATOM     22  C   UNL     1       6.564  -3.738  -0.032  0.00  0.00    +0.062 C 
ATOM     23  C   UNL     1       5.128  -3.736   0.495  0.00  0.00    +0.036 C 
ATOM     24  C   UNL     1       6.625  -4.524  -1.343  0.00  0.00    +0.036 C 
BRANCH  22  26
ATOM     25  C   UNL     1       7.032  -5.832   1.247  0.00  0.00    +0.006 C 
ATOM     26  C   UNL     1       7.486  -4.392   0.999  0.00  0.00    +0.026 C 
ENDBRANCH  22  26
ENDBRANCH  17  22
ENDBRANCH   1  18
BRANCH   1  27
ATOM     27  N   UNL     1       4.382  -0.639  -2.053  0.00  0.00    -0.277 NA
BRANCH  27  28
ATOM     28  C   UNL     1       3.361  -0.764  -3.101  0.00  0.00    +0.121 C 
BRANCH  28  29
ATOM     29  C   UNL     1       2.565   0.513  -3.183  0.00  0.00    -0.033 A 
ATOM     30  C   UNL     1       2.974   1.529  -4.027  0.00  0.00    +0.005 A 
ATOM     31  C   UNL     1       2.245   2.700  -4.102  0.00  0.00    +0.000 A 
ATOM     32  C   UNL     1       1.106   2.856  -3.334  0.00  0.00    +0.000 A 
ATOM     33  C   UNL     1       0.697   1.840  -2.490  0.00  0.00    +0.000 A 
ATOM     34  C   UNL     1       1.427   0.668  -2.415  0.00  0.00    +0.005 A 
ENDBRANCH  28  29
ENDBRANCH  27  28
BRANCH  27  35
ATOM     35  C   UNL     1       3.764  -0.526  -0.726  0.00  0.00    +0.160 C 
BRANCH  35  36
ATOM     36  C   UNL     1       4.762   0.046   0.247  0.00  0.00    +0.119 A 
ATOM     37  C   UNL     1       5.026   1.353   0.426  0.00  0.00    +0.046 A 
ATOM     38  C   UNL     1       6.020   1.437   1.427  0.00  0.00    +0.041 A 
ATOM     39  C   UNL     1       6.305   0.176   1.801  0.00  0.00    +0.195 A 
ATOM     40  O   UNL     1       5.536  -0.662   1.086  0.00  0.00    -0.467 OA
ENDBRANCH  35  36
ENDBRANCH  27  35
ENDBRANCH   1  27
TORSDOF 9
