REMARK  Name = ZINC43223223
REMARK  11 active torsions:
REMARK  status: ('A' for Active; 'I' for Inactive)
REMARK    1  A    between atoms: C_1  and  C_2
REMARK    2  A    between atoms: C_2  and  C_4
REMARK    3  A    between atoms: C_2  and  N_10
REMARK    4  A    between atoms: C_4  and  C_5
REMARK    5  A    between atoms: C_5  and  C_6
REMARK    6  A    between atoms: C_6  and  C_7
REMARK    7  A    between atoms: C_7  and  C_8
REMARK    8  A    between atoms: C_7  and  C_9
REMARK    9  A    between atoms: C_11  and  C_13
REMARK   10  A    between atoms: C_18  and  C_20
REMARK   11  A    between atoms: N_22  and  C_23
REMARK                            x       y       z     vdW  Elec       q    Type
REMARK                         _______ _______ _______ _____ _____    ______ ____
ROOT
ATOM      1  C   UNL     1       0.780  -1.133   3.576  0.00  0.00    +0.068 C 
ATOM      2  C   UNL     1       1.895  -0.143   3.977  0.00  0.00    -0.069 C 
ATOM      3  N   UNL     1       1.272   0.724   5.010  0.00  0.00    +0.380 N 
ATOM      4  C   UNL     1       0.447  -0.208   5.820  0.00  0.00    -0.069 C 
ATOM      5  C   UNL     1      -0.173  -1.178   4.788  0.00  0.00    +0.068 C 
ATOM      6  H   UNL     1       1.982   1.156   5.583  0.00  0.00    -0.086 HD
ATOM      7  H   UNL     1       0.691   1.426   4.578  0.00  0.00    -0.086 HD
ENDROOT
BRANCH   1   9
ATOM      8  N   UNL     1       0.711  -0.489   1.189  0.00  0.00    -0.313 N 
ATOM      9  C   UNL     1       0.051  -0.633   2.355  0.00  0.00    +0.215 C 
ATOM     10  O   UNL     1      -1.129  -0.361   2.423  0.00  0.00    -0.276 OA
ATOM     11  H   UNL     1       1.654  -0.707   1.135  0.00  0.00    +0.149 HD
BRANCH   8  13
ATOM     12  C   UNL     1      -0.019   1.526   0.010  0.00  0.00    +0.028 C 
ATOM     13  C   UNL     1       0.002  -0.004   0.002  0.00  0.00    +0.070 C 
BRANCH  13  14
ATOM     14  C   UNL     1       0.718  -0.497  -1.257  0.00  0.00    +0.022 C 
BRANCH  14  15
ATOM     15  C   UNL     1       0.630  -2.023  -1.329  0.00  0.00    +0.002 C 
BRANCH  15  16
ATOM     16  C   UNL     1       1.347  -2.517  -2.587  0.00  0.00    +0.003 C 
BRANCH  16  17
ATOM     17  C   UNL     1       1.259  -4.043  -2.659  0.00  0.00    -0.017 C 
ATOM     18  C   UNL     1      -0.203  -4.462  -2.834  0.00  0.00    +0.007 C 
ATOM     19  C   UNL     1       2.079  -4.545  -3.849  0.00  0.00    +0.007 C 
ENDBRANCH  16  17
ENDBRANCH  15  16
ENDBRANCH  14  15
ENDBRANCH  13  14
ENDBRANCH   8  13
ENDBRANCH   1   9
BRANCH   5  20
ATOM     20  C   UNL     1      -0.237  -2.574   5.352  0.00  0.00    +0.215 C 
ATOM     21  O   UNL     1       0.413  -3.464   4.844  0.00  0.00    -0.276 OA
ATOM     22  N   UNL     1      -1.017  -2.835   6.420  0.00  0.00    -0.308 N 
ATOM     23  H   UNL     1      -1.537  -2.124   6.826  0.00  0.00    +0.149 HD
BRANCH  22  24
ATOM     24  C   UNL     1      -1.079  -4.192   6.968  0.00  0.00    +0.104 C 
ATOM     25  C   UNL     1      -2.398  -4.397   7.742  0.00  0.00    +0.032 C 
ATOM     26  C   UNL     1      -1.997  -4.026   9.185  0.00  0.00    +0.037 C 
ATOM     27  C   UNL     1      -0.510  -4.301   9.266  0.00  0.00    -0.042 A 
ATOM     28  C   UNL     1       0.019  -4.397   7.990  0.00  0.00    -0.024 A 
ATOM     29  C   UNL     1       1.370  -4.647   7.818  0.00  0.00    +0.006 A 
ATOM     30  C   UNL     1       2.193  -4.801   8.916  0.00  0.00    +0.000 A 
ATOM     31  C   UNL     1       1.668  -4.706  10.191  0.00  0.00    +0.000 A 
ATOM     32  C   UNL     1       0.315  -4.455  10.367  0.00  0.00    +0.004 A 
ENDBRANCH  22  24
ENDBRANCH   5  20
TORSDOF 8
