REMARK  Name = ZINC09685043
REMARK  5 active torsions:
REMARK  status: ('A' for Active; 'I' for Inactive)
REMARK    1  A    between atoms: C_7  and  C_25
REMARK    2  A    between atoms: C_12  and  C_13
REMARK    3  A    between atoms: C_25  and  O_27
REMARK    4  A    between atoms: O_27  and  C_28
REMARK    5  A    between atoms: C_28  and  C_29
REMARK                            x       y       z     vdW  Elec       q    Type
REMARK                         _______ _______ _______ _____ _____    ______ ____
ROOT
ATOM      1  C   UNL     1      -6.268  -0.478   4.002  0.00  0.00    +0.001 A 
ATOM      2  C   UNL     1      -5.468   0.169   4.941  0.00  0.00    +0.002 A 
ATOM      3  C   UNL     1      -4.228   0.624   4.613  0.00  0.00    +0.028 A 
ATOM      4  C   UNL     1      -3.740   0.441   3.305  0.00  0.00    +0.072 A 
ATOM      5  C   UNL     1      -4.559  -0.220   2.354  0.00  0.00    +0.015 A 
ATOM      6  C   UNL     1      -5.828  -0.674   2.725  0.00  0.00    +0.011 A 
ATOM      7  C   UNL     1      -4.043  -0.409   0.998  0.00  0.00    +0.073 A 
ATOM      8  C   UNL     1      -2.772   0.074   0.719  0.00  0.00    -0.007 A 
ATOM      9  C   UNL     1      -2.044   0.722   1.734  0.00  0.00    +0.072 A 
ATOM     10  N   UNL     1      -2.532   0.877   2.954  0.00  0.00    -0.247 NA
ATOM     11  C   UNL     1      -0.694   1.253   1.436  0.00  0.00    -0.021 C 
ATOM     12  C   UNL     1      -0.066   2.078   2.292  0.00  0.00    +0.013 C 
ATOM     13  C   UNL     1      -0.046   0.835   0.134  0.00  0.00    +0.037 C 
ATOM     14  C   UNL     1      -1.118   0.909  -0.962  0.00  0.00    +0.009 C 
ATOM     15  C   UNL     1      -2.213  -0.112  -0.665  0.00  0.00    +0.038 C 
ENDROOT
BRANCH  12  16
ATOM     16  C   UNL     1      -0.799   2.656   3.430  0.00  0.00    -0.021 A 
ATOM     17  C   UNL     1      -2.083   3.178   3.244  0.00  0.00    +0.012 A 
ATOM     18  C   UNL     1      -2.770   3.714   4.313  0.00  0.00    +0.050 A 
ATOM     19  C   UNL     1      -2.188   3.747   5.572  0.00  0.00    +0.166 A 
ATOM     20  C   UNL     1      -0.905   3.233   5.764  0.00  0.00    +0.167 A 
ATOM     21  C   UNL     1      -0.212   2.690   4.699  0.00  0.00    +0.057 A 
ATOM     22  O   UNL     1      -0.566   3.385   7.078  0.00  0.00    -0.453 OA
ATOM     23  C   UNL     1      -1.484   4.363   7.600  0.00  0.00    +0.466 C 
ATOM     24  O   UNL     1      -2.649   4.219   6.766  0.00  0.00    -0.453 OA
ENDBRANCH  12  16
BRANCH   7  25
ATOM     25  C   UNL     1      -4.848  -1.090  -0.038  0.00  0.00    +0.341 C 
ATOM     26  O   UNL     1      -4.764  -2.294  -0.177  0.00  0.00    -0.245 OA
BRANCH  25  27
ATOM     27  O   UNL     1      -5.674  -0.376  -0.827  0.00  0.00    -0.453 OA
BRANCH  27  28
ATOM     28  C   UNL     1      -6.433  -1.111  -1.823  0.00  0.00    +0.308 C 
BRANCH  28  29
ATOM     29  C   UNL     1      -7.295  -0.154  -2.604  0.00  0.00    +0.173 A 
ATOM     30  N   UNL     1      -8.522   0.114  -2.194  0.00  0.00    -0.196 NA
ATOM     31  C   UNL     1      -9.285   0.963  -2.880  0.00  0.00    +0.217 A 
ATOM     32  N   UNL     1      -8.814   1.533  -3.983  0.00  0.00    -0.181 NA
ATOM     33  C   UNL     1      -7.582   1.258  -4.396  0.00  0.00    +0.217 A 
ATOM     34  N   UNL     1      -6.823   0.412  -3.702  0.00  0.00    -0.196 NA
ATOM     35  N   UNL     1      -7.088   1.848  -5.541  0.00  0.00    -0.327 N 
ATOM     36  N   UNL     1     -10.564   1.246  -2.447  0.00  0.00    -0.327 N 
ATOM     37  H   UNL     1      -6.188   1.647  -5.841  0.00  0.00    +0.145 HD
ATOM     38  H   UNL     1      -7.641   2.464  -6.046  0.00  0.00    +0.145 HD
ATOM     39  H   UNL     1     -11.120   1.862  -2.949  0.00  0.00    +0.145 HD
ATOM     40  H   UNL     1     -10.907   0.829  -1.641  0.00  0.00    +0.145 HD
ENDBRANCH  28  29
ENDBRANCH  27  28
ENDBRANCH  25  27
ENDBRANCH   7  25
TORSDOF 5
