REMARK  Name = ZINC58597209
REMARK  7 active torsions:
REMARK  status: ('A' for Active; 'I' for Inactive)
REMARK    1  A    between atoms: C_1  and  C_2
REMARK    2  A    between atoms: C_5  and  C_7
REMARK    3  A    between atoms: C_7  and  C_8
REMARK    4  A    between atoms: N_10  and  N_11
REMARK    5  A    between atoms: C_12  and  C_14
REMARK    6  A    between atoms: C_14  and  N_15
REMARK    7  A    between atoms: C_28  and  C_30
REMARK                            x       y       z     vdW  Elec       q    Type
REMARK                         _______ _______ _______ _____ _____    ______ ____
ROOT
ATOM      1  N   UNL     1      -4.369  -6.523   6.820  0.00  0.00    +0.390 N 
ATOM      2  C   UNL     1      -5.703  -6.896   7.316  0.00  0.00    -0.066 C 
ATOM      3  C   UNL     1      -5.538  -7.709   8.597  0.00  0.00    -0.019 C 
ATOM      4  C   UNL     1      -6.896  -8.304   9.015  0.00  0.00    +0.010 C 
ATOM      5  C   UNL     1      -6.888  -8.216  10.562  0.00  0.00    +0.001 C 
ATOM      6  C   UNL     1      -6.179  -6.863  10.825  0.00  0.00    +0.001 C 
ATOM      7  C   UNL     1      -5.080  -6.796   9.744  0.00  0.00    +0.010 C 
ATOM      8  C   UNL     1      -4.540  -8.817   8.394  0.00  0.00    -0.038 A 
ATOM      9  C   UNL     1      -4.492  -9.851   9.316  0.00  0.00    +0.053 A 
ATOM     10  C   UNL     1      -3.585 -10.886   9.163  0.00  0.00    +0.162 A 
ATOM     11  C   UNL     1      -2.718 -10.886   8.076  0.00  0.00    +0.162 A 
ATOM     12  C   UNL     1      -2.770  -9.850   7.158  0.00  0.00    +0.051 A 
ATOM     13  C   UNL     1      -3.681  -8.817   7.314  0.00  0.00    -0.054 A 
ATOM     14  C   UNL     1      -3.706  -7.716   6.286  0.00  0.00    -0.040 C 
ATOM     15  C   UNL     1      -2.271  -7.362   5.891  0.00  0.00    -0.008 C 
ATOM     16  O   UNL     1      -1.821 -11.894   7.900  0.00  0.00    -0.485 OA
ATOM     17  C   UNL     1      -1.547 -12.717   9.040  0.00  0.00    +0.270 C 
ATOM     18  C   UNL     1      -2.885 -13.096   9.691  0.00  0.00    +0.270 C 
ATOM     19  O   UNL     1      -3.551 -11.890  10.080  0.00  0.00    -0.485 OA
ATOM     20  H   UNL     1      -3.820  -6.143   7.577  0.00  0.00    -0.080 HD
ENDROOT
BRANCH   1  21
ATOM     21  C   UNL     1      -4.503  -5.518   5.757  0.00  0.00    +0.021 C 
BRANCH  21  23
ATOM     22  N   UNL     1      -5.355  -3.207   5.532  0.00  0.00    -0.236 N 
ATOM     23  C   UNL     1      -5.039  -4.237   6.342  0.00  0.00    +0.213 C 
ATOM     24  O   UNL     1      -5.186  -4.133   7.541  0.00  0.00    -0.276 OA
ATOM     25  H   UNL     1      -5.237  -3.291   4.573  0.00  0.00    +0.173 HD
BRANCH  22  28
ATOM     26  C   UNL     1      -6.170  -0.986   5.266  0.00  0.00    +0.235 C 
ATOM     27  O   UNL     1      -6.023  -1.090   4.067  0.00  0.00    -0.274 OA
ATOM     28  N   UNL     1      -5.854  -2.016   6.076  0.00  0.00    -0.234 N 
ATOM     29  H   UNL     1      -5.972  -1.933   7.035  0.00  0.00    +0.173 HD
BRANCH  26  30
ATOM     30  C   UNL     1      -6.707   0.295   5.851  0.00  0.00    +0.160 C 
BRANCH  30  35
ATOM     31  C   UNL     1      -9.435   2.558   2.318  0.00  0.00    +0.066 C 
ATOM     32  C   UNL     1      -8.167   2.359   3.108  0.00  0.00    +0.046 A 
ATOM     33  C   UNL     1      -7.060   3.109   2.874  0.00  0.00    +0.070 A 
ATOM     34  S   UNL     1      -5.937   2.425   4.082  0.00  0.00    -0.080 S 
ATOM     35  C   UNL     1      -6.978   1.278   4.742  0.00  0.00    +0.087 A 
ATOM     36  N   UNL     1      -8.083   1.452   4.061  0.00  0.00    -0.249 NA
ENDBRANCH  30  35
ENDBRANCH  26  30
ENDBRANCH  22  28
ENDBRANCH  21  23
ENDBRANCH   1  21
TORSDOF 5
