REMARK  Name = ZINC39633682
REMARK  6 active torsions:
REMARK  status: ('A' for Active; 'I' for Inactive)
REMARK    1  A    between atoms: C_1  and  C_2
REMARK    2  A    between atoms: C_2  and  N_3
REMARK    3  A    between atoms: C_4  and  C_10
REMARK    4  A    between atoms: C_6  and  C_8
REMARK    5  A    between atoms: C_14  and  C_23
REMARK    6  A    between atoms: N_25  and  C_26
REMARK                            x       y       z     vdW  Elec       q    Type
REMARK                         _______ _______ _______ _____ _____    ______ ____
ROOT
ATOM      1  C   UNL     1      -1.787  -0.489   2.707  0.00  0.00    +0.266 C 
ATOM      2  O   UNL     1      -2.573  -0.826   3.571  0.00  0.00    -0.268 OA
ATOM      3  N   UNL     1      -0.618   0.090   3.048  0.00  0.00    -0.295 N 
ATOM      4  C   UNL     1       0.500   0.473   2.154  0.00  0.00    +0.121 C 
ATOM      5  C   UNL     1       0.999   1.825   2.711  0.00  0.00    +0.100 C 
ATOM      6  C   UNL     1       0.564   1.827   4.186  0.00  0.00    -0.004 C 
ATOM      7  C   UNL     1      -0.164   0.492   4.401  0.00  0.00    +0.115 C 
ATOM      8  C   UNL     1      -0.389   2.988   4.455  0.00  0.00    -0.010 C 
ATOM      9  C   UNL     1      -0.762   3.003   5.940  0.00  0.00    -0.082 C 
ATOM     10  N   UNL     1       0.453   3.143   6.751  0.00  0.00    +0.379 N 
ATOM     11  C   UNL     1       1.322   1.976   6.556  0.00  0.00    -0.082 C 
ATOM     12  C   UNL     1       1.784   1.918   5.098  0.00  0.00    -0.010 C 
ATOM     13  H   UNL     1       0.947   3.978   6.473  0.00  0.00    -0.086 HD
ATOM     14  H   UNL     1       0.200   3.213   7.725  0.00  0.00    -0.086 HD
ENDROOT
BRANCH   1  16
ATOM     15  N   UNL     1      -2.608   0.206   0.407  0.00  0.00    -0.258 N 
ATOM     16  C   UNL     1      -2.111  -0.712   1.290  0.00  0.00    +0.138 A 
ATOM     17  C   UNL     1      -1.973  -1.894   0.582  0.00  0.00    +0.071 A 
ATOM     18  C   UNL     1      -2.408  -1.601  -0.714  0.00  0.00    +0.075 A 
ATOM     19  N   UNL     1      -2.773  -0.345  -0.741  0.00  0.00    -0.175 NA
ATOM     20  C   UNL     1      -2.455  -2.564  -1.873  0.00  0.00    +0.069 C 
ATOM     21 BR   UNL     1      -1.332  -3.551   1.230  0.00  0.00    -0.046 Br
BRANCH  15  23
ATOM     22  C   UNL     1      -4.322   1.696   1.316  0.00  0.00    +0.029 C 
ATOM     23  C   UNL     1      -2.914   1.603   0.725  0.00  0.00    +0.141 C 
ENDBRANCH  15  23
ENDBRANCH   1  16
BRANCH   5  24
ATOM     24  C   UNL     1       2.499   1.916   2.604  0.00  0.00    +0.218 C 
ATOM     25  O   UNL     1       3.168   0.904   2.592  0.00  0.00    -0.275 OA
ATOM     26  N   UNL     1       3.098   3.121   2.523  0.00  0.00    -0.312 N 
ATOM     27  H   UNL     1       2.571   3.931   2.609  0.00  0.00    +0.149 HD
BRANCH  26  28
ATOM     28  C   UNL     1       4.544   3.207   2.303  0.00  0.00    +0.073 C 
ATOM     29  C   UNL     1       5.266   3.025   3.654  0.00  0.00    +0.022 C 
ATOM     30  C   UNL     1       6.686   2.607   3.384  0.00  0.00    +0.002 C 
ATOM     31  C   UNL     1       7.657   3.802   3.351  0.00  0.00    +0.000 C 
ATOM     32  C   UNL     1       7.079   5.021   2.606  0.00  0.00    +0.000 C 
ATOM     33  C   UNL     1       6.349   4.634   1.348  0.00  0.00    +0.002 C 
ATOM     34  C   UNL     1       4.850   4.485   1.677  0.00  0.00    +0.022 C 
ENDBRANCH  26  28
ENDBRANCH   5  24
TORSDOF 4
