REMARK  Name = ZINC20080009
REMARK  8 active torsions:
REMARK  status: ('A' for Active; 'I' for Inactive)
REMARK    1  A    between atoms: C_1  and  O_2
REMARK    2  A    between atoms: O_2  and  C_3
REMARK    3  A    between atoms: C_10  and  C_15
REMARK    4  A    between atoms: C_15  and  C_17
REMARK    5  A    between atoms: C_15  and  N_29
REMARK    6  A    between atoms: N_21  and  C_22
REMARK    7  A    between atoms: C_22  and  C_23
REMARK    8  A    between atoms: N_32  and  C_35
REMARK                            x       y       z     vdW  Elec       q    Type
REMARK                         _______ _______ _______ _____ _____    ______ ____
ROOT
ATOM      1  C   UNL     1       2.905  -0.488   2.352  0.00  0.00    +0.162 C 
ENDROOT
BRANCH   1   9
ATOM      2  C   UNL     1       9.021  -1.231   1.659  0.00  0.00    +0.121 A 
ATOM      3  C   UNL     1       9.330   0.126   1.593  0.00  0.00    +0.047 A 
ATOM      4  C   UNL     1       8.338   1.077   1.689  0.00  0.00    +0.030 A 
ATOM      5  C   UNL     1       7.013   0.686   1.851  0.00  0.00    +0.049 A 
ATOM      6  C   UNL     1       6.696  -0.684   1.917  0.00  0.00    +0.002 A 
ATOM      7  C   UNL     1       7.712  -1.640   1.820  0.00  0.00    +0.055 A 
ATOM      8  C   UNL     1       5.298  -1.081   2.094  0.00  0.00    +0.021 A 
ATOM      9  C   UNL     1       4.354  -0.112   2.176  0.00  0.00    +0.042 A 
ATOM     10  C   UNL     1       4.724   1.248   2.103  0.00  0.00    +0.254 A 
ATOM     11  O   UNL     1       3.859   2.104   2.184  0.00  0.00    -0.268 OA
ATOM     12  N   UNL     1       6.005   1.624   1.947  0.00  0.00    -0.322 N 
ATOM     13  H   UNL     1       6.245   2.696   1.897  0.00  0.00    +0.169 HD
BRANCH   2  15
ATOM     14  C   UNL     1      11.344  -1.665   1.397  0.00  0.00    +0.277 C 
ATOM     15  O   UNL     1      10.012  -2.156   1.563  0.00  0.00    -0.495 OA
ENDBRANCH   2  15
ENDBRANCH   1   9
BRANCH   1  16
ATOM     16  N   UNL     1       2.117   0.066   1.244  0.00  0.00    -0.292 NA
ATOM     17  C   UNL     1       2.610  -0.426  -0.050  0.00  0.00    +0.067 C 
ATOM     18  C   UNL     1       1.816   0.234  -1.180  0.00  0.00    -0.063 C 
ATOM     19  N   UNL     1       0.388  -0.068  -1.014  0.00  0.00    +0.383 N 
ATOM     20  C   UNL     1      -0.105   0.424   0.280  0.00  0.00    -0.063 C 
ATOM     21  C   UNL     1       0.689  -0.236   1.410  0.00  0.00    +0.067 C 
ATOM     22  H   UNL     1       0.268  -1.162  -1.029  0.00  0.00    -0.081 HD
BRANCH  19  23
ATOM     23  C   UNL     1      -0.400   0.486  -2.123  0.00  0.00    -0.068 C 
ATOM     24  C   UNL     1      -0.323   2.014  -2.090  0.00  0.00    -0.015 C 
ATOM     25  C   UNL     1      -1.143   2.591  -3.245  0.00  0.00    -0.002 C 
ATOM     26  C   UNL     1      -2.602   2.151  -3.104  0.00  0.00    -0.000 C 
ATOM     27  C   UNL     1      -2.680   0.624  -3.136  0.00  0.00    -0.002 C 
ATOM     28  C   UNL     1      -1.859   0.046  -1.981  0.00  0.00    -0.015 C 
ENDBRANCH  19  23
ENDBRANCH   1  16
BRANCH   1  29
ATOM     29  C   UNL     1       2.397   0.069   3.657  0.00  0.00    +0.173 A 
ATOM     30  N   UNL     1       2.099   1.320   3.911  0.00  0.00    -0.111 NA
ATOM     31  N   UNL     1       1.700   1.393   5.134  0.00  0.00    -0.023 NA
ATOM     32  N   UNL     1       1.737   0.222   5.667  0.00  0.00    -0.044 NA
ATOM     33  N   UNL     1       2.156  -0.623   4.787  0.00  0.00    -0.225 N 
BRANCH  33  34
ATOM     34  C   UNL     1       2.339  -2.063   4.981  0.00  0.00    +0.179 C 
BRANCH  34  35
ATOM     35  C   UNL     1       3.760  -2.334   5.479  0.00  0.00    +0.140 C 
ATOM     36  C   UNL     1       3.958  -3.848   5.743  0.00  0.00    +0.035 C 
ATOM     37  C   UNL     1       5.498  -3.976   5.587  0.00  0.00    +0.031 C 
ATOM     38  C   UNL     1       5.803  -2.937   4.487  0.00  0.00    +0.160 C 
ATOM     39  O   UNL     1       4.717  -2.003   4.460  0.00  0.00    -0.375 OA
ENDBRANCH  34  35
ENDBRANCH  33  34
ENDBRANCH   1  29
TORSDOF 7
