REMARK  Name = ZINC46007617
REMARK  2 active torsions:
REMARK  status: ('A' for Active; 'I' for Inactive)
REMARK    1  A    between atoms: C_5  and  C_6
REMARK    2  A    between atoms: N_14  and  C_15
REMARK                            x       y       z     vdW  Elec       q    Type
REMARK                         _______ _______ _______ _____ _____    ______ ____
ROOT
ATOM      1  C   UNL     1      -1.308  -0.787   0.007  0.00  0.00    +0.108 C 
ATOM      2  C   UNL     1      -1.622  -1.289   1.432  0.00  0.00    +0.029 C 
ATOM      3  C   UNL     1      -2.207  -2.704   1.181  0.00  0.00    +0.021 C 
ATOM      4  C   UNL     1      -1.363  -3.178  -0.029  0.00  0.00    +0.110 C 
ATOM      5  N   UNL     1      -1.175  -1.969  -0.856  0.00  0.00    -0.278 N 
ATOM      6  C   UNL     1      -0.923  -1.951  -2.180  0.00  0.00    +0.307 C 
ATOM      7  O   UNL     1      -0.786  -0.890  -2.758  0.00  0.00    -0.252 OA
ATOM      8  N   UNL     1      -0.824  -3.108  -2.864  0.00  0.00    -0.268 N 
ATOM      9  H   UNL     1      -0.852  -3.954  -2.391  0.00  0.00    +0.156 HD
ENDROOT
BRANCH   8  10
ATOM     10  C   UNL     1      -0.680  -3.089  -4.258  0.00  0.00    +0.057 A 
ATOM     11  C   UNL     1      -1.140  -2.000  -4.987  0.00  0.00    +0.072 A 
ATOM     12  C   UNL     1      -0.997  -1.983  -6.362  0.00  0.00    +0.144 A 
ATOM     13  C   UNL     1      -0.392  -3.058  -7.013  0.00  0.00    +0.077 A 
ATOM     14  C   UNL     1       0.065  -4.143  -6.284  0.00  0.00    +0.048 A 
ATOM     15  C   UNL     1      -0.073  -4.156  -4.907  0.00  0.00    +0.064 A 
ATOM     16 CL   UNL     1       0.506  -5.512  -3.991  0.00  0.00    -0.082 Cl
ATOM     17  N   UNL     1      -0.256  -3.026  -8.410  0.00  0.00    -0.280 N 
ATOM     18  C   UNL     1      -0.414  -1.850  -9.056  0.00  0.00    +0.255 C 
ATOM     19  O   UNL     1      -0.331  -1.803 -10.265  0.00  0.00    -0.272 OA
ATOM     20  C   UNL     1      -0.695  -0.596  -8.268  0.00  0.00    +0.325 C 
ATOM     21  O   UNL     1      -1.440  -0.924  -7.092  0.00  0.00    -0.481 OA
ATOM     22  H   UNL     1      -0.051  -3.835  -8.904  0.00  0.00    +0.155 HD
ENDBRANCH   8  10
BRANCH   1  27
ATOM     23  C   UNL     1      -0.034   1.375   0.019  0.00  0.00    +0.013 A 
ATOM     24  C   UNL     1       1.145   2.045   0.023  0.00  0.00    +0.045 A 
ATOM     25  S   UNL     1       2.330   0.710   0.015  0.00  0.00    -0.105 S 
ATOM     26  C   UNL     1       1.175  -0.651   0.007  0.00  0.00    +0.050 A 
ATOM     27  C   UNL     1      -0.018  -0.007   0.011  0.00  0.00    -0.020 A 
ENDBRANCH   1  27
TORSDOF 2
