REMARK  Name = ZINC45839797
REMARK  11 active torsions:
REMARK  status: ('A' for Active; 'I' for Inactive)
REMARK    1  A    between atoms: C_1  and  C_2
REMARK    2  A    between atoms: C_2  and  C_4
REMARK    3  A    between atoms: C_2  and  S_20
REMARK    4  A    between atoms: N_6  and  C_7
REMARK    5  A    between atoms: C_12  and  C_13
REMARK    6  A    between atoms: C_13  and  C_14
REMARK    7  A    between atoms: S_20  and  C_21
REMARK    8  A    between atoms: C_24  and  C_27
REMARK    9  A    between atoms: N_25  and  N_26
REMARK   10  A    between atoms: C_30  and  O_33
REMARK   11  A    between atoms: O_33  and  C_34
REMARK                            x       y       z     vdW  Elec       q    Type
REMARK                         _______ _______ _______ _____ _____    ______ ____
ROOT
ATOM      1  C   UNL     1      -0.037   1.542   0.013  0.00  0.00    +0.029 C 
ATOM      2  C   UNL     1      -0.004   0.012   0.004  0.00  0.00    +0.137 C 
ENDROOT
BRANCH   2   3
ATOM      3  C   UNL     1      -1.414  -0.520   0.013  0.00  0.00    +0.230 C 
ATOM      4  O   UNL     1      -1.940  -0.826   1.063  0.00  0.00    -0.274 OA
ATOM      5  N   UNL     1      -2.090  -0.657  -1.144  0.00  0.00    -0.284 N 
ATOM      6  H   UNL     1      -1.695  -0.353  -1.976  0.00  0.00    +0.155 HD
BRANCH   5   7
ATOM      7  C   UNL     1      -3.363  -1.239  -1.147  0.00  0.00    +0.037 A 
ATOM      8  C   UNL     1      -4.224  -1.032  -0.077  0.00  0.00    +0.023 A 
ATOM      9  C   UNL     1      -5.480  -1.607  -0.083  0.00  0.00    +0.002 A 
ATOM     10  C   UNL     1      -5.880  -2.389  -1.151  0.00  0.00    +0.000 A 
ATOM     11  C   UNL     1      -5.024  -2.597  -2.217  0.00  0.00    +0.006 A 
ATOM     12  C   UNL     1      -3.769  -2.019  -2.221  0.00  0.00    -0.022 A 
BRANCH  12  13
ATOM     13  C   UNL     1      -2.840  -2.240  -3.387  0.00  0.00    +0.072 C 
BRANCH  13  14
ATOM     14  C   UNL     1      -1.920  -3.394  -3.084  0.00  0.00    -0.043 A 
ATOM     15  C   UNL     1      -0.711  -3.166  -2.454  0.00  0.00    +0.004 A 
ATOM     16  C   UNL     1       0.134  -4.225  -2.176  0.00  0.00    +0.000 A 
ATOM     17  C   UNL     1      -0.232  -5.511  -2.527  0.00  0.00    +0.000 A 
ATOM     18  C   UNL     1      -1.441  -5.739  -3.156  0.00  0.00    +0.000 A 
ATOM     19  C   UNL     1      -2.288  -4.681  -3.430  0.00  0.00    +0.004 A 
ENDBRANCH  13  14
ENDBRANCH  12  13
ENDBRANCH   5   7
ENDBRANCH   2   3
BRANCH   2  20
ATOM     20  S   UNL     1       0.876  -0.582   1.475  0.00  0.00    -0.072 S 
BRANCH  20  21
ATOM     21  C   UNL     1       2.525  -0.007   1.246  0.00  0.00    +0.209 A 
ATOM     22  N   UNL     1       2.972   0.696   0.230  0.00  0.00    -0.121 NA
ATOM     23  N   UNL     1       4.223   0.947   0.381  0.00  0.00    -0.127 NA
ATOM     24  C   UNL     1       4.653   0.419   1.504  0.00  0.00    +0.182 A 
ATOM     25  N   UNL     1       3.578  -0.203   2.095  0.00  0.00    -0.224 N 
BRANCH  24  26
ATOM     26  C   UNL     1       6.030   0.486   2.035  0.00  0.00    +0.021 A 
ATOM     27  C   UNL     1       6.427  -0.373   3.062  0.00  0.00    +0.015 A 
ATOM     28  C   UNL     1       7.713  -0.308   3.555  0.00  0.00    +0.046 A 
ATOM     29  C   UNL     1       8.613   0.610   3.031  0.00  0.00    +0.127 A 
ATOM     30  C   UNL     1       8.223   1.466   2.009  0.00  0.00    +0.046 A 
ATOM     31  C   UNL     1       6.941   1.403   1.507  0.00  0.00    +0.015 A 
BRANCH  29  32
ATOM     32  O   UNL     1       9.880   0.672   3.519  0.00  0.00    -0.434 OA
BRANCH  32  33
ATOM     33  C   UNL     1      10.754   1.639   2.935  0.00  0.00    +0.541 C 
ATOM     34  F   UNL     1      10.891   1.378   1.567  0.00  0.00    -0.166 F 
ATOM     35  F   UNL     1      10.220   2.920   3.114  0.00  0.00    -0.166 F 
ENDBRANCH  32  33
ENDBRANCH  29  32
ENDBRANCH  24  26
BRANCH  25  36
ATOM     36  N   UNL     1       3.565  -0.878   3.283  0.00  0.00    -0.295 N 
ATOM     37  H   UNL     1       3.778  -1.855   3.145  0.00  0.00    +0.163 HD
ATOM     38  H   UNL     1       4.201  -0.459   3.944  0.00  0.00    +0.163 HD
ENDBRANCH  25  36
ENDBRANCH  20  21
ENDBRANCH   2  20
TORSDOF 10
