REMARK  Name = ZINC39634937
REMARK  11 active torsions:
REMARK  status: ('A' for Active; 'I' for Inactive)
REMARK    1  A    between atoms: C_1  and  O_2
REMARK    2  A    between atoms: O_2  and  C_3
REMARK    3  A    between atoms: C_6  and  C_9
REMARK    4  A    between atoms: C_9  and  C_10
REMARK    5  A    between atoms: C_10  and  N_11
REMARK    6  A    between atoms: C_12  and  C_14
REMARK    7  A    between atoms: C_25  and  C_27
REMARK    8  A    between atoms: C_29  and  O_35
REMARK    9  A    between atoms: C_31  and  O_33
REMARK   10  A    between atoms: O_33  and  C_34
REMARK   11  A    between atoms: O_35  and  C_36
REMARK                            x       y       z     vdW  Elec       q    Type
REMARK                         _______ _______ _______ _____ _____    ______ ____
ROOT
ATOM      1  C   UNL     1       6.460  -4.709  -5.761  0.00  0.00    +0.100 C 
ATOM      2  C   UNL     1       5.962  -6.076  -6.281  0.00  0.00    +0.121 C 
ATOM      3  N   UNL     1       7.189  -6.775  -6.730  0.00  0.00    -0.296 N 
ATOM      4  C   UNL     1       8.207  -6.423  -5.712  0.00  0.00    +0.115 C 
ATOM      5  C   UNL     1       7.933  -4.941  -5.388  0.00  0.00    -0.004 C 
ATOM      6  C   UNL     1       8.838  -4.042  -6.226  0.00  0.00    -0.010 C 
ATOM      7  C   UNL     1      10.294  -4.250  -5.797  0.00  0.00    -0.082 C 
ATOM      8  N   UNL     1      10.436  -3.930  -4.372  0.00  0.00    +0.379 N 
ATOM      9  C   UNL     1       9.634  -4.859  -3.567  0.00  0.00    -0.082 C 
ATOM     10  C   UNL     1       8.150  -4.678  -3.901  0.00  0.00    -0.010 C 
ATOM     11  C   UNL     1       7.344  -7.555  -7.818  0.00  0.00    +0.247 C 
ATOM     12  O   UNL     1       6.446  -7.648  -8.633  0.00  0.00    -0.270 OA
ATOM     13  H   UNL     1      11.406  -4.008  -4.106  0.00  0.00    -0.086 HD
ATOM     14  H   UNL     1      10.120  -2.986  -4.207  0.00  0.00    -0.086 HD
ENDROOT
BRANCH  11  15
ATOM     15  C   UNL     1       8.606  -8.298  -8.022  0.00  0.00    +0.044 A 
ATOM     16  C   UNL     1       9.448  -8.556  -6.939  0.00  0.00    +0.059 A 
ATOM     17  C   UNL     1      10.629  -9.253  -7.134  0.00  0.00    +0.124 A 
ATOM     18  C   UNL     1      10.976  -9.694  -8.403  0.00  0.00    +0.091 A 
ATOM     19  C   UNL     1      10.141  -9.440  -9.482  0.00  0.00    +0.124 A 
ATOM     20  C   UNL     1       8.956  -8.748  -9.295  0.00  0.00    +0.059 A 
BRANCH  19  21
ATOM     21  O   UNL     1      10.485  -9.874 -10.723  0.00  0.00    -0.495 OA
ATOM     22  C   UNL     1      11.719 -10.585 -10.843  0.00  0.00    +0.277 C 
ENDBRANCH  19  21
BRANCH  17  23
ATOM     23  O   UNL     1      11.450  -9.505  -6.081  0.00  0.00    -0.495 OA
ATOM     24  C   UNL     1      12.652 -10.228  -6.353  0.00  0.00    +0.277 C 
ENDBRANCH  17  23
ENDBRANCH  11  15
BRANCH   1  26
ATOM     25  N   UNL     1       5.476  -2.982  -4.288  0.00  0.00    -0.315 N 
ATOM     26  C   UNL     1       5.671  -4.290  -4.547  0.00  0.00    +0.218 C 
ATOM     27  O   UNL     1       5.211  -5.131  -3.804  0.00  0.00    -0.275 OA
ATOM     28  H   UNL     1       5.844  -2.310  -4.883  0.00  0.00    +0.149 HD
BRANCH  25  29
ATOM     29  C   UNL     1       4.710  -2.575  -3.108  0.00  0.00    +0.109 C 
BRANCH  29  30
ATOM     30  C   UNL     1       4.638  -1.048  -3.048  0.00  0.00    +0.054 C 
BRANCH  30  34
ATOM     31  C   UNL     1       2.401   0.140   0.394  0.00  0.00    +0.120 A 
ATOM     32  C   UNL     1       3.775  -0.032   0.483  0.00  0.00    +0.046 A 
ATOM     33  C   UNL     1       4.496  -0.416  -0.631  0.00  0.00    +0.007 A 
ATOM     34  C   UNL     1       3.849  -0.629  -1.834  0.00  0.00    -0.046 A 
ATOM     35  C   UNL     1       2.480  -0.459  -1.926  0.00  0.00    +0.007 A 
ATOM     36  C   UNL     1       1.754  -0.081  -0.813  0.00  0.00    +0.046 A 
BRANCH  31  38
ATOM     37  C   UNL     1       2.422   0.726   2.698  0.00  0.00    +0.277 C 
ATOM     38  O   UNL     1       1.690   0.517   1.489  0.00  0.00    -0.495 OA
ENDBRANCH  31  38
ENDBRANCH  30  34
ENDBRANCH  29  30
ENDBRANCH  25  29
ENDBRANCH   1  26
TORSDOF 8
