REMARK  Name = ZINC36541091
REMARK  15 active torsions:
REMARK  status: ('A' for Active; 'I' for Inactive)
REMARK    1  A    between atoms: C_1  and  C_2
REMARK    2  A    between atoms: C_2  and  C_3
REMARK    3  A    between atoms: C_2  and  C_4
REMARK    4  A    between atoms: C_4  and  C_5
REMARK    5  A    between atoms: N_7  and  C_8
REMARK    6  A    between atoms: N_7  and  C_15
REMARK    7  A    between atoms: C_15  and  C_17
REMARK    8  A    between atoms: C_15  and  C_26
REMARK    9  A    between atoms: C_18  and  O_25
REMARK   10  A    between atoms: C_20  and  O_24
REMARK   11  A    between atoms: C_22  and  O_23
REMARK   12  A    between atoms: N_28  and  C_29
REMARK   13  A    between atoms: C_29  and  C_30
REMARK   14  A    between atoms: C_29  and  C_31
REMARK   15  A    between atoms: C_29  and  C_32
REMARK                            x       y       z     vdW  Elec       q    Type
REMARK                         _______ _______ _______ _____ _____    ______ ____
ROOT
ATOM      1  C   UNL     1      -2.279  -4.173  -0.250  0.00  0.00    +0.204 C 
ENDROOT
BRANCH   1   2
ATOM      2  C   UNL     1      -3.186  -3.622  -1.319  0.00  0.00    +0.065 A 
ATOM      3  C   UNL     1      -3.797  -2.389  -1.143  0.00  0.00    +0.129 A 
ATOM      4  C   UNL     1      -4.632  -1.882  -2.128  0.00  0.00    +0.091 A 
ATOM      5  C   UNL     1      -4.856  -2.607  -3.288  0.00  0.00    +0.124 A 
ATOM      6  C   UNL     1      -4.245  -3.840  -3.465  0.00  0.00    +0.091 A 
ATOM      7  C   UNL     1      -3.406  -4.345  -2.482  0.00  0.00    +0.129 A 
BRANCH   7   8
ATOM      8  O   UNL     1      -2.803  -5.550  -2.657  0.00  0.00    -0.506 OA
ATOM      9  H   UNL     1      -3.319  -6.299  -2.329  0.00  0.00    +0.292 HD
ENDBRANCH   7   8
BRANCH   5  10
ATOM     10  O   UNL     1      -5.675  -2.111  -4.252  0.00  0.00    -0.507 OA
ATOM     11  H   UNL     1      -5.221  -1.570  -4.913  0.00  0.00    +0.292 HD
ENDBRANCH   5  10
BRANCH   3  12
ATOM     12  O   UNL     1      -3.578  -1.679  -0.006  0.00  0.00    -0.506 OA
ATOM     13  H   UNL     1      -2.864  -1.030  -0.079  0.00  0.00    +0.292 HD
ENDBRANCH   3  12
ENDBRANCH   1   2
BRANCH   1  14
ATOM     14  C   UNL     1      -3.105  -4.618   0.929  0.00  0.00    +0.239 C 
ATOM     15  O   UNL     1      -3.481  -3.805   1.748  0.00  0.00    -0.273 OA
ATOM     16  N   UNL     1      -3.426  -5.919   1.075  0.00  0.00    -0.309 N 
ATOM     17  H   UNL     1      -3.125  -6.569   0.421  0.00  0.00    +0.149 HD
BRANCH  16  18
ATOM     18  C   UNL     1      -4.229  -6.351   2.221  0.00  0.00    +0.026 C 
ATOM     19  C   UNL     1      -5.582  -5.638   2.195  0.00  0.00    +0.031 C 
ATOM     20  C   UNL     1      -4.448  -7.864   2.149  0.00  0.00    +0.031 C 
ATOM     21  C   UNL     1      -3.495  -6.004   3.518  0.00  0.00    +0.031 C 
ENDBRANCH  16  18
ENDBRANCH   1  14
BRANCH   1  24
ATOM     22  C   UNL     1      -0.719  -2.367  -0.742  0.00  0.00    +0.221 C 
ATOM     23  O   UNL     1      -0.938  -2.539  -1.923  0.00  0.00    -0.275 OA
ATOM     24  N   UNL     1      -1.339  -3.133   0.177  0.00  0.00    -0.254 N 
BRANCH  24  25
ATOM     25  C   UNL     1      -1.086  -2.935   1.539  0.00  0.00    +0.056 A 
ATOM     26  C   UNL     1      -1.748  -1.929   2.231  0.00  0.00    +0.025 A 
ATOM     27  C   UNL     1      -1.496  -1.736   3.575  0.00  0.00    +0.002 A 
ATOM     28  C   UNL     1      -0.586  -2.543   4.233  0.00  0.00    +0.002 A 
ATOM     29  C   UNL     1       0.076  -3.545   3.548  0.00  0.00    +0.022 A 
ATOM     30  C   UNL     1      -0.175  -3.748   2.204  0.00  0.00    +0.062 A 
ATOM     31 CL   UNL     1       0.650  -5.011   1.345  0.00  0.00    -0.082 Cl
ENDBRANCH  24  25
BRANCH  22  32
ATOM     32  C   UNL     1       0.248  -1.298  -0.304  0.00  0.00    +0.099 C 
BRANCH  32  34
ATOM     33  C   UNL     1       1.692   0.585  -1.086  0.00  0.00    +0.008 C 
ATOM     34  C   UNL     1       0.808  -0.581  -1.534  0.00  0.00    -0.008 C 
ATOM     35  C   UNL     1       1.639  -1.562  -2.362  0.00  0.00    +0.008 C 
ENDBRANCH  32  34
ENDBRANCH  22  32
ENDBRANCH   1  24
TORSDOF 10
