REMARK  Name = ZINC20206678
REMARK  11 active torsions:
REMARK  status: ('A' for Active; 'I' for Inactive)
REMARK    1  A    between atoms: C_1  and  C_2
REMARK    2  A    between atoms: C_2  and  S_3
REMARK    3  A    between atoms: S_3  and  C_6
REMARK    4  A    between atoms: C_14  and  C_15
REMARK    5  A    between atoms: C_18  and  O_21
REMARK    6  A    between atoms: O_21  and  C_22
REMARK    7  A    between atoms: C_22  and  C_23
REMARK    8  A    between atoms: C_23  and  O_24
REMARK    9  A    between atoms: O_24  and  C_25
REMARK   10  A    between atoms: C_28  and  O_31
REMARK   11  A    between atoms: O_31  and  C_32
REMARK                            x       y       z     vdW  Elec       q    Type
REMARK                         _______ _______ _______ _____ _____    ______ ____
ROOT
ATOM      1  C   UNL     1      -0.394   1.841  -3.451  0.00  0.00    +0.257 C 
ATOM      2  N   UNL     1       0.184   2.970  -3.723  0.00  0.00    -0.174 NA
ATOM      3  S   UNL     1       1.752   2.543  -4.134  0.00  0.00    +0.049 S 
ATOM      4  C   UNL     1       1.626   0.886  -3.998  0.00  0.00    +0.183 C 
ATOM      5  N   UNL     1       2.511  -0.054  -4.241  0.00  0.00    -0.152 NA
ATOM      6  C   UNL     1       2.155  -1.347  -4.120  0.00  0.00    +0.273 C 
ATOM      7  O   UNL     1       2.987  -2.235  -4.210  0.00  0.00    -0.268 OA
ATOM      8  C   UNL     1       0.727  -1.665  -3.873  0.00  0.00    +0.079 C 
ATOM      9  C   UNL     1       0.179  -2.875  -4.233  0.00  0.00    +0.024 C 
ATOM     10  C   UNL     1      -0.082  -0.600  -3.212  0.00  0.00    +0.138 C 
ATOM     11  N   UNL     1      -1.074  -0.850  -2.402  0.00  0.00    -0.284 NA
ATOM     12  N   UNL     1       0.336   0.704  -3.544  0.00  0.00    -0.201 N 
ATOM     13  H   UNL     1      -1.319  -1.768  -2.203  0.00  0.00    +0.188 HD
ENDROOT
BRANCH   9  14
ATOM     14  C   UNL     1       0.954  -3.818  -5.043  0.00  0.00    -0.024 A 
ATOM     15  C   UNL     1       0.863  -5.196  -4.800  0.00  0.00    +0.011 A 
ATOM     16  C   UNL     1       1.591  -6.073  -5.561  0.00  0.00    +0.046 A 
ATOM     17  C   UNL     1       2.419  -5.599  -6.573  0.00  0.00    +0.121 A 
ATOM     18  C   UNL     1       2.514  -4.233  -6.819  0.00  0.00    +0.046 A 
ATOM     19  C   UNL     1       1.786  -3.346  -6.069  0.00  0.00    +0.011 A 
BRANCH  17  20
ATOM     20  O   UNL     1       3.138  -6.472  -7.323  0.00  0.00    -0.489 OA
BRANCH  20  21
ATOM     21  C   UNL     1       3.968  -5.918  -8.346  0.00  0.00    +0.270 C 
BRANCH  21  22
ATOM     22  C   UNL     1       4.695  -7.048  -9.080  0.00  0.00    +0.270 C 
BRANCH  22  23
ATOM     23  O   UNL     1       3.741  -7.860  -9.766  0.00  0.00    -0.489 OA
BRANCH  23  24
ATOM     24  C   UNL     1       4.225  -8.916 -10.473  0.00  0.00    +0.121 A 
ATOM     25  C   UNL     1       5.589  -9.166 -10.500  0.00  0.00    +0.049 A 
ATOM     26  C   UNL     1       6.080 -10.239 -11.218  0.00  0.00    +0.049 A 
ATOM     27  C   UNL     1       5.210 -11.066 -11.913  0.00  0.00    +0.120 A 
ATOM     28  C   UNL     1       3.846 -10.816 -11.885  0.00  0.00    +0.049 A 
ATOM     29  C   UNL     1       3.354  -9.746 -11.164  0.00  0.00    +0.049 A 
BRANCH  27  30
ATOM     30  O   UNL     1       5.694 -12.121 -12.621  0.00  0.00    -0.495 OA
ATOM     31  C   UNL     1       4.741 -12.931 -13.312  0.00  0.00    +0.277 C 
ENDBRANCH  27  30
ENDBRANCH  23  24
ENDBRANCH  22  23
ENDBRANCH  21  22
ENDBRANCH  20  21
ENDBRANCH  17  20
ENDBRANCH   9  14
BRANCH   1  32
ATOM     32  S   UNL     1      -2.086   1.788  -2.963  0.00  0.00    +0.029 S 
ATOM     33  O   UNL     1      -2.577   0.564  -3.491  0.00  0.00    -0.167 OA
ATOM     34  O   UNL     1      -2.626   3.031  -3.393  0.00  0.00    -0.167 OA
BRANCH  32  36
ATOM     35  C   UNL     1      -3.478   1.667  -0.612  0.00  0.00    +0.028 C 
ATOM     36  C   UNL     1      -2.047   1.717  -1.151  0.00  0.00    +0.172 C 
ENDBRANCH  32  36
ENDBRANCH   1  32
TORSDOF 9
