REMARK  Name = ZINC20701032
REMARK  3 active torsions:
REMARK  status: ('A' for Active; 'I' for Inactive)
REMARK    1  A    between atoms: C_6  and  O_7
REMARK    2  A    between atoms: C_15  and  C_18
REMARK    3  A    between atoms: C_23  and  O_24
REMARK                            x       y       z     vdW  Elec       q    Type
REMARK                         _______ _______ _______ _____ _____    ______ ____
ROOT
ATOM      1  C   UNL     1       7.194   3.324   0.109  0.00  0.00    +0.047 A 
ATOM      2  C   UNL     1       5.889   3.128   0.514  0.00  0.00    +0.027 A 
ATOM      3  C   UNL     1       4.876   3.955   0.047  0.00  0.00    +0.032 A 
ATOM      4  C   UNL     1       5.194   4.998  -0.830  0.00  0.00    -0.016 A 
ATOM      5  C   UNL     1       6.497   5.185  -1.238  0.00  0.00    +0.051 A 
ATOM      6  C   UNL     1       7.502   4.350  -0.771  0.00  0.00    +0.117 A 
ATOM      7  C   UNL     1       4.090   5.873  -1.280  0.00  0.00    +0.049 C 
ATOM      8  C   UNL     1       4.140   6.603  -2.572  0.00  0.00    -0.023 C 
ATOM      9  C   UNL     1       2.902   6.729  -3.036  0.00  0.00    -0.030 C 
ATOM     10  C   UNL     1       1.915   6.050  -2.084  0.00  0.00    +0.033 C 
ATOM     11  C   UNL     1       2.808   4.997  -1.413  0.00  0.00    +0.029 C 
ATOM     12  C   UNL     1       2.447   4.590   0.005  0.00  0.00    +0.109 C 
ATOM     13  N   UNL     1       3.557   3.726   0.465  0.00  0.00    -0.336 N 
ATOM     14  H   UNL     1       3.354   2.886   1.146  0.00  0.00    +0.147 HD
ENDROOT
BRANCH  12  15
ATOM     15  C   UNL     1       1.151   3.821   0.012  0.00  0.00    +0.017 A 
ATOM     16  C   UNL     1       1.168   2.439   0.004  0.00  0.00    +0.029 A 
ATOM     17  C   UNL     1      -0.021   1.732   0.012  0.00  0.00    +0.043 A 
ATOM     18  C   UNL     1      -1.230   2.406   0.021  0.00  0.00    +0.043 A 
ATOM     19  C   UNL     1      -1.250   3.788   0.034  0.00  0.00    +0.084 A 
ATOM     20  C   UNL     1      -0.058   4.499   0.027  0.00  0.00    +0.140 A 
ATOM     21 CL   UNL     1      -2.766   4.635   0.054  0.00  0.00    -0.080 Cl
ATOM     22 CL   UNL     1       0.002  -0.004   0.002  0.00  0.00    -0.083 Cl
BRANCH  20  23
ATOM     23  O   UNL     1      -0.075   5.858   0.036  0.00  0.00    -0.505 OA
ATOM     24  H   UNL     1      -1.035   6.396   0.048  0.00  0.00    +0.292 HD
ENDBRANCH  20  23
ENDBRANCH  12  15
BRANCH   6  25
ATOM     25  O   UNL     1       8.786   4.538  -1.176  0.00  0.00    -0.507 OA
ATOM     26  H   UNL     1       9.029   5.353  -1.875  0.00  0.00    +0.292 HD
ENDBRANCH   6  25
TORSDOF 3
