REMARK  Name = ZINC09505441
REMARK  11 active torsions:
REMARK  status: ('A' for Active; 'I' for Inactive)
REMARK    1  A    between atoms: C_1  and  N_61
REMARK    2  A    between atoms: C_2  and  N_61
REMARK    3  A    between atoms: C_3  and  C_4
REMARK    4  A    between atoms: C_3  and  N_61
REMARK    5  A    between atoms: C_4  and  C_5
REMARK    6  A    between atoms: C_5  and  N_6
REMARK    7  A    between atoms: C_12  and  O_16
REMARK    8  A    between atoms: O_16  and  C_17
REMARK    9  A    between atoms: C_18  and  C_20
REMARK   10  A    between atoms: N_25  and  S_26
REMARK   11  A    between atoms: S_26  and  C_29
REMARK                            x       y       z     vdW  Elec       q    Type
REMARK                         _______ _______ _______ _____ _____    ______ ____
ROOT
ATOM      1  N   UNL     1      -0.129   6.287   3.305  0.00  0.00    -0.249 N 
ATOM      2  C   UNL     1       1.208   6.022   3.558  0.00  0.00    +0.168 A 
ATOM      3  N   UNL     1       1.986   6.526   4.486  0.00  0.00    -0.224 NA
ATOM      4  C   UNL     1       3.283   6.170   4.620  0.00  0.00    +0.081 A 
ATOM      5  C   UNL     1       4.221   6.631   5.572  0.00  0.00    +0.032 A 
ATOM      6  C   UNL     1       5.510   6.170   5.568  0.00  0.00    +0.048 A 
ATOM      7  C   UNL     1       5.944   5.235   4.633  0.00  0.00    +0.121 A 
ATOM      8  C   UNL     1       5.050   4.762   3.684  0.00  0.00    +0.063 A 
ATOM      9  C   UNL     1       3.756   5.221   3.684  0.00  0.00    +0.044 A 
ATOM     10  S   UNL     1       2.312   4.911   2.697  0.00  0.00    -0.052 S 
ATOM     11  C   UNL     1      -0.798   5.561   2.388  0.00  0.00    +0.240 C 
ATOM     12  O   UNL     1      -1.933   5.863   2.086  0.00  0.00    -0.273 OA
ENDROOT
BRANCH  11  13
ATOM     13  C   UNL     1      -0.137   4.374   1.737  0.00  0.00    +0.166 C 
ATOM     14  C   UNL     1       0.730   4.838   0.547  0.00  0.00    +0.031 C 
ATOM     15  C   UNL     1      -0.202   4.607  -0.671  0.00  0.00    +0.019 C 
ATOM     16  C   UNL     1      -0.950   3.315  -0.248  0.00  0.00    +0.110 C 
ATOM     17  N   UNL     1      -1.159   3.462   1.204  0.00  0.00    -0.164 NA
BRANCH  17  18
ATOM     18  S   UNL     1      -2.344   2.717   2.088  0.00  0.00    +0.068 S 
ATOM     19  O   UNL     1      -1.874   2.656   3.428  0.00  0.00    -0.152 OA
ATOM     20  O   UNL     1      -2.726   1.558   1.361  0.00  0.00    -0.152 OA
BRANCH  18  21
ATOM     21  C   UNL     1      -3.742   3.791   2.094  0.00  0.00    +0.143 A 
ATOM     22  C   UNL     1      -4.782   3.842   1.227  0.00  0.00    +0.036 A 
ATOM     23  C   UNL     1      -5.777   4.781   1.428  0.00  0.00    +0.010 A 
ATOM     24  C   UNL     1      -5.688   5.614   2.493  0.00  0.00    +0.047 A 
ATOM     25  S   UNL     1      -4.159   5.086   3.249  0.00  0.00    -0.077 S 
ENDBRANCH  18  21
ENDBRANCH  17  18
ENDBRANCH  11  13
BRANCH   7  26
ATOM     26  O   UNL     1       7.229   4.791   4.648  0.00  0.00    -0.495 OA
ATOM     27  C   UNL     1       8.088   5.327   5.657  0.00  0.00    +0.277 C 
ENDBRANCH   7  26
BRANCH   1  28
ATOM     28  C   UNL     1      -0.814   7.356   4.035  0.00  0.00    +0.114 C 
BRANCH  28  29
ATOM     29  C   UNL     1      -1.320   6.817   5.374  0.00  0.00    +0.001 C 
BRANCH  29  30
ATOM     30  C   UNL     1      -2.154   7.891   6.075  0.00  0.00    -0.078 C 
BRANCH  30  33
ATOM     31  C   UNL     1      -1.526   7.136   8.288  0.00  0.00    -0.097 C 
ATOM     32  C   UNL     1      -3.634   8.279   7.952  0.00  0.00    -0.097 C 
ATOM     33  N   UNL     1      -2.653   7.348   7.356  0.00  0.00    +0.376 N 
ATOM     34  H   UNL     1      -3.114   6.447   7.179  0.00  0.00    -0.083 HD
ENDBRANCH  30  33
ENDBRANCH  29  30
ENDBRANCH  28  29
ENDBRANCH   1  28
TORSDOF 8
