REMARK  Name = ZINC06566065
REMARK  14 active torsions:
REMARK  status: ('A' for Active; 'I' for Inactive)
REMARK    1  A    between atoms: C_1  and  C_2
REMARK    2  A    between atoms: C_2  and  C_3
REMARK    3  A    between atoms: C_10  and  C_15
REMARK    4  A    between atoms: C_15  and  N_74
REMARK    5  A    between atoms: C_16  and  C_17
REMARK    6  A    between atoms: C_16  and  N_74
REMARK    7  A    between atoms: C_17  and  C_18
REMARK    8  A    between atoms: C_21  and  O_26
REMARK    9  A    between atoms: C_22  and  O_24
REMARK   10  A    between atoms: O_24  and  C_25
REMARK   11  A    between atoms: O_26  and  C_27
REMARK   12  A    between atoms: C_28  and  C_29
REMARK   13  A    between atoms: C_28  and  N_74
REMARK   14  A    between atoms: N_33  and  C_34
REMARK                            x       y       z     vdW  Elec       q    Type
REMARK                         _______ _______ _______ _____ _____    ______ ____
ROOT
ATOM      1  N   UNL     1      -0.830   1.555  -0.985  0.00  0.00    +0.387 N 
ATOM      2  H   UNL     1      -1.843   1.399  -0.925  0.00  0.00    -0.081 HD
ENDROOT
BRANCH   1   3
ATOM      3  C   UNL     1      -0.275   0.701  -2.057  0.00  0.00    -0.037 C 
BRANCH   3  11
ATOM      4  C   UNL     1      -4.301  -3.853  -3.215  0.00  0.00    -0.047 A 
ATOM      5  C   UNL     1      -3.725  -4.790  -2.368  0.00  0.00    +0.005 A 
ATOM      6  C   UNL     1      -2.600  -4.477  -1.635  0.00  0.00    +0.026 A 
ATOM      7  C   UNL     1      -2.036  -3.210  -1.742  0.00  0.00    +0.049 A 
ATOM      8  C   UNL     1      -2.624  -2.263  -2.602  0.00  0.00    -0.001 A 
ATOM      9  C   UNL     1      -3.764  -2.603  -3.337  0.00  0.00    +0.013 A 
ATOM     10  C   UNL     1      -2.026  -0.930  -2.704  0.00  0.00    +0.017 A 
ATOM     11  C   UNL     1      -0.918  -0.659  -1.971  0.00  0.00    +0.001 A 
ATOM     12  C   UNL     1      -0.368  -1.645  -1.123  0.00  0.00    +0.251 A 
ATOM     13  O   UNL     1       0.626  -1.379  -0.470  0.00  0.00    -0.268 OA
ATOM     14  N   UNL     1      -0.913  -2.870  -1.020  0.00  0.00    -0.322 N 
ATOM     15  H   UNL     1      -0.497  -3.544  -0.409  0.00  0.00    +0.169 HD
BRANCH   4  17
ATOM     16  C   UNL     1      -5.111  -4.806  -5.356  0.00  0.00    +0.009 C 
ATOM     17  C   UNL     1      -5.530  -4.219  -4.007  0.00  0.00    +0.032 C 
ENDBRANCH   4  17
ENDBRANCH   3  11
ENDBRANCH   1   3
BRANCH   1  18
ATOM     18  C   UNL     1      -0.212   1.205   0.311  0.00  0.00    -0.073 C 
BRANCH  18  19
ATOM     19  C   UNL     1      -0.958   1.939   1.427  0.00  0.00    +0.017 C 
BRANCH  19  20
ATOM     20  C   UNL     1      -0.353   1.576   2.759  0.00  0.00    -0.045 A 
ATOM     21  C   UNL     1      -0.843   0.493   3.466  0.00  0.00    +0.007 A 
ATOM     22  C   UNL     1      -0.288   0.152   4.686  0.00  0.00    +0.049 A 
ATOM     23  C   UNL     1       0.754   0.902   5.207  0.00  0.00    +0.161 A 
ATOM     24  C   UNL     1       1.243   1.995   4.497  0.00  0.00    +0.162 A 
ATOM     25  C   UNL     1       0.686   2.328   3.273  0.00  0.00    +0.053 A 
BRANCH  24  26
ATOM     26  O   UNL     1       2.266   2.734   5.004  0.00  0.00    -0.491 OA
ATOM     27  C   UNL     1       2.717   3.841   4.221  0.00  0.00    +0.277 C 
ENDBRANCH  24  26
BRANCH  23  28
ATOM     28  O   UNL     1       1.298   0.571   6.408  0.00  0.00    -0.491 OA
ATOM     29  C   UNL     1       0.745  -0.562   7.080  0.00  0.00    +0.277 C 
ENDBRANCH  23  28
ENDBRANCH  19  20
ENDBRANCH  18  19
ENDBRANCH   1  18
BRANCH   1  30
ATOM     30  C   UNL     1      -0.582   2.979  -1.295  0.00  0.00    +0.001 C 
BRANCH  30  31
ATOM     31  C   UNL     1      -1.488   3.394  -2.426  0.00  0.00    +0.135 A 
ATOM     32  N   UNL     1      -1.189   3.409  -3.702  0.00  0.00    -0.115 NA
ATOM     33  N   UNL     1      -2.225   3.821  -4.348  0.00  0.00    -0.023 NA
ATOM     34  N   UNL     1      -3.174   4.077  -3.516  0.00  0.00    -0.044 NA
ATOM     35  N   UNL     1      -2.758   3.826  -2.321  0.00  0.00    -0.228 N 
BRANCH  35  36
ATOM     36  C   UNL     1      -3.524   3.982  -1.082  0.00  0.00    +0.111 C 
ATOM     37  C   UNL     1      -4.809   3.130  -1.145  0.00  0.00    +0.027 C 
ATOM     38  C   UNL     1      -5.875   3.997  -0.429  0.00  0.00    +0.002 C 
ATOM     39  C   UNL     1      -5.516   5.431  -0.892  0.00  0.00    +0.002 C 
ATOM     40  C   UNL     1      -3.974   5.445  -0.921  0.00  0.00    +0.027 C 
ENDBRANCH  35  36
ENDBRANCH  30  31
ENDBRANCH   1  30
TORSDOF 11
