REMARK  Name = ZINC20083226
REMARK  12 active torsions:
REMARK  status: ('A' for Active; 'I' for Inactive)
REMARK    1  A    between atoms: C_1  and  C_2
REMARK    2  A    between atoms: C_2  and  C_3
REMARK    3  A    between atoms: C_3  and  C_4
REMARK    4  A    between atoms: C_3  and  C_5
REMARK    5  A    between atoms: C_3  and  N_6
REMARK    6  A    between atoms: C_7  and  C_11
REMARK    7  A    between atoms: C_11  and  C_13
REMARK    8  A    between atoms: C_11  and  N_27
REMARK    9  A    between atoms: C_17  and  C_26
REMARK   10  A    between atoms: C_19  and  C_25
REMARK   11  A    between atoms: N_30  and  C_33
REMARK   12  A    between atoms: C_33  and  C_34
REMARK                            x       y       z     vdW  Elec       q    Type
REMARK                         _______ _______ _______ _____ _____    ______ ____
ROOT
ATOM      1  C   UNL     1      -2.930   2.038  -5.023  0.00  0.00    +0.162 C 
ENDROOT
BRANCH   1   2
ATOM      2  C   UNL     1      -3.531   3.410  -4.861  0.00  0.00    +0.042 A 
ATOM      3  C   UNL     1      -3.402   4.325  -5.853  0.00  0.00    +0.021 A 
ATOM      4  C   UNL     1      -4.001   5.648  -5.667  0.00  0.00    -0.001 A 
ATOM      5  C   UNL     1      -3.905   6.632  -6.656  0.00  0.00    +0.013 A 
ATOM      6  C   UNL     1      -4.470   7.858  -6.449  0.00  0.00    -0.050 A 
ATOM      7  C   UNL     1      -5.139   8.137  -5.265  0.00  0.00    +0.008 A 
ATOM      8  C   UNL     1      -5.248   7.182  -4.277  0.00  0.00    -0.026 A 
ATOM      9  C   UNL     1      -4.679   5.926  -4.465  0.00  0.00    +0.052 A 
ATOM     10  N   UNL     1      -4.771   4.954  -3.493  0.00  0.00    -0.322 N 
ATOM     11  H   UNL     1      -5.300   5.165  -2.552  0.00  0.00    +0.169 HD
ATOM     12  C   UNL     1      -4.221   3.740  -3.675  0.00  0.00    +0.254 A 
ATOM     13  O   UNL     1      -4.322   2.904  -2.794  0.00  0.00    -0.268 OA
ATOM     14  C   UNL     1      -5.978   7.498  -2.997  0.00  0.00    +0.046 C 
ATOM     15  C   UNL     1      -4.366   8.918  -7.516  0.00  0.00    +0.044 C 
ENDBRANCH   1   2
BRANCH   1  16
ATOM     16  N   UNL     1      -2.039   1.757  -3.889  0.00  0.00    -0.286 NA
ATOM     17  C   UNL     1      -1.524   0.382  -3.951  0.00  0.00    +0.101 C 
ATOM     18  C   UNL     1      -0.666   0.104  -2.715  0.00  0.00    +0.100 C 
ATOM     19  N   UNL     1       0.437   1.074  -2.659  0.00  0.00    -0.296 NA
ATOM     20  C   UNL     1      -0.078   2.449  -2.597  0.00  0.00    +0.100 C 
ATOM     21  C   UNL     1      -0.936   2.727  -3.833  0.00  0.00    +0.101 C 
BRANCH  19  22
ATOM     22  C   UNL     1       1.328   0.793  -1.526  0.00  0.00    +0.119 C 
BRANCH  22  23
ATOM     23  C   UNL     1       2.568   1.641  -1.640  0.00  0.00    -0.033 A 
ATOM     24  C   UNL     1       3.672   1.164  -2.321  0.00  0.00    +0.006 A 
ATOM     25  C   UNL     1       4.808   1.944  -2.430  0.00  0.00    +0.020 A 
ATOM     26  C   UNL     1       4.843   3.199  -1.849  0.00  0.00    +0.041 A 
ATOM     27  C   UNL     1       3.740   3.674  -1.162  0.00  0.00    +0.020 A 
ATOM     28  C   UNL     1       2.603   2.895  -1.058  0.00  0.00    +0.006 A 
ATOM     29 CL   UNL     1       6.272   4.176  -1.980  0.00  0.00    -0.084 Cl
ENDBRANCH  22  23
ENDBRANCH  19  22
ENDBRANCH   1  16
BRANCH   1  31
ATOM     30  N   UNL     1      -4.392   0.260  -6.122  0.00  0.00    -0.222 N 
ATOM     31  C   UNL     1      -4.030   1.009  -5.063  0.00  0.00    +0.174 A 
ATOM     32  N   UNL     1      -4.817   0.665  -4.073  0.00  0.00    -0.111 NA
ATOM     33  N   UNL     1      -5.625  -0.241  -4.503  0.00  0.00    -0.023 NA
ATOM     34  N   UNL     1      -5.369  -0.491  -5.740  0.00  0.00    -0.043 NA
BRANCH  30  35
ATOM     35  C   UNL     1      -3.788   0.292  -7.457  0.00  0.00    +0.062 C 
ATOM     36  C   UNL     1      -3.885   1.708  -8.026  0.00  0.00    +0.036 C 
ATOM     37  C   UNL     1      -2.318  -0.121  -7.362  0.00  0.00    +0.036 C 
BRANCH  35  39
ATOM     38  C   UNL     1      -3.903  -0.646  -9.769  0.00  0.00    +0.006 C 
ATOM     39  C   UNL     1      -4.533  -0.679  -8.376  0.00  0.00    +0.026 C 
ENDBRANCH  35  39
ENDBRANCH  30  35
ENDBRANCH   1  31
TORSDOF 7
