REMARK  Name = ZINC11107440
REMARK  7 active torsions:
REMARK  status: ('A' for Active; 'I' for Inactive)
REMARK    1  A    between atoms: C_1  and  N_2
REMARK    2  A    between atoms: N_2  and  S_3
REMARK    3  A    between atoms: S_3  and  C_6
REMARK    4  A    between atoms: C_10  and  C_12
REMARK    5  A    between atoms: C_12  and  O_14
REMARK    6  A    between atoms: O_14  and  C_15
REMARK    7  A    between atoms: C_15  and  C_16
REMARK                            x       y       z     vdW  Elec       q    Type
REMARK                         _______ _______ _______ _____ _____    ______ ____
ROOT
ATOM      1  C   UNL     1      -2.615   2.026  -5.082  0.00  0.00    +0.341 C 
ATOM      2  O   UNL     1      -2.787   2.679  -6.093  0.00  0.00    -0.245 OA
ENDROOT
BRANCH   1   7
ATOM      3  C   UNL     1      -0.907   2.376  -1.758  0.00  0.00    +0.106 A 
ATOM      4  C   UNL     1      -0.377   3.651  -1.860  0.00  0.00    +0.030 A 
ATOM      5  C   UNL     1      -0.565   4.395  -3.010  0.00  0.00    +0.023 A 
ATOM      6  C   UNL     1      -1.294   3.875  -4.061  0.00  0.00    +0.055 A 
ATOM      7  C   UNL     1      -1.836   2.590  -3.963  0.00  0.00    +0.079 A 
ATOM      8  C   UNL     1      -1.636   1.843  -2.800  0.00  0.00    +0.045 A 
ATOM      9 CL   UNL     1      -1.534   4.813  -5.502  0.00  0.00    -0.083 Cl
BRANCH   3  10
ATOM     10  S   UNL     1      -0.654   1.434  -0.290  0.00  0.00    +0.058 S 
ATOM     11  O   UNL     1      -1.714   0.490  -0.226  0.00  0.00    -0.153 OA
ATOM     12  O   UNL     1      -0.400   2.366   0.752  0.00  0.00    -0.153 OA
BRANCH  10  14
ATOM     13  C   UNL     1       2.023   1.261  -0.635  0.00  0.00    +0.127 C 
ATOM     14  N   UNL     1       0.741   0.566  -0.499  0.00  0.00    -0.193 NA
ATOM     15  H   UNL     1       0.708  -0.403  -0.536  0.00  0.00    +0.148 HD
ENDBRANCH  10  14
ENDBRANCH   3  10
ENDBRANCH   1   7
BRANCH   1  16
ATOM     16  O   UNL     1      -3.136   0.787  -4.984  0.00  0.00    -0.452 OA
BRANCH  16  17
ATOM     17  C   UNL     1      -3.891   0.297  -6.123  0.00  0.00    +0.328 C 
BRANCH  17  18
ATOM     18  C   UNL     1      -4.392  -1.094  -5.833  0.00  0.00    +0.258 C 
ATOM     19  O   UNL     1      -4.187  -1.598  -4.749  0.00  0.00    -0.272 OA
ATOM     20  N   UNL     1      -5.068  -1.778  -6.777  0.00  0.00    -0.268 N 
ATOM     21  C   UNL     1      -5.255  -1.211  -8.120  0.00  0.00    +0.114 C 
ATOM     22  C   UNL     1      -6.717  -1.440  -8.525  0.00  0.00    +0.024 C 
ATOM     23  C   UNL     1      -6.976  -2.944  -8.611  0.00  0.00    +0.038 C 
ATOM     24  C   UNL     1      -6.522  -3.631  -7.351  0.00  0.00    -0.026 A 
ATOM     25  C   UNL     1      -5.598  -3.045  -6.497  0.00  0.00    +0.040 A 
ATOM     26  C   UNL     1      -5.192  -3.710  -5.347  0.00  0.00    +0.024 A 
ATOM     27  C   UNL     1      -5.705  -4.957  -5.051  0.00  0.00    +0.002 A 
ATOM     28  C   UNL     1      -6.625  -5.543  -5.902  0.00  0.00    +0.000 A 
ATOM     29  C   UNL     1      -7.038  -4.878  -7.045  0.00  0.00    +0.005 A 
ENDBRANCH  17  18
ENDBRANCH  16  17
ENDBRANCH   1  16
TORSDOF 6
