REMARK  Name = ZINC53530396
REMARK  7 active torsions:
REMARK  status: ('A' for Active; 'I' for Inactive)
REMARK    1  A    between atoms: C_1  and  N_2
REMARK    2  A    between atoms: N_2  and  C_3
REMARK    3  A    between atoms: N_2  and  C_4
REMARK    4  A    between atoms: C_4  and  C_6
REMARK    5  A    between atoms: C_4  and  C_23
REMARK    6  A    between atoms: C_6  and  N_7
REMARK    7  A    between atoms: C_16  and  C_18
REMARK                            x       y       z     vdW  Elec       q    Type
REMARK                         _______ _______ _______ _____ _____    ______ ____
ROOT
ATOM      1  N   UNL     1      -2.661   2.237  -0.519  0.00  0.00    -0.300 N 
ATOM      2  C   UNL     1      -2.962   2.834  -1.690  0.00  0.00    +0.302 C 
ATOM      3  O   UNL     1      -3.701   2.280  -2.481  0.00  0.00    -0.253 OA
ATOM      4  N   UNL     1      -2.445   4.043  -1.983  0.00  0.00    -0.283 N 
ATOM      5  C   UNL     1      -1.461   4.672  -1.091  0.00  0.00    +0.128 C 
ATOM      6  C   UNL     1      -0.206   5.010  -1.905  0.00  0.00    +0.127 C 
ATOM      7  N   UNL     1      -0.615   5.723  -3.123  0.00  0.00    -0.294 N 
ATOM      8  C   UNL     1      -1.599   5.094  -4.016  0.00  0.00    +0.127 C 
ATOM      9  C   UNL     1      -2.850   4.754  -3.204  0.00  0.00    +0.128 C 
ATOM     10  C   UNL     1      -0.098   6.933  -3.417  0.00  0.00    +0.253 C 
ATOM     11  O   UNL     1      -0.519   7.560  -4.371  0.00  0.00    -0.269 OA
ATOM     12  H   UNL     1      -2.131   2.709   0.143  0.00  0.00    +0.150 HD
ENDROOT
BRANCH  10  13
ATOM     13  C   UNL     1       0.972   7.493  -2.587  0.00  0.00    +0.074 A 
ATOM     14  C   UNL     1       1.402   8.807  -2.484  0.00  0.00    +0.021 A 
ATOM     15  C   UNL     1       2.440   9.030  -1.611  0.00  0.00    +0.008 A 
ATOM     16  C   UNL     1       2.961   7.982  -0.926  0.00  0.00    +0.046 A 
ATOM     17  S   UNL     1       2.055   6.663  -1.439  0.00  0.00    -0.092 S 
ENDBRANCH  10  13
BRANCH   1  18
ATOM     18  C   UNL     1      -3.133   0.878  -0.247  0.00  0.00    +0.095 C 
BRANCH  18  19
ATOM     19  C   UNL     1      -2.555   0.394   1.085  0.00  0.00    -0.014 C 
BRANCH  19  20
ATOM     20  C   UNL     1      -3.059   1.274   2.200  0.00  0.00    -0.022 A 
ATOM     21  C   UNL     1      -2.436   2.304   2.822  0.00  0.00    +0.009 A 
ATOM     22  C   UNL     1      -3.099   2.978   3.831  0.00  0.00    +0.008 A 
ATOM     23  C   UNL     1      -4.353   2.588   4.168  0.00  0.00    +0.045 A 
ATOM     24  S   UNL     1      -4.635   1.235   3.038  0.00  0.00    -0.103 S 
ENDBRANCH  19  20
BRANCH  19  26
ATOM     25  C   UNL     1      -2.400  -1.866   0.296  0.00  0.00    -0.096 C 
ATOM     26  N   UNL     1      -2.976  -0.992   1.327  0.00  0.00    +0.382 N 
ATOM     27  C   UNL     1      -2.507  -1.422   2.651  0.00  0.00    -0.096 C 
ATOM     28  H   UNL     1      -3.983  -1.049   1.292  0.00  0.00    -0.082 HD
ENDBRANCH  19  26
ENDBRANCH  18  19
ENDBRANCH   1  18
TORSDOF 5
