REMARK  Name = ZINC36608139
REMARK  15 active torsions:
REMARK  status: ('A' for Active; 'I' for Inactive)
REMARK    1  A    between atoms: C_1  and  C_2
REMARK    2  A    between atoms: C_2  and  C_3
REMARK    3  A    between atoms: C_2  and  C_4
REMARK    4  A    between atoms: C_2  and  C_5
REMARK    5  A    between atoms: C_5  and  C_6
REMARK    6  A    between atoms: C_6  and  C_7
REMARK    7  A    between atoms: C_6  and  C_8
REMARK    8  A    between atoms: C_6  and  N_9
REMARK    9  A    between atoms: C_10  and  C_12
REMARK   10  A    between atoms: C_12  and  C_14
REMARK   11  A    between atoms: C_12  and  N_23
REMARK   12  A    between atoms: C_17  and  N_20
REMARK   13  A    between atoms: N_23  and  C_24
REMARK   14  A    between atoms: C_30  and  C_32
REMARK   15  A    between atoms: C_37  and  O_38
REMARK                            x       y       z     vdW  Elec       q    Type
REMARK                         _______ _______ _______ _____ _____    ______ ____
ROOT
ATOM      1  C   UNL     1       4.748  -0.155  -4.125  0.00  0.00    +0.197 C 
ENDROOT
BRANCH   1   2
ATOM      2  C   UNL     1       4.616  -1.627  -4.423  0.00  0.00    -0.018 A 
ATOM      3  C   UNL     1       5.478  -2.531  -3.833  0.00  0.00    +0.008 A 
ATOM      4  C   UNL     1       5.357  -3.881  -4.106  0.00  0.00    +0.033 A 
ATOM      5  C   UNL     1       4.374  -4.326  -4.970  0.00  0.00    +0.126 A 
ATOM      6  C   UNL     1       3.511  -3.421  -5.559  0.00  0.00    +0.033 A 
ATOM      7  C   UNL     1       3.629  -2.072  -5.283  0.00  0.00    +0.008 A 
BRANCH   5   8
ATOM      8  N   UNL     1       4.245  -5.771  -5.263  0.00  0.00    +0.056 N 
ATOM      9  O   UNL     1       5.000  -6.562  -4.747  0.00  0.00    -0.126 OA
ATOM     10  O   UNL     1       3.385  -6.160  -6.018  0.00  0.00    -0.126 OA
ENDBRANCH   5   8
ENDBRANCH   1   2
BRANCH   1  12
ATOM     11  N   UNL     1       3.040  -0.184  -2.336  0.00  0.00    -0.308 N 
ATOM     12  C   UNL     1       4.300   0.113  -2.711  0.00  0.00    +0.239 C 
ATOM     13  O   UNL     1       5.073   0.596  -1.911  0.00  0.00    -0.273 OA
ATOM     14  H   UNL     1       2.421  -0.570  -2.976  0.00  0.00    +0.149 HD
BRANCH  11  15
ATOM     15  C   UNL     1       2.604   0.077  -0.962  0.00  0.00    +0.030 C 
ATOM     16  C   UNL     1       2.888   1.538  -0.605  0.00  0.00    +0.031 C 
ATOM     17  C   UNL     1       3.366  -0.839  -0.003  0.00  0.00    +0.031 C 
BRANCH  15  18
ATOM     18  C   UNL     1       1.103  -0.195  -0.842  0.00  0.00    +0.031 C 
BRANCH  18  20
ATOM     19  C   UNL     1       0.508  -0.580  -3.238  0.00  0.00    +0.010 C 
ATOM     20  C   UNL     1       0.381   0.387  -2.059  0.00  0.00    -0.036 C 
ATOM     21  C   UNL     1       1.011   1.731  -2.432  0.00  0.00    +0.010 C 
ATOM     22  C   UNL     1      -1.097   0.593  -1.724  0.00  0.00    +0.010 C 
ENDBRANCH  18  20
ENDBRANCH  15  18
ENDBRANCH  11  15
ENDBRANCH   1  12
BRANCH   1  23
ATOM     23  N   UNL     1       6.147   0.251  -4.279  0.00  0.00    -0.251 N 
ATOM     24  C   UNL     1       6.497   1.541  -4.108  0.00  0.00    +0.255 C 
ATOM     25  O   UNL     1       7.647   1.889  -4.294  0.00  0.00    -0.269 OA
BRANCH  23  26
ATOM     26  C   UNL     1       7.119  -0.701  -4.604  0.00  0.00    +0.038 A 
ATOM     27  C   UNL     1       7.085  -1.337  -5.838  0.00  0.00    +0.023 A 
ATOM     28  C   UNL     1       8.047  -2.276  -6.156  0.00  0.00    +0.002 A 
ATOM     29  C   UNL     1       9.044  -2.582  -5.247  0.00  0.00    +0.000 A 
ATOM     30  C   UNL     1       9.081  -1.950  -4.018  0.00  0.00    +0.002 A 
ATOM     31  C   UNL     1       8.125  -1.006  -3.696  0.00  0.00    +0.023 A 
ENDBRANCH  23  26
BRANCH  24  32
ATOM     32  C   UNL     1       5.485   2.531  -3.695  0.00  0.00    +0.079 A 
ATOM     33  C   UNL     1       4.128   2.200  -3.718  0.00  0.00    +0.017 A 
ATOM     34  C   UNL     1       3.187   3.130  -3.331  0.00  0.00    +0.001 A 
ATOM     35  C   UNL     1       3.581   4.393  -2.919  0.00  0.00    +0.004 A 
ATOM     36  C   UNL     1       4.918   4.733  -2.892  0.00  0.00    +0.046 A 
ATOM     37  C   UNL     1       5.879   3.808  -3.272  0.00  0.00    +0.129 A 
BRANCH  37  38
ATOM     38  O   UNL     1       7.194   4.139  -3.240  0.00  0.00    -0.506 OA
ATOM     39  H   UNL     1       7.522   4.527  -4.063  0.00  0.00    +0.292 HD
ENDBRANCH  37  38
ENDBRANCH  24  32
ENDBRANCH   1  23
TORSDOF 10
