REMARK  Name = ZINC38741709
REMARK  4 active torsions:
REMARK  status: ('A' for Active; 'I' for Inactive)
REMARK    1  A    between atoms: C_1  and  C_2
REMARK    2  A    between atoms: C_6  and  N_9
REMARK    3  A    between atoms: C_7  and  C_8
REMARK    4  A    between atoms: N_9  and  C_10
REMARK                            x       y       z     vdW  Elec       q    Type
REMARK                         _______ _______ _______ _____ _____    ______ ____
ROOT
ATOM      1  C   UNL     1      -0.039  -4.259   2.392  0.00  0.00    +0.168 C 
ATOM      2  C   UNL     1       0.839  -4.870   3.508  0.00  0.00    +0.113 C 
ATOM      3  C   UNL     1      -0.065  -4.717   4.738  0.00  0.00    +0.107 C 
ATOM      4  C   UNL     1       0.206  -3.406   5.474  0.00  0.00    +0.025 C 
ATOM      5  C   UNL     1       1.685  -3.294   5.844  0.00  0.00    +0.009 C 
ATOM      6  C   UNL     1       2.485  -3.098   4.552  0.00  0.00    +0.075 C 
ATOM      7  C   UNL     1       2.155  -4.203   3.618  0.00  0.00    +0.141 C 
ATOM      8  O   UNL     1       3.048  -4.595   2.907  0.00  0.00    -0.297 OA
ATOM      9  N   UNL     1      -1.437  -4.646   4.183  0.00  0.00    -0.231 N 
ATOM     10  N   UNL     1      -1.393  -4.712   2.813  0.00  0.00    -0.217 NA
ATOM     11  C   UNL     1      -2.589  -4.532   4.933  0.00  0.00    +0.211 A 
ATOM     12  N   UNL     1      -2.632  -4.469   6.240  0.00  0.00    -0.213 NA
ATOM     13  C   UNL     1      -3.923  -4.360   6.649  0.00  0.00    +0.091 A 
ATOM     14  C   UNL     1      -4.527  -4.260   7.905  0.00  0.00    +0.030 A 
ATOM     15  C   UNL     1      -5.898  -4.159   7.999  0.00  0.00    +0.002 A 
ATOM     16  C   UNL     1      -6.683  -4.157   6.856  0.00  0.00    +0.002 A 
ATOM     17  C   UNL     1      -6.102  -4.256   5.608  0.00  0.00    +0.028 A 
ATOM     18  C   UNL     1      -4.724  -4.357   5.495  0.00  0.00    +0.067 A 
ATOM     19  N   UNL     1      -3.853  -4.461   4.422  0.00  0.00    -0.325 N 
ATOM     20  H   UNL     1      -1.577  -5.649   2.490  0.00  0.00    +0.147 HD
ATOM     21  H   UNL     1      -4.096  -4.482   3.484  0.00  0.00    +0.169 HD
ENDROOT
BRANCH   1  22
ATOM     22  N   UNL     1       0.051  -2.796   2.390  0.00  0.00    -0.327 N 
ATOM     23  H   UNL     1       0.141  -2.315   3.228  0.00  0.00    +0.148 HD
BRANCH  22  29
ATOM     24  C   UNL     1       0.404   1.458  -0.045  0.00  0.00    +0.044 C 
ATOM     25  C   UNL     1       0.176  -0.032  -0.028  0.00  0.00    -0.046 A 
ATOM     26  C   UNL     1      -0.076  -0.706  -1.208  0.00  0.00    +0.004 A 
ATOM     27  C   UNL     1      -0.286  -2.073  -1.197  0.00  0.00    +0.002 A 
ATOM     28  C   UNL     1      -0.245  -2.769  -0.005  0.00  0.00    +0.023 A 
ATOM     29  C   UNL     1       0.009  -2.095   1.183  0.00  0.00    +0.031 A 
ATOM     30  C   UNL     1       0.224  -0.723   1.167  0.00  0.00    -0.027 A 
ATOM     31  C   UNL     1       0.505   0.012   2.453  0.00  0.00    +0.046 C 
ENDBRANCH  22  29
ENDBRANCH   1  22
TORSDOF 2
