REMARK  Name = ZINC66572269
REMARK  8 active torsions:
REMARK  status: ('A' for Active; 'I' for Inactive)
REMARK    1  A    between atoms: C_1  and  C_2
REMARK    2  A    between atoms: C_2  and  C_3
REMARK    3  A    between atoms: C_2  and  C_4
REMARK    4  A    between atoms: C_4  and  C_5
REMARK    5  A    between atoms: C_5  and  C_6
REMARK    6  A    between atoms: N_8  and  N_9
REMARK    7  A    between atoms: C_10  and  C_12
REMARK    8  A    between atoms: C_15  and  C_17
REMARK                            x       y       z     vdW  Elec       q    Type
REMARK                         _______ _______ _______ _____ _____    ______ ____
ROOT
ATOM      1  N   UNL     1      -4.375  -4.388  -0.207  0.00  0.00    -0.234 N 
ATOM      2  C   UNL     1      -4.605  -5.711  -0.314  0.00  0.00    +0.233 C 
ATOM      3  O   UNL     1      -3.675  -6.483  -0.418  0.00  0.00    -0.274 OA
ATOM      4  H   UNL     1      -5.119  -3.771  -0.124  0.00  0.00    +0.173 HD
ENDROOT
BRANCH   1   7
ATOM      5  C   UNL     1      -2.829  -2.579  -0.111  0.00  0.00    +0.229 C 
ATOM      6  O   UNL     1      -3.760  -1.808  -0.006  0.00  0.00    -0.274 OA
ATOM      7  N   UNL     1      -3.060  -3.903  -0.217  0.00  0.00    -0.234 N 
ATOM      8  H   UNL     1      -2.316  -4.520  -0.301  0.00  0.00    +0.173 HD
BRANCH   5   9
ATOM      9  C   UNL     1      -1.416  -2.058  -0.121  0.00  0.00    +0.097 C 
BRANCH   9  10
ATOM     10  C   UNL     1      -1.433  -0.534   0.013  0.00  0.00    +0.012 C 
BRANCH  10  12
ATOM     11  C   UNL     1      -0.019   1.526   0.010  0.00  0.00    +0.007 C 
ATOM     12  C   UNL     1       0.002  -0.004   0.002  0.00  0.00    -0.017 C 
ATOM     13  C   UNL     1       0.742  -0.511   1.242  0.00  0.00    +0.007 C 
ENDBRANCH  10  12
ENDBRANCH   9  10
ENDBRANCH   5   9
ENDBRANCH   1   7
BRANCH   2  14
ATOM     14  C   UNL     1      -6.019  -6.233  -0.303  0.00  0.00    +0.084 C 
ATOM     15  C   UNL     1      -6.463  -7.047   0.914  0.00  0.00    +0.022 C 
ATOM     16  C   UNL     1      -6.215  -7.745  -0.426  0.00  0.00    +0.033 C 
BRANCH  16  17
ATOM     17  C   UNL     1      -4.979  -8.600  -0.548  0.00  0.00    -0.030 A 
ATOM     18  C   UNL     1      -4.033  -8.594   0.460  0.00  0.00    +0.005 A 
ATOM     19  C   UNL     1      -2.900  -9.378   0.348  0.00  0.00    +0.000 A 
ATOM     20  C   UNL     1      -2.713 -10.167  -0.771  0.00  0.00    +0.001 A 
ATOM     21  C   UNL     1      -3.658 -10.174  -1.779  0.00  0.00    +0.015 A 
ATOM     22  C   UNL     1      -4.795  -9.393  -1.665  0.00  0.00    +0.021 A 
ATOM     23 BR   UNL     1      -6.093  -9.407  -3.041  0.00  0.00    -0.050 Br
ENDBRANCH  16  17
ENDBRANCH   2  14
TORSDOF 6
