REMARK  Name = ZINC38741728
REMARK  4 active torsions:
REMARK  status: ('A' for Active; 'I' for Inactive)
REMARK    1  A    between atoms: C_1  and  C_2
REMARK    2  A    between atoms: C_4  and  C_31
REMARK    3  A    between atoms: C_6  and  N_8
REMARK    4  A    between atoms: N_8  and  C_9
REMARK                            x       y       z     vdW  Elec       q    Type
REMARK                         _______ _______ _______ _____ _____    ______ ____
ROOT
ATOM      1  C   UNL     1       0.159  -2.076   3.662  0.00  0.00    +0.168 C 
ATOM      2  C   UNL     1       1.214  -2.720   4.569  0.00  0.00    +0.113 C 
ATOM      3  C   UNL     1       0.350  -3.905   5.099  0.00  0.00    +0.107 C 
ATOM      4  C   UNL     1       1.124  -4.582   6.198  0.00  0.00    +0.025 C 
ATOM      5  C   UNL     1       2.340  -5.269   5.552  0.00  0.00    +0.009 C 
ATOM      6  C   UNL     1       3.224  -4.272   4.804  0.00  0.00    +0.075 C 
ATOM      7  C   UNL     1       2.388  -3.362   3.889  0.00  0.00    +0.141 C 
ATOM      8  O   UNL     1       2.646  -3.172   2.725  0.00  0.00    -0.297 OA
ATOM      9  N   UNL     1      -0.921  -3.273   5.373  0.00  0.00    -0.231 N 
ATOM     10  N   UNL     1      -1.085  -2.236   4.472  0.00  0.00    -0.217 NA
ATOM     11  C   UNL     1      -1.814  -3.640   6.358  0.00  0.00    +0.211 A 
ATOM     12  N   UNL     1      -1.639  -4.626   7.203  0.00  0.00    -0.213 NA
ATOM     13  C   UNL     1      -2.710  -4.709   8.035  0.00  0.00    +0.091 A 
ATOM     14  C   UNL     1      -3.037  -5.556   9.096  0.00  0.00    +0.030 A 
ATOM     15  C   UNL     1      -4.229  -5.385   9.766  0.00  0.00    +0.002 A 
ATOM     16  C   UNL     1      -5.107  -4.378   9.394  0.00  0.00    +0.002 A 
ATOM     17  C   UNL     1      -4.798  -3.533   8.347  0.00  0.00    +0.028 A 
ATOM     18  C   UNL     1      -3.603  -3.690   7.663  0.00  0.00    +0.067 A 
ATOM     19  N   UNL     1      -3.008  -3.025   6.603  0.00  0.00    -0.325 N 
ATOM     20  H   UNL     1      -1.319  -1.377   4.947  0.00  0.00    +0.147 HD
ATOM     21  H   UNL     1      -3.373  -2.265   6.123  0.00  0.00    +0.169 HD
ENDROOT
BRANCH   1  22
ATOM     22  N   UNL     1       0.051  -2.796   2.390  0.00  0.00    -0.327 N 
ATOM     23  H   UNL     1       0.144  -3.762   2.371  0.00  0.00    +0.148 HD
BRANCH  22  29
ATOM     24  C   UNL     1      -0.328  -2.768  -2.509  0.00  0.00    +0.044 C 
ATOM     25  C   UNL     1      -0.376  -2.054  -1.183  0.00  0.00    -0.048 A 
ATOM     26  C   UNL     1      -0.654  -0.700  -1.137  0.00  0.00    +0.006 A 
ATOM     27  C   UNL     1      -0.698  -0.041   0.077  0.00  0.00    -0.048 A 
ATOM     28  C   UNL     1      -0.465  -0.733   1.250  0.00  0.00    +0.026 A 
ATOM     29  C   UNL     1      -0.185  -2.093   1.207  0.00  0.00    +0.029 A 
ATOM     30  C   UNL     1      -0.147  -2.753  -0.015  0.00  0.00    +0.026 A 
ATOM     31  C   UNL     1      -1.001   1.435   0.122  0.00  0.00    +0.044 C 
ENDBRANCH  22  29
ENDBRANCH   1  22
TORSDOF 2
