REMARK  Name = ZINC43769359
REMARK  8 active torsions:
REMARK  status: ('A' for Active; 'I' for Inactive)
REMARK    1  A    between atoms: C_1  and  C_2
REMARK    2  A    between atoms: C_6  and  C_31
REMARK    3  A    between atoms: C_15  and  C_27
REMARK    4  A    between atoms: C_19  and  O_26
REMARK    5  A    between atoms: C_29  and  C_30
REMARK    6  A    between atoms: C_31  and  C_32
REMARK    7  A    between atoms: C_32  and  C_33
REMARK    8  A    between atoms: C_32  and  C_34
REMARK                            x       y       z     vdW  Elec       q    Type
REMARK                         _______ _______ _______ _____ _____    ______ ____
ROOT
ATOM      1  C   UNL     1       0.018   1.839  -0.293  0.00  0.00    +0.012 C 
ATOM      2  C   UNL     1       0.043   0.337  -0.047  0.00  0.00    +0.020 C 
ATOM      3  C   UNL     1      -1.240  -0.300   0.393  0.00  0.00    +0.070 C 
ATOM      4  C   UNL     1      -2.506  -0.270  -0.444  0.00  0.00    +0.081 C 
ATOM      5  N   UNL     1      -3.523  -0.671   0.569  0.00  0.00    -0.309 N 
ATOM      6  C   UNL     1      -3.149  -0.250   1.804  0.00  0.00    +0.259 C 
ATOM      7  O   UNL     1      -3.845  -0.294   2.797  0.00  0.00    -0.271 OA
ATOM      8  C   UNL     1      -1.732   0.263   1.738  0.00  0.00    +0.203 C 
ATOM      9  C   UNL     1      -0.789  -0.237   2.813  0.00  0.00    +0.088 C 
ATOM     10  C   UNL     1      -1.162  -1.612   3.292  0.00  0.00    -0.016 C 
ATOM     11  C   UNL     1      -1.946  -1.757   4.333  0.00  0.00    -0.076 C 
ATOM     12  C   UNL     1      -2.512  -0.574   5.062  0.00  0.00    +0.030 C 
ATOM     13  C   UNL     1      -1.656  -0.186   6.271  0.00  0.00    +0.007 C 
ATOM     14  C   UNL     1      -2.227   1.094   6.894  0.00  0.00    +0.036 C 
ATOM     15  C   UNL     1      -1.933   2.282   5.969  0.00  0.00    +0.138 C 
ATOM     16  C   UNL     1      -3.123   2.504   5.072  0.00  0.00    +0.011 C 
ATOM     17  C   UNL     1      -3.026   2.474   3.752  0.00  0.00    +0.090 C 
ATOM     18  C   UNL     1      -1.778   2.259   3.023  0.00  0.00    +0.333 C 
ATOM     19  O   UNL     1      -0.710   2.581   3.503  0.00  0.00    -0.246 OA
ATOM     20  O   UNL     1      -1.789   1.689   1.795  0.00  0.00    -0.444 OA
ATOM     21  C   UNL     1      -2.284  -3.154   4.802  0.00  0.00    +0.039 C 
ATOM     22  C   UNL     1       0.612  -0.207   2.286  0.00  0.00    -0.016 C 
ATOM     23  C   UNL     1       1.026   0.024   1.084  0.00  0.00    -0.073 C 
ATOM     24  C   UNL     1       2.501  -0.013   0.780  0.00  0.00    +0.039 C 
ATOM     25  H   UNL     1      -4.334  -1.162   0.367  0.00  0.00    +0.149 HD
ENDROOT
BRANCH  15  26
ATOM     26  O   UNL     1      -1.708   3.451   6.763  0.00  0.00    -0.388 OA
ATOM     27  H   UNL     1      -1.515   4.245   6.246  0.00  0.00    +0.210 HD
ENDBRANCH  15  26
BRANCH   4  28
ATOM     28  C   UNL     1      -2.874   1.082  -1.040  0.00  0.00    +0.025 C 
BRANCH  28  29
ATOM     29  C   UNL     1      -4.064   0.916  -1.987  0.00  0.00    -0.015 C 
ATOM     30  C   UNL     1      -5.306   0.530  -1.182  0.00  0.00    +0.007 C 
ATOM     31  C   UNL     1      -4.321   2.235  -2.720  0.00  0.00    +0.007 C 
ENDBRANCH  28  29
ENDBRANCH   4  28
TORSDOF 3
