REMARK  Name = ZINC10775652
REMARK  8 active torsions:
REMARK  status: ('A' for Active; 'I' for Inactive)
REMARK    1  A    between atoms: C_1  and  N_57
REMARK    2  A    between atoms: C_2  and  N_57
REMARK    3  A    between atoms: C_3  and  C_4
REMARK    4  A    between atoms: C_3  and  N_57
REMARK    5  A    between atoms: C_4  and  N_5
REMARK    6  A    between atoms: C_15  and  C_17
REMARK    7  A    between atoms: N_23  and  S_24
REMARK    8  A    between atoms: S_24  and  C_27
REMARK                            x       y       z     vdW  Elec       q    Type
REMARK                         _______ _______ _______ _____ _____    ______ ____
ROOT
ATOM      1  N   UNL     1       0.641  -4.383  -1.471  0.00  0.00    -0.251 N 
ATOM      2  C   UNL     1       1.423  -5.021  -0.522  0.00  0.00    +0.168 A 
ATOM      3  N   UNL     1       2.166  -6.095  -0.654  0.00  0.00    -0.224 NA
ATOM      4  C   UNL     1       2.887  -6.609   0.366  0.00  0.00    +0.080 A 
ATOM      5  C   UNL     1       3.724  -7.749   0.355  0.00  0.00    +0.029 A 
ATOM      6  C   UNL     1       4.386  -8.142   1.489  0.00  0.00    +0.002 A 
ATOM      7  C   UNL     1       4.260  -7.443   2.681  0.00  0.00    +0.001 A 
ATOM      8  C   UNL     1       3.449  -6.324   2.728  0.00  0.00    +0.017 A 
ATOM      9  C   UNL     1       2.783  -5.922   1.597  0.00  0.00    +0.041 A 
ATOM     10  S   UNL     1       1.672  -4.595   1.196  0.00  0.00    -0.052 S 
ATOM     11  C   UNL     1      -0.062  -3.283  -1.136  0.00  0.00    +0.240 C 
ATOM     12  O   UNL     1      -0.098  -2.915   0.019  0.00  0.00    -0.273 OA
ENDROOT
BRANCH  11  13
ATOM     13  C   UNL     1      -0.802  -2.510  -2.196  0.00  0.00    +0.166 C 
ATOM     14  C   UNL     1      -2.307  -2.556  -1.913  0.00  0.00    +0.030 C 
ATOM     15  C   UNL     1      -3.038  -1.657  -2.913  0.00  0.00    +0.003 C 
ATOM     16  C   UNL     1      -2.559  -0.213  -2.748  0.00  0.00    +0.017 C 
ATOM     17  C   UNL     1      -1.061  -0.139  -3.037  0.00  0.00    +0.110 C 
ATOM     18  N   UNL     1      -0.361  -1.108  -2.183  0.00  0.00    -0.164 NA
BRANCH  18  19
ATOM     19  S   UNL     1       0.896  -0.629  -1.218  0.00  0.00    +0.068 S 
ATOM     20  O   UNL     1       1.463   0.521  -1.831  0.00  0.00    -0.152 OA
ATOM     21  O   UNL     1       1.658  -1.795  -0.934  0.00  0.00    -0.152 OA
BRANCH  19  22
ATOM     22  C   UNL     1       0.205  -0.095   0.312  0.00  0.00    +0.144 A 
ATOM     23  C   UNL     1       0.104  -0.768   1.484  0.00  0.00    +0.038 A 
ATOM     24  C   UNL     1      -0.483  -0.142   2.568  0.00  0.00    +0.030 A 
ATOM     25  C   UNL     1      -0.940   1.127   2.426  0.00  0.00    +0.080 A 
ATOM     26  S   UNL     1      -0.543   1.474   0.721  0.00  0.00    -0.057 S 
ATOM     27 CL   UNL     1      -1.712   2.149   3.599  0.00  0.00    -0.076 Cl
ENDBRANCH  19  22
ENDBRANCH  18  19
ENDBRANCH  11  13
BRANCH   1  28
ATOM     28  C   UNL     1       0.578  -4.904  -2.838  0.00  0.00    +0.097 C 
BRANCH  28  29
ATOM     29  C   UNL     1       1.656  -4.232  -3.691  0.00  0.00    -0.060 C 
BRANCH  29  32
ATOM     30  C   UNL     1       0.336  -4.365  -5.716  0.00  0.00    -0.097 C 
ATOM     31  C   UNL     1       2.753  -4.314  -5.847  0.00  0.00    -0.097 C 
ATOM     32  N   UNL     1       1.593  -4.783  -5.061  0.00  0.00    +0.377 N 
ATOM     33  H   UNL     1       1.617  -5.808  -5.009  0.00  0.00    -0.083 HD
ENDBRANCH  29  32
ENDBRANCH  28  29
ENDBRANCH   1  28
TORSDOF 6
