REMARK  Name = ZINC57354876
REMARK  3 active torsions:
REMARK  status: ('A' for Active; 'I' for Inactive)
REMARK    1  A    between atoms: C_4  and  C_7
REMARK    2  A    between atoms: N_17  and  N_26
REMARK    3  A    between atoms: C_18  and  C_20
REMARK                            x       y       z     vdW  Elec       q    Type
REMARK                         _______ _______ _______ _____ _____    ______ ____
ROOT
ATOM      1  C   UNL     1       3.692  -0.681  -0.037  0.00  0.00    +0.013 C 
ATOM      2  C   UNL     1       3.717  -2.022   0.057  0.00  0.00    -0.026 C 
ATOM      3  C   UNL     1       2.435  -2.825   0.061  0.00  0.00    +0.037 C 
ATOM      4  C   UNL     1       2.605  -3.929   1.116  0.00  0.00    +0.009 C 
ATOM      5  C   UNL     1       3.758  -4.835   0.697  0.00  0.00    +0.035 C 
ATOM      6  C   UNL     1       5.024  -4.049   0.459  0.00  0.00    -0.022 C 
ATOM      7  C   UNL     1       4.998  -2.751   0.152  0.00  0.00    +0.037 C 
ATOM      8  N   UNL     1       6.179  -2.038  -0.083  0.00  0.00    -0.296 N 
ATOM      9  C   UNL     1       7.375  -2.641  -0.007  0.00  0.00    +0.152 C 
ATOM     10  S   UNL     1       8.794  -1.730  -0.305  0.00  0.00    -0.017 S 
ATOM     11  N   UNL     1       7.480  -3.940   0.298  0.00  0.00    -0.239 N 
ATOM     12  C   UNL     1       6.333  -4.790   0.574  0.00  0.00    +0.150 C 
ATOM     13  H   UNL     1       6.132  -1.095  -0.304  0.00  0.00    +0.154 HD
ENDROOT
BRANCH   1  17
ATOM     14  C   UNL     1       0.032   1.324  -0.802  0.00  0.00    +0.000 A 
ATOM     15  C   UNL     1       0.996   1.928  -0.015  0.00  0.00    +0.001 A 
ATOM     16  C   UNL     1       2.188   1.283   0.238  0.00  0.00    +0.008 A 
ATOM     17  C   UNL     1       2.421   0.015  -0.302  0.00  0.00    -0.025 A 
ATOM     18  C   UNL     1       1.442  -0.589  -1.096  0.00  0.00    +0.008 A 
ATOM     19  C   UNL     1       0.255   0.069  -1.341  0.00  0.00    +0.001 A 
ENDBRANCH   1  17
BRANCH  12  20
ATOM     20  C   UNL     1       6.452  -5.357   1.965  0.00  0.00    -0.022 A 
ATOM     21  C   UNL     1       6.845  -4.543   3.012  0.00  0.00    +0.006 A 
ATOM     22  C   UNL     1       6.954  -5.063   4.288  0.00  0.00    +0.000 A 
ATOM     23  C   UNL     1       6.670  -6.396   4.518  0.00  0.00    +0.000 A 
ATOM     24  C   UNL     1       6.276  -7.209   3.472  0.00  0.00    +0.000 A 
ATOM     25  C   UNL     1       6.163  -6.688   2.196  0.00  0.00    +0.006 A 
ENDBRANCH  12  20
BRANCH  11  26
ATOM     26  N   UNL     1       8.728  -4.492   0.362  0.00  0.00    -0.252 NA
ATOM     27  H   UNL     1       9.439  -3.805   0.160  0.00  0.00    +0.141 HD
ATOM     28  H   UNL     1       8.887  -4.922   1.261  0.00  0.00    +0.141 HD
ENDBRANCH  11  26
TORSDOF 3
