REMARK  Name = ZINC04029153
REMARK  11 active torsions:
REMARK  status: ('A' for Active; 'I' for Inactive)
REMARK    1  A    between atoms: C_1  and  C_2
REMARK    2  A    between atoms: C_2  and  C_5
REMARK    3  A    between atoms: N_3  and  O_4
REMARK    4  A    between atoms: C_5  and  O_34
REMARK    5  A    between atoms: C_6  and  O_33
REMARK    6  A    between atoms: C_11  and  C_32
REMARK    7  A    between atoms: C_21  and  C_31
REMARK    8  A    between atoms: C_24  and  O_27
REMARK    9  A    between atoms: O_27  and  C_28
REMARK   10  A    between atoms: C_28  and  C_30
REMARK   11  A    between atoms: O_34  and  C_35
REMARK                            x       y       z     vdW  Elec       q    Type
REMARK                         _______ _______ _______ _____ _____    ______ ____
ROOT
ATOM      1  C   UNL     1       0.125  -0.719  -1.373  0.00  0.00    +0.141 C 
ATOM      2  C   UNL     1      -1.136  -0.085  -2.019  0.00  0.00    +0.153 C 
ATOM      3  C   UNL     1      -2.234  -1.183  -2.020  0.00  0.00    +0.039 C 
ATOM      4  C   UNL     1      -1.670  -2.243  -1.060  0.00  0.00    +0.004 C 
ATOM      5  C   UNL     1      -0.172  -2.230  -1.425  0.00  0.00    +0.008 C 
ATOM      6  C   UNL     1       0.609  -3.109  -0.492  0.00  0.00    +0.010 C 
ATOM      7  C   UNL     1      -0.055  -4.479  -0.305  0.00  0.00    +0.005 C 
ATOM      8  C   UNL     1      -1.234  -4.716  -1.230  0.00  0.00    +0.003 C 
ATOM      9  C   UNL     1      -2.282  -3.607  -1.123  0.00  0.00    +0.000 C 
ATOM     10  C   UNL     1      -3.245  -3.772  -2.306  0.00  0.00    +0.031 C 
ATOM     11  C   UNL     1      -3.834  -5.154  -2.225  0.00  0.00    -0.027 C 
ATOM     12  C   UNL     1      -3.258  -6.142  -1.614  0.00  0.00    -0.064 C 
ATOM     13  C   UNL     1      -1.909  -6.057  -0.945  0.00  0.00    -0.008 C 
ATOM     14  C   UNL     1      -2.088  -6.315   0.544  0.00  0.00    +0.015 C 
ATOM     15  C   UNL     1      -3.497  -6.835   0.828  0.00  0.00    +0.046 C 
ATOM     16  C   UNL     1      -3.892  -7.977  -0.101  0.00  0.00    +0.180 C 
ATOM     17  C   UNL     1      -3.957  -7.490  -1.554  0.00  0.00    +0.075 C 
ATOM     18  C   UNL     1      -1.010  -7.152  -1.530  0.00  0.00    +0.016 C 
ATOM     19  C   UNL     1       0.071  -2.645  -2.885  0.00  0.00    +0.015 C 
ENDROOT
BRANCH   1  21
ATOM     20  C   UNL     1       1.665  -0.222   0.666  0.00  0.00    +0.067 C 
ATOM     21  C   UNL     1       0.299  -0.219   0.029  0.00  0.00    +0.089 C 
ATOM     22  N   UNL     1      -0.712   0.210   0.686  0.00  0.00    -0.094 NA
BRANCH  22  23
ATOM     23  O   UNL     1      -0.547   0.682   2.011  0.00  0.00    -0.409 OA
ATOM     24  H   UNL     1      -1.367   0.985   2.425  0.00  0.00    +0.328 HD
ENDBRANCH  22  23
ENDBRANCH   1  21
BRANCH   2  25
ATOM     25  O   UNL     1      -1.566   1.038  -1.249  0.00  0.00    -0.389 OA
ATOM     26  H   UNL     1      -2.351   1.479  -1.601  0.00  0.00    +0.210 HD
ENDBRANCH   2  25
BRANCH   1  27
ATOM     27  O   UNL     1       1.279  -0.430  -2.162  0.00  0.00    -0.368 OA
ATOM     28  C   UNL     1       1.534   0.966  -2.329  0.00  0.00    +0.195 C 
ENDBRANCH   1  27
BRANCH  16  29
ATOM     29  O   UNL     1      -2.953  -9.047   0.013  0.00  0.00    -0.461 OA
BRANCH  29  30
ATOM     30  C   UNL     1      -3.415 -10.288  -0.203  0.00  0.00    +0.304 C 
ATOM     31  O   UNL     1      -4.578 -10.460  -0.481  0.00  0.00    -0.251 OA
ATOM     32  C   UNL     1      -2.483 -11.468  -0.100  0.00  0.00    +0.136 C 
ENDBRANCH  29  30
ENDBRANCH  16  29
TORSDOF 6
