REMARK  Name = ZINC43596888
REMARK  4 active torsions:
REMARK  status: ('A' for Active; 'I' for Inactive)
REMARK    1  A    between atoms: C_3  and  N_11
REMARK    2  A    between atoms: C_6  and  N_7
REMARK    3  A    between atoms: N_11  and  C_12
REMARK    4  A    between atoms: C_18  and  N_20
REMARK                            x       y       z     vdW  Elec       q    Type
REMARK                         _______ _______ _______ _____ _____    ______ ____
ROOT
ATOM      1  N   UNL     1       3.582   2.124  -0.021  0.00  0.00    -0.342 N 
ATOM      2  H   UNL     1       4.428   1.649  -0.032  0.00  0.00    +0.146 HD
ENDROOT
BRANCH   1   5
ATOM      3  C   UNL     1      -0.017   1.378   0.010  0.00  0.00    +0.034 A 
ATOM      4  C   UNL     1       1.169   2.087   0.002  0.00  0.00    +0.026 A 
ATOM      5  C   UNL     1       2.381   1.410  -0.013  0.00  0.00    +0.042 A 
ATOM      6  C   UNL     1       2.397   0.020  -0.021  0.00  0.00    +0.041 A 
ATOM      7  C   UNL     1       1.207  -0.682  -0.013  0.00  0.00    +0.049 A 
ATOM      8  C   UNL     1       0.002  -0.004   0.002  0.00  0.00    +0.127 A 
ATOM      9 BR   UNL     1       4.044  -0.908  -0.042  0.00  0.00    -0.048 Br
BRANCH   8  10
ATOM     10  N   UNL     1      -1.270  -0.760   0.010  0.00  0.00    +0.056 N 
ATOM     11  O   UNL     1      -2.325  -0.168   0.023  0.00  0.00    -0.126 OA
ATOM     12  O   UNL     1      -1.256  -1.969   0.003  0.00  0.00    -0.126 OA
ENDBRANCH   8  10
ENDBRANCH   1   5
BRANCH   1  13
ATOM     13  C   UNL     1       3.564   3.589  -0.014  0.00  0.00    +0.056 C 
ATOM     14  C   UNL     1       3.418   4.104  -1.447  0.00  0.00    +0.020 C 
ATOM     15  C   UNL     1       4.598   3.613  -2.288  0.00  0.00    +0.002 C 
ATOM     16  C   UNL     1       5.904   4.137  -1.688  0.00  0.00    -0.001 C 
ATOM     17  C   UNL     1       6.050   3.621  -0.255  0.00  0.00    -0.014 C 
ATOM     18  C   UNL     1       4.870   4.112   0.586  0.00  0.00    -0.055 C 
BRANCH  18  19
ATOM     19  N   UNL     1       5.011   3.617   1.962  0.00  0.00    +0.381 N 
ATOM     20  H   UNL     1       5.023   2.608   1.957  0.00  0.00    -0.090 HD
ATOM     21  H   UNL     1       5.872   3.962   2.357  0.00  0.00    -0.090 HD
ATOM     22  H   UNL     1       4.232   3.941   2.517  0.00  0.00    -0.090 HD
ENDBRANCH  18  19
ENDBRANCH   1  13
TORSDOF 4
