REMARK  Name = ZINC39664937
REMARK  8 active torsions:
REMARK  status: ('A' for Active; 'I' for Inactive)
REMARK    1  A    between atoms: C_1  and  N_2
REMARK    2  A    between atoms: N_2  and  C_3
REMARK    3  A    between atoms: N_2  and  C_4
REMARK    4  A    between atoms: C_4  and  C_5
REMARK    5  A    between atoms: C_5  and  C_7
REMARK    6  A    between atoms: C_5  and  N_13
REMARK    7  A    between atoms: C_14  and  C_16
REMARK    8  A    between atoms: C_27  and  C_29
REMARK                            x       y       z     vdW  Elec       q    Type
REMARK                         _______ _______ _______ _____ _____    ______ ____
ROOT
ATOM      1  C   UNL     1       0.433   0.329  -4.441  0.00  0.00    +0.100 C 
ATOM      2  C   UNL     1      -0.494   0.336  -5.677  0.00  0.00    +0.121 C 
ATOM      3  N   UNL     1      -0.430   1.727  -6.185  0.00  0.00    -0.300 N 
ATOM      4  C   UNL     1       0.991   2.114  -6.022  0.00  0.00    +0.115 C 
ATOM      5  C   UNL     1       1.409   1.495  -4.673  0.00  0.00    -0.004 C 
ATOM      6  C   UNL     1       2.842   0.977  -4.750  0.00  0.00    -0.010 C 
ATOM      7  C   UNL     1       3.799   2.160  -4.923  0.00  0.00    -0.082 C 
ATOM      8  N   UNL     1       3.650   3.081  -3.789  0.00  0.00    +0.379 N 
ATOM      9  C   UNL     1       2.296   3.646  -3.777  0.00  0.00    -0.082 C 
ATOM     10  C   UNL     1       1.275   2.526  -3.556  0.00  0.00    -0.010 C 
ATOM     11  C   UNL     1      -1.437   2.471  -6.684  0.00  0.00    +0.219 C 
ATOM     12  O   UNL     1      -1.224   3.603  -7.063  0.00  0.00    -0.275 OA
ATOM     13  H   UNL     1       3.812   2.581  -2.928  0.00  0.00    -0.086 HD
ATOM     14  H   UNL     1       4.324   3.827  -3.873  0.00  0.00    -0.086 HD
ENDROOT
BRANCH  11  15
ATOM     15  C   UNL     1      -2.828   1.897  -6.770  0.00  0.00    +0.079 C 
ATOM     16  C   UNL     1      -2.815   0.657  -7.671  0.00  0.00    +0.041 C 
ATOM     17  C   UNL     1      -4.244   0.127  -7.816  0.00  0.00    +0.160 C 
ATOM     18  O   UNL     1      -5.081   1.156  -8.349  0.00  0.00    -0.380 OA
ATOM     19  C   UNL     1      -5.168   2.321  -7.526  0.00  0.00    +0.160 C 
ATOM     20  C   UNL     1      -3.777   2.939  -7.369  0.00  0.00    +0.041 C 
ENDBRANCH  11  15
BRANCH   1  22
ATOM     21  N   UNL     1      -1.280   1.546  -3.136  0.00  0.00    -0.310 N 
ATOM     22  C   UNL     1      -0.367   0.556  -3.184  0.00  0.00    +0.219 C 
ATOM     23  O   UNL     1      -0.188  -0.152  -2.216  0.00  0.00    -0.275 OA
ATOM     24  H   UNL     1      -1.478   2.062  -3.933  0.00  0.00    +0.149 HD
BRANCH  21  25
ATOM     25  C   UNL     1      -1.974   1.842  -1.880  0.00  0.00    +0.087 C 
BRANCH  25  26
ATOM     26  C   UNL     1      -1.787   3.296  -1.533  0.00  0.00    -0.029 A 
ATOM     27  C   UNL     1      -1.843   4.256  -2.526  0.00  0.00    +0.005 A 
ATOM     28  C   UNL     1      -1.671   5.591  -2.208  0.00  0.00    +0.000 A 
ATOM     29  C   UNL     1      -1.443   5.965  -0.897  0.00  0.00    +0.000 A 
ATOM     30  C   UNL     1      -1.389   5.005   0.096  0.00  0.00    +0.000 A 
ATOM     31  C   UNL     1      -1.565   3.671  -0.221  0.00  0.00    +0.005 A 
ENDBRANCH  25  26
BRANCH  25  32
ATOM     32  C   UNL     1      -3.466   1.544  -2.040  0.00  0.00    -0.052 C 
BRANCH  32  34
ATOM     33  C   UNL     1      -3.246  -0.744  -1.351  0.00  0.00    -0.097 C 
ATOM     34  N   UNL     1      -3.645   0.145  -2.451  0.00  0.00    +0.377 N 
ATOM     35  C   UNL     1      -5.056  -0.091  -2.784  0.00  0.00    -0.097 C 
ATOM     36  H   UNL     1      -3.072  -0.044  -3.260  0.00  0.00    -0.083 HD
ENDBRANCH  32  34
ENDBRANCH  25  32
ENDBRANCH  21  25
ENDBRANCH   1  22
TORSDOF 6
