REMARK  Name = ZINC00288649
REMARK  6 active torsions:
REMARK  status: ('A' for Active; 'I' for Inactive)
REMARK    1  A    between atoms: C_2  and  C_9
REMARK    2  A    between atoms: C_4  and  O_8
REMARK    3  A    between atoms: C_6  and  O_7
REMARK    4  A    between atoms: N_11  and  N_12
REMARK    5  A    between atoms: C_13  and  C_14
REMARK    6  A    between atoms: C_19  and  O_20
REMARK                            x       y       z     vdW  Elec       q    Type
REMARK                         _______ _______ _______ _____ _____    ______ ____
ROOT
ATOM      1  C   UNL     1       3.661   2.167  -0.022  0.00  0.00    +0.263 C 
ATOM      2  O   UNL     1       4.721   1.572  -0.036  0.00  0.00    -0.268 OA
ATOM      3  N   UNL     1       3.645   3.515  -0.015  0.00  0.00    -0.203 N 
ATOM      4  H   UNL     1       2.799   3.990  -0.004  0.00  0.00    +0.178 HD
ENDROOT
BRANCH   1   6
ATOM      5  C   UNL     1       2.404   0.017  -0.021  0.00  0.00    +0.058 A 
ATOM      6  C   UNL     1       2.390   1.413  -0.014  0.00  0.00    +0.045 A 
ATOM      7  C   UNL     1       1.172   2.094   0.002  0.00  0.00    +0.058 A 
ATOM      8  C   UNL     1      -0.017   1.383   0.010  0.00  0.00    +0.121 A 
ATOM      9  C   UNL     1       0.002  -0.004   0.002  0.00  0.00    +0.090 A 
ATOM     10  C   UNL     1       1.210  -0.685  -0.013  0.00  0.00    +0.121 A 
BRANCH  10  11
ATOM     11  O   UNL     1       1.223  -2.044  -0.021  0.00  0.00    -0.507 OA
ATOM     12  H   UNL     1       1.218  -2.433  -0.906  0.00  0.00    +0.292 HD
ENDBRANCH  10  11
BRANCH   8  13
ATOM     13  O   UNL     1      -1.203   2.046   0.019  0.00  0.00    -0.507 OA
ATOM     14  H   UNL     1      -1.543   2.233   0.905  0.00  0.00    +0.292 HD
ENDBRANCH   8  13
ENDBRANCH   1   6
BRANCH   3  15
ATOM     15  N   UNL     1       4.850   4.230  -0.023  0.00  0.00    -0.187 NA
ATOM     16  C   UNL     1       4.834   5.528  -0.016  0.00  0.00    +0.142 C 
BRANCH  16  17
ATOM     17  C   UNL     1       6.102   6.280  -0.025  0.00  0.00    +0.039 A 
ATOM     18  C   UNL     1       6.089   7.677  -0.017  0.00  0.00    +0.033 A 
ATOM     19  C   UNL     1       7.279   8.375  -0.025  0.00  0.00    +0.043 A 
ATOM     20  C   UNL     1       8.487   7.697  -0.040  0.00  0.00    +0.043 A 
ATOM     21  C   UNL     1       8.512   6.314  -0.048  0.00  0.00    +0.084 A 
ATOM     22  C   UNL     1       7.325   5.597  -0.035  0.00  0.00    +0.144 A 
ATOM     23 CL   UNL     1      10.031   5.474  -0.067  0.00  0.00    -0.080 Cl
ATOM     24 CL   UNL     1       7.263  10.111  -0.015  0.00  0.00    -0.083 Cl
BRANCH  22  25
ATOM     25  O   UNL     1       7.349   4.239  -0.037  0.00  0.00    -0.505 OA
ATOM     26  H   UNL     1       7.349   3.847  -0.921  0.00  0.00    +0.292 HD
ENDBRANCH  22  25
ENDBRANCH  16  17
ENDBRANCH   3  15
TORSDOF 6
