REMARK  Name = ZINC00752590
REMARK  4 active torsions:
REMARK  status: ('A' for Active; 'I' for Inactive)
REMARK    1  A    between atoms: C_4  and  C_7
REMARK    2  A    between atoms: C_12  and  C_20
REMARK    3  A    between atoms: C_14  and  C_18
REMARK    4  A    between atoms: C_15  and  N_17
REMARK                            x       y       z     vdW  Elec       q    Type
REMARK                         _______ _______ _______ _____ _____    ______ ____
ROOT
ATOM      1  C   UNL     1      -5.162   2.043  -3.334  0.00  0.00    +0.034 C 
ATOM      2  C   UNL     1      -5.142   3.220  -2.367  0.00  0.00    +0.083 C 
ATOM      3  C   UNL     1      -4.351   2.853  -1.133  0.00  0.00    +0.115 C 
ATOM      4  C   UNL     1      -3.321   1.994  -1.207  0.00  0.00    +0.046 C 
ATOM      5  C   UNL     1      -2.524   1.637   0.023  0.00  0.00    +0.102 C 
ATOM      6  C   UNL     1      -3.306   1.980   1.260  0.00  0.00    +0.098 C 
ATOM      7  C   UNL     1      -4.348   2.844   1.194  0.00  0.00    +0.198 C 
ATOM      8  O   UNL     1      -4.707   3.419   0.036  0.00  0.00    -0.445 OA
ATOM      9  C   UNL     1      -2.955   1.401  -2.430  0.00  0.00    +0.164 C 
ATOM     10  O   UNL     1      -2.008   0.641  -2.465  0.00  0.00    -0.292 OA
ATOM     11  C   UNL     1      -3.716   1.690  -3.696  0.00  0.00    +0.088 C 
ENDROOT
BRANCH   5  12
ATOM     12  C   UNL     1      -1.228   2.407   0.021  0.00  0.00    -0.016 A 
ATOM     13  C   UNL     1      -1.247   3.789   0.033  0.00  0.00    +0.006 A 
ATOM     14  C   UNL     1      -0.059   4.497   0.025  0.00  0.00    +0.000 A 
ATOM     15  C   UNL     1       1.148   3.822   0.011  0.00  0.00    +0.001 A 
ATOM     16  C   UNL     1       1.167   2.440   0.004  0.00  0.00    +0.020 A 
ATOM     17  C   UNL     1      -0.021   1.732   0.012  0.00  0.00    +0.045 A 
ATOM     18 CL   UNL     1       0.002  -0.004   0.002  0.00  0.00    -0.083 Cl
ENDBRANCH   5  12
BRANCH   1  22
ATOM     19  C   UNL     1      -7.303   3.127  -6.868  0.00  0.00    +0.000 A 
ATOM     20  C   UNL     1      -7.725   2.053  -6.106  0.00  0.00    +0.000 A 
ATOM     21  C   UNL     1      -7.033   1.703  -4.962  0.00  0.00    +0.004 A 
ATOM     22  C   UNL     1      -5.918   2.425  -4.581  0.00  0.00    -0.043 A 
ATOM     23  C   UNL     1      -5.498   3.502  -5.340  0.00  0.00    +0.004 A 
ATOM     24  C   UNL     1      -6.189   3.850  -6.486  0.00  0.00    +0.000 A 
ENDBRANCH   1  22
BRANCH   7  25
ATOM     25  N   UNL     1      -5.050   3.138   2.336  0.00  0.00    -0.328 N 
ATOM     26  H   UNL     1      -4.799   2.729   3.179  0.00  0.00    +0.145 HD
ATOM     27  H   UNL     1      -5.798   3.755   2.301  0.00  0.00    +0.145 HD
ENDBRANCH   7  25
BRANCH   6  28
ATOM     28  C   UNL     1      -2.948   1.391   2.515  0.00  0.00    +0.101 C 
ATOM     29  N   UNL     1      -2.664   0.924   3.511  0.00  0.00    -0.191 NA
ENDBRANCH   6  28
TORSDOF 4
