REMARK  Name = ZINC43474188
REMARK  5 active torsions:
REMARK  status: ('A' for Active; 'I' for Inactive)
REMARK    1  A    between atoms: C_1  and  C_2
REMARK    2  A    between atoms: C_2  and  C_4
REMARK    3  A    between atoms: C_2  and  N_10
REMARK    4  A    between atoms: N_10  and  C_11
REMARK    5  A    between atoms: C_14  and  N_18
REMARK                            x       y       z     vdW  Elec       q    Type
REMARK                         _______ _______ _______ _____ _____    ______ ____
ROOT
ATOM      1  N   UNL     1      -1.372  -0.511   0.012  0.00  0.00    -0.335 N 
ATOM      2  H   UNL     1      -1.794  -0.752   0.852  0.00  0.00    +0.147 HD
ENDROOT
BRANCH   1   3
ATOM      3  C   UNL     1      -2.076  -0.648  -1.188  0.00  0.00    +0.063 A 
ATOM      4  C   UNL     1      -1.472  -0.309  -2.391  0.00  0.00    +0.028 A 
ATOM      5  C   UNL     1      -2.170  -0.445  -3.576  0.00  0.00    +0.035 A 
ATOM      6  C   UNL     1      -3.469  -0.919  -3.565  0.00  0.00    +0.129 A 
ATOM      7  C   UNL     1      -4.075  -1.257  -2.369  0.00  0.00    +0.073 A 
ATOM      8  C   UNL     1      -3.381  -1.129  -1.180  0.00  0.00    +0.146 A 
ATOM      9  F   UNL     1      -3.971  -1.465  -0.012  0.00  0.00    -0.203 F 
BRANCH   6  10
ATOM     10  N   UNL     1      -4.213  -1.063  -4.837  0.00  0.00    +0.057 N 
ATOM     11  O   UNL     1      -3.685  -0.767  -5.883  0.00  0.00    -0.126 OA
ATOM     12  O   UNL     1      -5.349  -1.477  -4.829  0.00  0.00    -0.126 OA
ENDBRANCH   6  10
ENDBRANCH   1   3
BRANCH   1  14
ATOM     13  C   UNL     1      -0.019   1.526   0.010  0.00  0.00    +0.033 C 
ATOM     14  C   UNL     1       0.002  -0.004   0.002  0.00  0.00    +0.105 C 
BRANCH  14  15
ATOM     15  C   UNL     1       0.731  -0.503   1.223  0.00  0.00    +0.024 A 
ATOM     16  C   UNL     1       1.979  -1.024   1.319  0.00  0.00    +0.030 A 
ATOM     17  C   UNL     1       2.447  -1.420   2.558  0.00  0.00    +0.023 A 
ATOM     18  C   UNL     1       1.643  -1.276   3.640  0.00  0.00    +0.046 A 
ATOM     19  S   UNL     1       0.177  -0.556   2.919  0.00  0.00    -0.099 S 
ATOM     20 BR   UNL     1       3.064  -1.205  -0.219  0.00  0.00    -0.049 Br
ENDBRANCH  14  15
ENDBRANCH   1  14
TORSDOF 4
