REMARK  Name = ZINC38779144
REMARK  10 active torsions:
REMARK  status: ('A' for Active; 'I' for Inactive)
REMARK    1  A    between atoms: C_1  and  C_2
REMARK    2  A    between atoms: C_2  and  N_3
REMARK    3  A    between atoms: C_9  and  N_15
REMARK    4  A    between atoms: C_10  and  C_11
REMARK    5  A    between atoms: N_13  and  C_14
REMARK    6  A    between atoms: C_16  and  C_18
REMARK    7  A    between atoms: C_21  and  S_24
REMARK    8  A    between atoms: S_24  and  N_27
REMARK    9  A    between atoms: C_29  and  C_36
REMARK   10  A    between atoms: C_32  and  C_35
REMARK                            x       y       z     vdW  Elec       q    Type
REMARK                         _______ _______ _______ _____ _____    ______ ____
ROOT
ATOM      1  N   UNL     1       1.641  -1.947   7.266  0.00  0.00    -0.275 N 
ATOM      2  C   UNL     1       1.070  -1.199   8.230  0.00  0.00    +0.249 C 
ATOM      3  O   UNL     1       0.317  -0.292   7.931  0.00  0.00    -0.270 OA
ATOM      4  H   UNL     1       2.241  -2.670   7.505  0.00  0.00    +0.156 HD
ENDROOT
BRANCH   1  11
ATOM      5  N   UNL     1       0.713  -0.491   1.192  0.00  0.00    +0.383 N 
ATOM      6  C   UNL     1       0.841  -1.952   1.122  0.00  0.00    -0.074 C 
ATOM      7  C   UNL     1       1.837  -2.447   2.176  0.00  0.00    +0.018 C 
ATOM      8  C   UNL     1       1.421  -1.867   3.520  0.00  0.00    -0.027 A 
ATOM      9  C   UNL     1       0.569  -0.818   3.574  0.00  0.00    -0.021 A 
ATOM     10  S   UNL     1       0.371  -0.490   5.299  0.00  0.00    -0.079 S 
ATOM     11  C   UNL     1       1.370  -1.683   5.933  0.00  0.00    +0.085 A 
ATOM     12  C   UNL     1       1.863  -2.343   4.816  0.00  0.00    +0.068 A 
ATOM     13  C   UNL     1      -0.043  -0.117   2.402  0.00  0.00    -0.035 C 
ATOM     14  H   UNL     1       1.631  -0.075   1.228  0.00  0.00    -0.081 HD
BRANCH  12  15
ATOM     15  C   UNL     1       2.789  -3.472   4.941  0.00  0.00    +0.246 C 
ATOM     16  O   UNL     1       3.990  -3.275   4.960  0.00  0.00    -0.270 OA
ATOM     17  N   UNL     1       2.310  -4.729   5.036  0.00  0.00    -0.314 N 
ATOM     18  C   UNL     1       3.236  -5.857   5.161  0.00  0.00    +0.128 C 
ATOM     19  H   UNL     1       1.353  -4.886   5.022  0.00  0.00    +0.149 HD
ENDBRANCH  12  15
BRANCH   5  21
ATOM     20  C   UNL     1      -0.019   1.526   0.010  0.00  0.00    -0.017 C 
ATOM     21  C   UNL     1       0.002  -0.004   0.002  0.00  0.00    -0.082 C 
ENDBRANCH   5  21
ENDBRANCH   1  11
BRANCH   2  22
ATOM     22  C   UNL     1       1.358  -1.480   9.652  0.00  0.00    +0.037 A 
ATOM     23  C   UNL     1       2.226  -2.517  10.000  0.00  0.00    +0.015 A 
ATOM     24  C   UNL     1       2.492  -2.774  11.329  0.00  0.00    +0.029 A 
ATOM     25  C   UNL     1       1.899  -2.007  12.317  0.00  0.00    +0.106 A 
ATOM     26  C   UNL     1       1.038  -0.979  11.979  0.00  0.00    +0.029 A 
ATOM     27  C   UNL     1       0.768  -0.707  10.654  0.00  0.00    +0.015 A 
BRANCH  25  28
ATOM     28  S   UNL     1       2.243  -2.343  14.012  0.00  0.00    +0.061 S 
ATOM     29  O   UNL     1       1.143  -1.839  14.757  0.00  0.00    -0.153 OA
ATOM     30  O   UNL     1       2.652  -3.702  14.082  0.00  0.00    -0.153 OA
BRANCH  28  31
ATOM     31  N   UNL     1       3.559  -1.431  14.434  0.00  0.00    -0.176 NA
ATOM     32  C   UNL     1       4.920  -1.962  14.277  0.00  0.00    +0.112 C 
ATOM     33  C   UNL     1       5.744  -0.969  13.452  0.00  0.00    +0.002 C 
ATOM     34  C   UNL     1       5.681   0.412  14.110  0.00  0.00    +0.009 C 
ATOM     35  C   UNL     1       4.230   0.897  14.141  0.00  0.00    +0.002 C 
ATOM     36  C   UNL     1       3.388  -0.072  14.968  0.00  0.00    +0.112 C 
ATOM     37  C   UNL     1       4.171   2.292  14.768  0.00  0.00    +0.009 C 
ATOM     38  C   UNL     1       7.199  -1.439  13.391  0.00  0.00    +0.009 C 
ENDBRANCH  28  31
ENDBRANCH  25  28
ENDBRANCH   2  22
TORSDOF 6
