REMARK  Name = ZINC32605609
REMARK  5 active torsions:
REMARK  status: ('A' for Active; 'I' for Inactive)
REMARK    1  A    between atoms: C_3  and  C_6
REMARK    2  A    between atoms: C_7  and  C_8
REMARK    3  A    between atoms: N_10  and  N_11
REMARK    4  A    between atoms: C_12  and  C_14
REMARK    5  A    between atoms: C_23  and  N_24
REMARK                            x       y       z     vdW  Elec       q    Type
REMARK                         _______ _______ _______ _____ _____    ______ ____
ROOT
ATOM      1  N   UNL     1      -6.010   3.388   0.207  0.00  0.00    -0.230 N 
ATOM      2  C   UNL     1      -4.821   4.012   0.092  0.00  0.00    +0.263 C 
ATOM      3  O   UNL     1      -4.775   5.224   0.011  0.00  0.00    -0.269 OA
ATOM      4  H   UNL     1      -6.051   2.291   0.280  0.00  0.00    +0.173 HD
ENDROOT
BRANCH   2   5
ATOM      5  C   UNL     1      -3.577   3.225   0.064  0.00  0.00    +0.077 A 
ATOM      6  C   UNL     1      -3.625   1.822   0.033  0.00  0.00    +0.126 A 
ATOM      7  N   UNL     1      -2.535   1.098   0.009  0.00  0.00    -0.254 NA
ATOM      8  C   UNL     1      -1.314   1.652   0.005  0.00  0.00    +0.073 A 
ATOM      9  C   UNL     1      -0.162   0.849  -0.015  0.00  0.00    +0.030 A 
ATOM     10  C   UNL     1       1.070   1.430  -0.013  0.00  0.00    +0.022 A 
ATOM     11  C   UNL     1       1.209   2.816   0.017  0.00  0.00    +0.042 A 
ATOM     12  C   UNL     1       0.112   3.626   0.043  0.00  0.00    +0.032 A 
ATOM     13  C   UNL     1      -1.170   3.058   0.041  0.00  0.00    +0.023 A 
ATOM     14  C   UNL     1      -2.330   3.869   0.068  0.00  0.00    +0.048 A 
ATOM     15 CL   UNL     1       2.796   3.519   0.020  0.00  0.00    -0.084 Cl
BRANCH  14  16
ATOM     16  N   UNL     1      -2.239   5.243   0.099  0.00  0.00    -0.357 N 
ATOM     17  H   UNL     1      -1.252   5.728   0.102  0.00  0.00    +0.142 HD
ATOM     18  H   UNL     1      -3.153   5.854   0.120  0.00  0.00    +0.142 HD
ENDBRANCH  14  16
ENDBRANCH   2   5
BRANCH   1  21
ATOM     19  C   UNL     1      -8.383   3.513   0.348  0.00  0.00    +0.253 C 
ATOM     20  O   UNL     1      -8.428   2.299   0.429  0.00  0.00    -0.269 OA
ATOM     21  N   UNL     1      -7.194   4.137   0.233  0.00  0.00    -0.231 N 
ATOM     22  H   UNL     1      -7.153   5.233   0.160  0.00  0.00    +0.173 HD
BRANCH  19  24
ATOM     23  C   UNL     1     -10.776   3.642   0.490  0.00  0.00    +0.051 C 
ATOM     24  C   UNL     1      -9.579   4.269   0.375  0.00  0.00    +0.072 C 
BRANCH  23  27
ATOM     25  C   UNL     1     -14.119   4.996   0.614  0.00  0.00    +0.042 A 
ATOM     26  C   UNL     1     -13.252   3.893   0.625  0.00  0.00    +0.049 A 
ATOM     27  C   UNL     1     -11.973   4.398   0.517  0.00  0.00    +0.128 A 
ATOM     28  O   UNL     1     -12.066   5.742   0.436  0.00  0.00    -0.464 OA
ATOM     29  C   UNL     1     -13.355   6.104   0.494  0.00  0.00    +0.195 A 
ENDBRANCH  23  27
ENDBRANCH  19  24
ENDBRANCH   1  21
TORSDOF 5
