REMARK  Name = ZINC64600299
REMARK  7 active torsions:
REMARK  status: ('A' for Active; 'I' for Inactive)
REMARK    1  A    between atoms: C_1  and  O_2
REMARK    2  A    between atoms: O_2  and  C_3
REMARK    3  A    between atoms: C_6  and  C_9
REMARK    4  A    between atoms: C_9  and  N_10
REMARK    5  A    between atoms: C_11  and  O_36
REMARK    6  A    between atoms: C_14  and  O_35
REMARK    7  A    between atoms: C_15  and  C_19
REMARK                            x       y       z     vdW  Elec       q    Type
REMARK                         _______ _______ _______ _____ _____    ______ ____
ROOT
ATOM      1  N   UNL     1      -5.423  -2.855  -1.343  0.00  0.00    -0.252 N 
ATOM      2  C   UNL     1      -6.224  -1.831  -1.997  0.00  0.00    +0.334 C 
ATOM      3  N   UNL     1      -6.189  -1.950  -3.446  0.00  0.00    -0.204 NA
ATOM      4  C   UNL     1      -5.866  -3.015  -4.070  0.00  0.00    +0.200 C 
ATOM      5  C   UNL     1      -5.476  -4.284  -3.370  0.00  0.00    +0.179 C 
ATOM      6  C   UNL     1      -5.070  -3.994  -1.953  0.00  0.00    +0.233 C 
ATOM      7  O   UNL     1      -4.411  -4.811  -1.347  0.00  0.00    -0.275 OA
ENDROOT
BRANCH   5   8
ATOM      8  C   UNL     1      -6.663  -5.248  -3.371  0.00  0.00    +0.101 C 
ATOM      9  C   UNL     1      -6.999  -5.652  -4.808  0.00  0.00    +0.124 C 
ATOM     10  C   UNL     1      -8.285  -6.467  -4.732  0.00  0.00    -0.036 C 
ATOM     11  C   UNL     1      -8.037  -7.618  -5.342  0.00  0.00    +0.001 A 
ATOM     12  C   UNL     1      -8.901  -8.766  -5.662  0.00  0.00    +0.030 A 
ATOM     13  C   UNL     1      -8.302  -9.810  -6.295  0.00  0.00    +0.042 A 
ATOM     14  C   UNL     1      -6.946  -9.825  -6.638  0.00  0.00    +0.022 A 
ATOM     15  C   UNL     1      -6.080  -8.811  -6.389  0.00  0.00    +0.027 A 
ATOM     16  C   UNL     1      -6.594  -7.656  -5.731  0.00  0.00    +0.043 A 
ATOM     17  N   UNL     1      -5.990  -6.532  -5.396  0.00  0.00    -0.376 N 
ATOM     18 CL   UNL     1      -9.270 -11.194  -6.697  0.00  0.00    -0.084 Cl
ATOM     19  C   UNL     1      -9.496  -5.967  -3.983  0.00  0.00    +0.048 C 
ATOM     20  C   UNL     1      -8.984  -5.485  -2.613  0.00  0.00    +0.085 C 
ATOM     21  N   UNL     1      -7.841  -4.585  -2.789  0.00  0.00    -0.310 NA
ATOM     22  H   UNL     1      -7.606  -4.125  -1.922  0.00  0.00    +0.122 HD
ATOM     23  H   UNL     1      -5.050  -6.321  -5.510  0.00  0.00    +0.160 HD
ENDBRANCH   5   8
BRANCH   4  24
ATOM     24  O   UNL     1      -5.877  -2.999  -5.419  0.00  0.00    -0.495 OA
ATOM     25  H   UNL     1      -6.138  -2.150  -5.801  0.00  0.00    +0.293 HD
ENDBRANCH   4  24
BRANCH   2  26
ATOM     26  O   UNL     1      -5.724  -0.544  -1.627  0.00  0.00    -0.356 OA
ATOM     27  H   UNL     1      -6.207   0.194  -2.023  0.00  0.00    +0.214 HD
ENDBRANCH   2  26
BRANCH   1  28
ATOM     28  C   UNL     1      -4.981  -2.629   0.035  0.00  0.00    +0.147 C 
BRANCH  28  32
ATOM     29  C   UNL     1      -1.200  -0.637   0.010  0.00  0.00    +0.120 A 
ATOM     30  C   UNL     1      -2.375   0.101   0.019  0.00  0.00    +0.046 A 
ATOM     31  C   UNL     1      -3.596  -0.545   0.027  0.00  0.00    +0.009 A 
ATOM     32  C   UNL     1      -3.648  -1.927   0.026  0.00  0.00    -0.030 A 
ATOM     33  C   UNL     1      -2.479  -2.665   0.017  0.00  0.00    +0.009 A 
ATOM     34  C   UNL     1      -1.255  -2.024   0.003  0.00  0.00    +0.046 A 
BRANCH  29  36
ATOM     35  C   UNL     1      -0.017   1.425   0.010  0.00  0.00    +0.277 C 
ATOM     36  O   UNL     1       0.002  -0.004   0.002  0.00  0.00    -0.495 OA
ENDBRANCH  29  36
ENDBRANCH  28  32
ENDBRANCH   1  28
TORSDOF 6
