REMARK  Name = ZINC64081426
REMARK  7 active torsions:
REMARK  status: ('A' for Active; 'I' for Inactive)
REMARK    1  A    between atoms: C_4  and  C_7
REMARK    2  A    between atoms: C_10  and  C_16
REMARK    3  A    between atoms: N_18  and  N_19
REMARK    4  A    between atoms: N_19  and  C_20
REMARK    5  A    between atoms: C_20  and  N_22
REMARK    6  A    between atoms: N_22  and  C_23
REMARK    7  A    between atoms: C_23  and  C_24
REMARK                            x       y       z     vdW  Elec       q    Type
REMARK                         _______ _______ _______ _____ _____    ______ ____
ROOT
ATOM      1  C   UNL     1       3.693  -0.681  -0.037  0.00  0.00    +0.175 A 
ATOM      2  C   UNL     1       3.868  -2.063   0.046  0.00  0.00    +0.050 A 
ATOM      3  C   UNL     1       3.002  -3.159   0.163  0.00  0.00    +0.027 A 
ATOM      4  C   UNL     1       3.528  -4.438   0.222  0.00  0.00    +0.039 A 
ATOM      5  C   UNL     1       4.920  -4.659   0.168  0.00  0.00    +0.015 A 
ATOM      6  C   UNL     1       5.796  -3.636   0.056  0.00  0.00    +0.032 A 
ATOM      7  C   UNL     1       5.321  -2.304  -0.011  0.00  0.00    +0.114 A 
ATOM      8  N   UNL     1       5.900  -1.128  -0.118  0.00  0.00    -0.078 NA
ATOM      9  O   UNL     1       4.906  -0.122  -0.141  0.00  0.00    -0.353 OA
ENDROOT
BRANCH   1  13
ATOM     10  C   UNL     1      -0.016   1.380   0.010  0.00  0.00    +0.000 A 
ATOM     11  C   UNL     1       1.028   1.823   0.803  0.00  0.00    +0.001 A 
ATOM     12  C   UNL     1       2.236   1.159   0.794  0.00  0.00    +0.011 A 
ATOM     13  C   UNL     1       2.405   0.035  -0.021  0.00  0.00    +0.021 A 
ATOM     14  C   UNL     1       1.345  -0.406  -0.820  0.00  0.00    +0.011 A 
ATOM     15  C   UNL     1       0.143   0.269  -0.799  0.00  0.00    +0.001 A 
ENDBRANCH   1  13
BRANCH   4  16
ATOM     16  C   UNL     1       2.616  -5.590   0.345  0.00  0.00    +0.260 C 
ATOM     17  O   UNL     1       1.414  -5.412   0.394  0.00  0.00    -0.269 OA
ATOM     18  N   UNL     1       3.116  -6.841   0.404  0.00  0.00    -0.231 N 
ATOM     19  H   UNL     1       4.074  -6.982   0.366  0.00  0.00    +0.173 HD
BRANCH  18  20
ATOM     20  N   UNL     1       2.249  -7.936   0.521  0.00  0.00    -0.246 N 
ATOM     21  H   UNL     1       1.291  -7.794   0.559  0.00  0.00    +0.172 HD
BRANCH  20  22
ATOM     22  C   UNL     1       2.749  -9.186   0.580  0.00  0.00    +0.147 C 
ATOM     23  S   UNL     1       1.690 -10.524   0.723  0.00  0.00    -0.017 S 
BRANCH  22  24
ATOM     24  N   UNL     1       4.081  -9.383   0.526  0.00  0.00    -0.317 N 
ATOM     25  H   UNL     1       4.680  -8.625   0.446  0.00  0.00    +0.148 HD
BRANCH  24  26
ATOM     26  C   UNL     1       4.623 -10.743   0.590  0.00  0.00    +0.216 C 
BRANCH  26  27
ATOM     27  C   UNL     1       6.150 -10.687   0.510  0.00  0.00    +0.405 C 
ATOM     28  F   UNL     1       6.646  -9.936   1.581  0.00  0.00    -0.169 F 
ATOM     29  F   UNL     1       6.668 -11.985   0.571  0.00  0.00    -0.169 F 
ATOM     30  F   UNL     1       6.532 -10.088  -0.695  0.00  0.00    -0.169 F 
ENDBRANCH  26  27
ENDBRANCH  24  26
ENDBRANCH  22  24
ENDBRANCH  20  22
ENDBRANCH  18  20
ENDBRANCH   4  16
TORSDOF 7
