REMARK  Name = ZINC16019670
REMARK  7 active torsions:
REMARK  status: ('A' for Active; 'I' for Inactive)
REMARK    1  A    between atoms: C_1  and  C_2
REMARK    2  A    between atoms: N_4  and  C_5
REMARK    3  A    between atoms: C_8  and  N_11
REMARK    4  A    between atoms: C_12  and  C_14
REMARK    5  A    between atoms: C_15  and  C_16
REMARK    6  A    between atoms: C_19  and  S_22
REMARK    7  A    between atoms: S_22  and  N_25
REMARK                            x       y       z     vdW  Elec       q    Type
REMARK                         _______ _______ _______ _____ _____    ______ ____
ROOT
ATOM      1  C   UNL     1      -0.145   9.840  -0.785  0.00  0.00    +0.068 C 
ATOM      2  C   UNL     1       1.004  10.516  -0.989  0.00  0.00    +0.013 C 
ENDROOT
BRANCH   2   3
ATOM      3  C   UNL     1       0.974  11.972  -1.201  0.00  0.00    -0.025 A 
ATOM      4  C   UNL     1      -0.245  12.658  -1.198  0.00  0.00    +0.010 A 
ATOM      5  C   UNL     1      -0.265  14.022  -1.393  0.00  0.00    +0.029 A 
ATOM      6  C   UNL     1       0.916  14.713  -1.601  0.00  0.00    +0.106 A 
ATOM      7  C   UNL     1       2.126  14.040  -1.611  0.00  0.00    +0.029 A 
ATOM      8  C   UNL     1       2.163  12.677  -1.413  0.00  0.00    +0.010 A 
BRANCH   6   9
ATOM      9  S   UNL     1       0.880  16.456  -1.856  0.00  0.00    +0.061 S 
ATOM     10  O   UNL     1      -0.320  16.928  -1.258  0.00  0.00    -0.153 OA
ATOM     11  O   UNL     1       2.160  16.947  -1.486  0.00  0.00    -0.153 OA
BRANCH   9  12
ATOM     12  N   UNL     1       0.728  16.709  -3.486  0.00  0.00    -0.177 NA
ATOM     13  C   UNL     1       1.929  16.831  -4.282  0.00  0.00    +0.109 C 
ATOM     14  C   UNL     1       2.380  18.306  -4.332  0.00  0.00    +0.017 C 
ATOM     15  C   UNL     1       1.456  19.094  -5.161  0.00  0.00    +0.001 C 
ATOM     16  C   UNL     1       0.027  19.152  -4.629  0.00  0.00    +0.001 C 
ATOM     17  C   UNL     1      -0.733  17.938  -5.104  0.00  0.00    +0.017 C 
ATOM     18  C   UNL     1      -0.626  16.808  -4.064  0.00  0.00    +0.109 C 
ENDBRANCH   9  12
ENDBRANCH   6   9
ENDBRANCH   2   3
BRANCH   1  20
ATOM     19  N   UNL     1      -1.263   7.716  -0.369  0.00  0.00    -0.282 N 
ATOM     20  C   UNL     1      -0.114   8.392  -0.574  0.00  0.00    +0.241 C 
ATOM     21  O   UNL     1       0.948   7.798  -0.582  0.00  0.00    -0.270 OA
ATOM     22  H   UNL     1      -2.102   8.198  -0.295  0.00  0.00    +0.155 HD
BRANCH  19  26
ATOM     23  C   UNL     1      -1.209   3.560  -0.058  0.00  0.00    +0.033 A 
ATOM     24  C   UNL     1      -2.281   4.196  -0.669  0.00  0.00    +0.025 A 
ATOM     25  C   UNL     1      -2.302   5.573  -0.767  0.00  0.00    +0.025 A 
ATOM     26  C   UNL     1      -1.245   6.321  -0.265  0.00  0.00    +0.034 A 
ATOM     27  C   UNL     1      -0.169   5.684   0.341  0.00  0.00    +0.025 A 
ATOM     28  C   UNL     1      -0.151   4.307   0.444  0.00  0.00    +0.025 A 
BRANCH  23  32
ATOM     29  C   UNL     1      -2.328  -0.034   0.048  0.00  0.00    +0.109 C 
ATOM     30  C   UNL     1      -2.348   1.473   0.064  0.00  0.00    +0.214 C 
ATOM     31  O   UNL     1      -3.406   2.065   0.099  0.00  0.00    -0.276 OA
ATOM     32  N   UNL     1      -1.190   2.163   0.046  0.00  0.00    -0.286 N 
ATOM     33  H   UNL     1      -0.344   1.692   0.106  0.00  0.00    +0.155 HD
ENDBRANCH  23  32
ENDBRANCH  19  26
ENDBRANCH   1  20
TORSDOF 6
