REMARK  Name = ZINC39711267
REMARK  14 active torsions:
REMARK  status: ('A' for Active; 'I' for Inactive)
REMARK    1  A    between atoms: C_1  and  C_2
REMARK    2  A    between atoms: C_6  and  C_15
REMARK    3  A    between atoms: C_13  and  C_14
REMARK    4  A    between atoms: C_15  and  C_17
REMARK    5  A    between atoms: C_15  and  N_26
REMARK    6  A    between atoms: N_21  and  C_22
REMARK    7  A    between atoms: C_22  and  C_23
REMARK    8  A    between atoms: C_23  and  O_24
REMARK    9  A    between atoms: O_24  and  C_25
REMARK   10  A    between atoms: N_26  and  C_27
REMARK   11  A    between atoms: N_26  and  C_35
REMARK   12  A    between atoms: C_27  and  C_28
REMARK   13  A    between atoms: C_28  and  C_29
REMARK   14  A    between atoms: C_35  and  C_36
REMARK                            x       y       z     vdW  Elec       q    Type
REMARK                         _______ _______ _______ _____ _____    ______ ____
ROOT
ATOM      1  C   UNL     1      -1.538  -4.935  -2.539  0.00  0.00    +0.142 C 
ENDROOT
BRANCH   1   7
ATOM      2  C   UNL     1      -1.818   0.713   1.823  0.00  0.00    +0.044 C 
ATOM      3  C   UNL     1      -1.581  -0.744   1.521  0.00  0.00    -0.047 A 
ATOM      4  C   UNL     1      -1.286  -1.120   0.250  0.00  0.00    +0.013 A 
ATOM      5  C   UNL     1      -1.057  -2.538  -0.031  0.00  0.00    -0.007 A 
ATOM      6  C   UNL     1      -0.757  -2.961  -1.292  0.00  0.00    -0.003 C 
ATOM      7  C   UNL     1      -0.536  -4.448  -1.492  0.00  0.00    +0.123 C 
ATOM      8  C   UNL     1      -0.665  -5.339  -0.277  0.00  0.00    +0.226 C 
ATOM      9  O   UNL     1      -0.497  -6.540  -0.380  0.00  0.00    -0.275 OA
ATOM     10  N   UNL     1      -0.961  -4.809   0.898  0.00  0.00    -0.284 N 
ATOM     11  C   UNL     1      -1.157  -3.502   1.078  0.00  0.00    +0.041 A 
ATOM     12  C   UNL     1      -1.468  -3.008   2.358  0.00  0.00    +0.027 A 
ATOM     13  C   UNL     1      -1.664  -1.678   2.554  0.00  0.00    -0.046 A 
ATOM     14  C   UNL     1      -1.990  -1.193   3.943  0.00  0.00    +0.044 C 
ATOM     15  H   UNL     1      -1.039  -5.398   1.664  0.00  0.00    +0.155 HD
ENDBRANCH   1   7
BRANCH   1  16
ATOM     16  C   UNL     1      -2.941  -4.677  -2.051  0.00  0.00    +0.170 A 
ATOM     17  N   UNL     1      -3.582  -5.347  -1.125  0.00  0.00    -0.112 NA
ATOM     18  N   UNL     1      -4.752  -4.822  -0.993  0.00  0.00    -0.023 NA
ATOM     19  N   UNL     1      -4.873  -3.836  -1.812  0.00  0.00    -0.044 NA
ATOM     20  N   UNL     1      -3.775  -3.712  -2.478  0.00  0.00    -0.225 N 
BRANCH  20  21
ATOM     21  C   UNL     1      -3.492  -2.709  -3.508  0.00  0.00    +0.175 C 
BRANCH  21  22
ATOM     22  C   UNL     1      -3.909  -3.252  -4.877  0.00  0.00    +0.183 C 
BRANCH  22  23
ATOM     23  O   UNL     1      -3.632  -2.274  -5.881  0.00  0.00    -0.381 OA
ATOM     24  C   UNL     1      -3.987  -2.684  -7.204  0.00  0.00    +0.194 C 
ENDBRANCH  22  23
ENDBRANCH  21  22
ENDBRANCH  20  21
ENDBRANCH   1  16
BRANCH   1  25
ATOM     25  N   UNL     1      -1.354  -6.376  -2.761  0.00  0.00    -0.287 NA
BRANCH  25  26
ATOM     26  C   UNL     1      -2.302  -6.880  -3.763  0.00  0.00    +0.090 C 
BRANCH  26  27
ATOM     27  C   UNL     1      -2.331  -8.409  -3.714  0.00  0.00    +0.050 C 
BRANCH  27  28
ATOM     28  C   UNL     1      -3.393  -8.922  -4.652  0.00  0.00    -0.046 A 
ATOM     29  C   UNL     1      -4.685  -9.107  -4.197  0.00  0.00    +0.003 A 
ATOM     30  C   UNL     1      -5.660  -9.578  -5.058  0.00  0.00    +0.000 A 
ATOM     31  C   UNL     1      -5.342  -9.862  -6.373  0.00  0.00    +0.000 A 
ATOM     32  C   UNL     1      -4.050  -9.675  -6.827  0.00  0.00    +0.000 A 
ATOM     33  C   UNL     1      -3.077  -9.201  -5.968  0.00  0.00    +0.003 A 
ENDBRANCH  27  28
ENDBRANCH  26  27
ENDBRANCH  25  26
BRANCH  25  34
ATOM     34  C   UNL     1       0.031  -6.676  -3.148  0.00  0.00    +0.127 C 
BRANCH  34  35
ATOM     35  C   UNL     1       0.343  -6.003  -4.460  0.00  0.00    +0.004 A 
ATOM     36  C   UNL     1       0.826  -4.757  -4.686  0.00  0.00    +0.012 A 
ATOM     37  C   UNL     1       1.038  -4.347  -5.989  0.00  0.00    +0.008 A 
ATOM     38  C   UNL     1       0.758  -5.203  -7.002  0.00  0.00    +0.045 A 
ATOM     39  S   UNL     1       0.180  -6.643  -6.118  0.00  0.00    -0.100 S 
ENDBRANCH  34  35
ENDBRANCH  25  34
ENDBRANCH   1  25
TORSDOF 11
