REMARK  Name = ZINC02847370
REMARK  8 active torsions:
REMARK  status: ('A' for Active; 'I' for Inactive)
REMARK    1  A    between atoms: C_1  and  C_2
REMARK    2  A    between atoms: C_2  and  O_3
REMARK    3  A    between atoms: O_3  and  C_4
REMARK    4  A    between atoms: C_6  and  C_11
REMARK    5  A    between atoms: C_9  and  O_10
REMARK    6  A    between atoms: N_12  and  N_13
REMARK    7  A    between atoms: C_23  and  C_24
REMARK    8  A    between atoms: C_29  and  C_30
REMARK                            x       y       z     vdW  Elec       q    Type
REMARK                         _______ _______ _______ _____ _____    ______ ____
ROOT
ATOM      1  N   UNL     1       2.295  -0.148  -0.073  0.00  0.00    -0.177 N 
ATOM      2  C   UNL     1       2.477   1.189   0.022  0.00  0.00    +0.282 A 
ATOM      3  O   UNL     1       3.594   1.675   0.046  0.00  0.00    -0.265 OA
ATOM      4  C   UNL     1       1.278   2.034   0.097  0.00  0.00    +0.067 A 
ATOM      5  C   UNL     1       1.360   3.422   0.197  0.00  0.00    +0.015 A 
ATOM      6  C   UNL     1       0.202   4.166   0.263  0.00  0.00    +0.001 A 
ATOM      7  C   UNL     1      -1.040   3.544   0.231  0.00  0.00    +0.002 A 
ATOM      8  C   UNL     1      -1.144   2.185   0.139  0.00  0.00    +0.028 A 
ATOM      9  C   UNL     1       0.012   1.403   0.064  0.00  0.00    +0.079 A 
ATOM     10  N   UNL     1      -0.050   0.060  -0.033  0.00  0.00    -0.227 NA
ATOM     11  C   UNL     1       1.031  -0.675  -0.098  0.00  0.00    +0.166 A 
ENDROOT
BRANCH  11  12
ATOM     12  C   UNL     1       0.881  -2.141  -0.203  0.00  0.00    +0.022 A 
ATOM     13  C   UNL     1       0.177  -2.846   0.775  0.00  0.00    +0.012 A 
ATOM     14  C   UNL     1       0.041  -4.215   0.671  0.00  0.00    +0.001 A 
ATOM     15  C   UNL     1       0.598  -4.889  -0.401  0.00  0.00    +0.000 A 
ATOM     16  C   UNL     1       1.296  -4.197  -1.375  0.00  0.00    +0.004 A 
ATOM     17  C   UNL     1       1.436  -2.827  -1.285  0.00  0.00    -0.040 A 
ATOM     18  C   UNL     1       2.192  -2.074  -2.349  0.00  0.00    +0.044 C 
ENDBRANCH  11  12
BRANCH   1  20
ATOM     19  C   UNL     1       4.208  -1.108   0.868  0.00  0.00    +0.141 C 
ATOM     20  N   UNL     1       3.405  -0.999  -0.147  0.00  0.00    -0.170 NA
BRANCH  19  23
ATOM     21  C   UNL     1       7.214  -3.116   1.883  0.00  0.00    +0.162 A 
ATOM     22  C   UNL     1       6.179  -2.201   1.923  0.00  0.00    +0.059 A 
ATOM     23  C   UNL     1       5.314  -2.082   0.832  0.00  0.00    -0.002 A 
ATOM     24  C   UNL     1       5.496  -2.893  -0.292  0.00  0.00    +0.013 A 
ATOM     25  C   UNL     1       6.534  -3.800  -0.326  0.00  0.00    +0.050 A 
ATOM     26  C   UNL     1       7.393  -3.918   0.758  0.00  0.00    +0.158 A 
BRANCH  26  27
ATOM     27  O   UNL     1       8.411  -4.817   0.721  0.00  0.00    -0.503 OA
ATOM     28  H   UNL     1       8.176  -5.691   1.063  0.00  0.00    +0.292 HD
ENDBRANCH  26  27
BRANCH  21  29
ATOM     29  O   UNL     1       8.058  -3.234   2.943  0.00  0.00    -0.489 OA
BRANCH  29  31
ATOM     30  C   UNL     1       8.859  -2.655   5.149  0.00  0.00    +0.048 C 
ATOM     31  C   UNL     1       7.816  -2.380   4.063  0.00  0.00    +0.226 C 
ENDBRANCH  29  31
ENDBRANCH  21  29
ENDBRANCH  19  23
ENDBRANCH   1  20
TORSDOF 6
