REMARK  Name = ZINC50118637
REMARK  8 active torsions:
REMARK  status: ('A' for Active; 'I' for Inactive)
REMARK    1  A    between atoms: C_1  and  C_2
REMARK    2  A    between atoms: C_2  and  C_3
REMARK    3  A    between atoms: C_2  and  C_4
REMARK    4  A    between atoms: C_4  and  N_5
REMARK    5  A    between atoms: C_6  and  C_8
REMARK    6  A    between atoms: C_8  and  N_9
REMARK    7  A    between atoms: N_12  and  N_13
REMARK    8  A    between atoms: N_13  and  C_14
REMARK                            x       y       z     vdW  Elec       q    Type
REMARK                         _______ _______ _______ _____ _____    ______ ____
ROOT
ATOM      1  N   UNL     1       5.208  -0.856  -3.200  0.00  0.00    -0.290 N 
ATOM      2  C   UNL     1       6.483  -0.483  -3.427  0.00  0.00    +0.316 C 
ATOM      3  O   UNL     1       7.118   0.074  -2.552  0.00  0.00    -0.251 OA
ATOM      4  N   UNL     1       7.054  -0.727  -4.623  0.00  0.00    -0.220 N 
ATOM      5  H   UNL     1       4.701  -1.300  -3.898  0.00  0.00    +0.151 HD
ATOM      6  H   UNL     1       7.972  -0.459  -4.786  0.00  0.00    +0.174 HD
ENDROOT
BRANCH   4   7
ATOM      7  N   UNL     1       6.323  -1.369  -5.631  0.00  0.00    -0.261 N 
ATOM      8  H   UNL     1       5.382  -1.563  -5.498  0.00  0.00    +0.170 HD
BRANCH   7   9
ATOM      9  C   UNL     1       6.949  -1.730  -6.828  0.00  0.00    +0.081 A 
ATOM     10  C   UNL     1       6.254  -1.651  -8.029  0.00  0.00    +0.066 A 
ATOM     11  C   UNL     1       6.876  -2.009  -9.210  0.00  0.00    +0.042 A 
ATOM     12  C   UNL     1       8.189  -2.444  -9.199  0.00  0.00    +0.044 A 
ATOM     13  C   UNL     1       8.884  -2.523  -8.005  0.00  0.00    +0.042 A 
ATOM     14  C   UNL     1       8.270  -2.161  -6.821  0.00  0.00    +0.066 A 
ATOM     15 CL   UNL     1       9.145  -2.253  -5.324  0.00  0.00    -0.081 Cl
ATOM     16 CL   UNL     1       8.966  -2.893 -10.685  0.00  0.00    -0.083 Cl
ATOM     17 CL   UNL     1       4.606  -1.107  -8.044  0.00  0.00    -0.081 Cl
ENDBRANCH   7   9
ENDBRANCH   4   7
BRANCH   1  18
ATOM     18  C   UNL     1       4.587  -0.590  -1.900  0.00  0.00    +0.201 C 
BRANCH  18  20
ATOM     19  N   UNL     1       2.399  -0.966  -0.809  0.00  0.00    -0.314 N 
ATOM     20  C   UNL     1       3.170  -1.102  -1.907  0.00  0.00    +0.230 C 
ATOM     21  O   UNL     1       2.722  -1.636  -2.900  0.00  0.00    -0.274 OA
ATOM     22  H   UNL     1       2.757  -0.539  -0.015  0.00  0.00    +0.149 HD
BRANCH  19  23
ATOM     23  C   UNL     1       1.021  -1.464  -0.816  0.00  0.00    +0.107 C 
BRANCH  23  25
ATOM     24  C   UNL     1       0.257   0.325   0.753  0.00  0.00    +0.009 C 
ATOM     25  C   UNL     1       0.373  -1.186   0.542  0.00  0.00    -0.000 C 
ATOM     26  C   UNL     1      -1.022  -1.815   0.579  0.00  0.00    +0.009 C 
ENDBRANCH  23  25
ENDBRANCH  19  23
ENDBRANCH  18  20
ENDBRANCH   1  18
TORSDOF 6
