REMARK  Name = ZINC40758190
REMARK  5 active torsions:
REMARK  status: ('A' for Active; 'I' for Inactive)
REMARK    1  A    between atoms: C_1  and  C_2
REMARK    2  A    between atoms: C_7  and  N_8
REMARK    3  A    between atoms: C_10  and  N_21
REMARK    4  A    between atoms: C_11  and  N_15
REMARK    5  A    between atoms: N_15  and  C_16
REMARK                            x       y       z     vdW  Elec       q    Type
REMARK                         _______ _______ _______ _____ _____    ______ ____
ROOT
ATOM      1  N   UNL     1       0.026  -0.029   2.408  0.00  0.00    -0.283 N 
ATOM      2  C   UNL     1       0.047  -0.735   3.607  0.00  0.00    +0.150 A 
ATOM      3  C   UNL     1       0.044  -0.057   4.827  0.00  0.00    +0.105 A 
ATOM      4  C   UNL     1       0.066  -0.814   6.001  0.00  0.00    +0.145 A 
ATOM      5  N   UNL     1       0.088  -2.141   5.912  0.00  0.00    -0.219 NA
ATOM      6  C   UNL     1       0.090  -2.741   4.738  0.00  0.00    +0.225 A 
ATOM      7  N   UNL     1       0.064  -2.065   3.608  0.00  0.00    -0.219 NA
ATOM      8  H   UNL     1       0.013   0.941   2.416  0.00  0.00    +0.155 HD
ENDROOT
BRANCH   1  15
ATOM      9  C   UNL     1      -0.018   1.503   0.010  0.00  0.00    +0.047 C 
ATOM     10  C   UNL     1       0.002  -0.004   0.002  0.00  0.00    -0.010 A 
ATOM     11  C   UNL     1       0.006  -0.699  -1.194  0.00  0.00    +0.008 A 
ATOM     12  C   UNL     1       0.025  -2.086  -1.155  0.00  0.00    +0.020 A 
ATOM     13  C   UNL     1       0.039  -2.728   0.068  0.00  0.00    +0.113 A 
ATOM     14  N   UNL     1       0.035  -2.039   1.193  0.00  0.00    -0.240 NA
ATOM     15  C   UNL     1       0.023  -0.715   1.197  0.00  0.00    +0.127 A 
ENDBRANCH   1  15
BRANCH   3  16
ATOM     16  N   UNL     1       0.020   1.346   4.874  0.00  0.00    -0.353 N 
ATOM     17  H   UNL     1       0.005   1.858   4.050  0.00  0.00    +0.143 HD
ATOM     18  H   UNL     1       0.018   1.803   5.729  0.00  0.00    +0.143 HD
ENDBRANCH   3  16
BRANCH   4  19
ATOM     19  N   UNL     1       0.064  -0.190   7.242  0.00  0.00    -0.325 N 
ATOM     20  H   UNL     1       0.048   0.778   7.299  0.00  0.00    +0.148 HD
BRANCH  19  21
ATOM     21  C   UNL     1       0.087  -0.994   8.466  0.00  0.00    +0.072 C 
ATOM     22  C   UNL     1      -1.352  -1.355   8.889  0.00  0.00    +0.022 C 
ATOM     23  C   UNL     1      -1.323  -1.286  10.436  0.00  0.00    +0.002 C 
ATOM     24  C   UNL     1      -0.400  -0.072  10.706  0.00  0.00    +0.002 C 
ATOM     25  C   UNL     1       0.693  -0.179   9.622  0.00  0.00    +0.022 C 
ENDBRANCH  19  21
ENDBRANCH   4  19
TORSDOF 4
