REMARK  Name = ZINC23261162
REMARK  6 active torsions:
REMARK  status: ('A' for Active; 'I' for Inactive)
REMARK    1  A    between atoms: C_1  and  C_2
REMARK    2  A    between atoms: C_9  and  S_11
REMARK    3  A    between atoms: S_11  and  C_12
REMARK    4  A    between atoms: C_12  and  C_13
REMARK    5  A    between atoms: N_15  and  C_16
REMARK    6  A    between atoms: N_15  and  C_17
REMARK                            x       y       z     vdW  Elec       q    Type
REMARK                         _______ _______ _______ _____ _____    ______ ____
ROOT
ATOM      1  C   UNL     1       0.128  -8.426   1.625  0.00  0.00    +0.226 C 
ATOM      2  O   UNL     1       0.138  -8.583   2.827  0.00  0.00    -0.275 OA
ATOM      3  N   UNL     1       0.139  -9.496   0.805  0.00  0.00    -0.297 N 
ATOM      4  C   UNL     1       0.128  -9.307  -0.647  0.00  0.00    +0.132 C 
ENDROOT
BRANCH   3   5
ATOM      5  C   UNL     1       0.161 -10.849   1.367  0.00  0.00    +0.106 C 
ATOM      6  C   UNL     1      -1.093 -11.599   0.924  0.00  0.00    +0.027 C 
ATOM      7  C   UNL     1      -0.949 -13.069   1.336  0.00  0.00    +0.007 C 
ATOM      8  C   UNL     1       0.131 -13.709   0.466  0.00  0.00    +0.035 C 
ATOM      9  C   UNL     1       1.387 -12.877   0.484  0.00  0.00    -0.042 A 
ATOM     10  C   UNL     1       1.400 -11.563   0.894  0.00  0.00    -0.024 A 
ATOM     11  C   UNL     1       2.592 -10.850   0.880  0.00  0.00    +0.006 A 
ATOM     12  C   UNL     1       3.763 -11.449   0.462  0.00  0.00    +0.000 A 
ATOM     13  C   UNL     1       3.750 -12.769   0.054  0.00  0.00    +0.000 A 
ATOM     14  C   UNL     1       2.567 -13.479   0.065  0.00  0.00    +0.004 A 
ENDBRANCH   3   5
BRANCH   1  15
ATOM     15  C   UNL     1       0.105  -7.035   1.047  0.00  0.00    +0.173 C 
BRANCH  15  16
ATOM     16  S   UNL     1       0.096  -5.820   2.394  0.00  0.00    -0.079 S 
BRANCH  16  25
ATOM     17  C   UNL     1      -0.018   1.503   0.010  0.00  0.00    +0.044 C 
ATOM     18  C   UNL     1       0.002  -0.004   0.002  0.00  0.00    -0.048 A 
ATOM     19  C   UNL     1       0.006  -0.686  -1.206  0.00  0.00    +0.005 A 
ATOM     20  C   UNL     1       0.024  -2.063  -1.230  0.00  0.00    +0.030 A 
ATOM     21  C   UNL     1       0.040  -2.778  -0.030  0.00  0.00    +0.090 A 
ATOM     22  C   UNL     1       0.037  -2.082   1.190  0.00  0.00    +0.067 A 
ATOM     23  C   UNL     1       0.023  -0.696   1.196  0.00  0.00    +0.031 A 
ATOM     24  N   UNL     1       0.055  -3.047   2.184  0.00  0.00    -0.333 N 
ATOM     25  C   UNL     1       0.069  -4.265   1.566  0.00  0.00    +0.168 A 
ATOM     26  N   UNL     1       0.060  -4.104   0.266  0.00  0.00    -0.222 NA
ATOM     27  H   UNL     1       0.058  -2.887   3.141  0.00  0.00    +0.168 HD
ENDBRANCH  16  25
ENDBRANCH  15  16
ENDBRANCH   1  15
TORSDOF 4
