REMARK  Name = ZINC10315601
REMARK  10 active torsions:
REMARK  status: ('A' for Active; 'I' for Inactive)
REMARK    1  A    between atoms: C_4  and  C_7
REMARK    2  A    between atoms: C_7  and  O_8
REMARK    3  A    between atoms: O_8  and  C_9
REMARK    4  A    between atoms: C_12  and  C_16
REMARK    5  A    between atoms: C_16  and  N_50
REMARK    6  A    between atoms: C_17  and  C_18
REMARK    7  A    between atoms: C_17  and  N_50
REMARK    8  A    between atoms: C_18  and  N_19
REMARK    9  A    between atoms: N_19  and  C_20
REMARK   10  A    between atoms: C_23  and  N_26
REMARK                            x       y       z     vdW  Elec       q    Type
REMARK                         _______ _______ _______ _____ _____    ______ ____
ROOT
ATOM      1  C   UNL     1       2.453   3.935   0.000  0.00  0.00    -0.047 C 
ENDROOT
BRANCH   1   5
ATOM      2  C   UNL     1      -1.223   1.754   0.017  0.00  0.00    +0.135 A 
ATOM      3  C   UNL     1      -0.013   1.076   0.008  0.00  0.00    +0.047 A 
ATOM      4  C   UNL     1       1.174   1.783   0.000  0.00  0.00    +0.005 A 
ATOM      5  C   UNL     1       1.156   3.166   0.008  0.00  0.00    -0.063 A 
ATOM      6  C   UNL     1      -0.048   3.844   0.023  0.00  0.00    +0.020 A 
ATOM      7  C   UNL     1      -1.238   3.141   0.031  0.00  0.00    +0.060 A 
ATOM      8 BR   UNL     1      -2.886   4.069   0.052  0.00  0.00    -0.047 Br
BRANCH   2   9
ATOM      9  O   UNL     1      -2.392   1.060   0.019  0.00  0.00    -0.486 OA
BRANCH   9  10
ATOM     10  C   UNL     1      -2.300  -0.366   0.010  0.00  0.00    +0.264 C 
BRANCH  10  14
ATOM     11  C   UNL     1      -6.227  -2.047   0.018  0.00  0.00    +0.000 A 
ATOM     12  C   UNL     1      -5.597  -1.768  -1.180  0.00  0.00    +0.000 A 
ATOM     13  C   UNL     1      -4.326  -1.224  -1.183  0.00  0.00    +0.007 A 
ATOM     14  C   UNL     1      -3.685  -0.959   0.013  0.00  0.00    -0.010 A 
ATOM     15  C   UNL     1      -4.313  -1.243   1.211  0.00  0.00    +0.007 A 
ATOM     16  C   UNL     1      -5.586  -1.782   1.214  0.00  0.00    +0.000 A 
ENDBRANCH  10  14
ENDBRANCH   9  10
ENDBRANCH   2   9
ENDBRANCH   1   5
BRANCH   1  17
ATOM     17  N   UNL     1       2.856   4.189  -1.396  0.00  0.00    +0.383 N 
ATOM     18  H   UNL     1       2.124   4.734  -1.865  0.00  0.00    -0.085 HD
ATOM     19  H   UNL     1       2.979   3.292  -1.881  0.00  0.00    -0.085 HD
BRANCH  17  20
ATOM     20  C   UNL     1       4.124   4.941  -1.434  0.00  0.00    -0.063 C 
BRANCH  20  21
ATOM     21  C   UNL     1       4.516   5.189  -2.892  0.00  0.00    +0.082 C 
BRANCH  21  22
ATOM     22  N   UNL     1       5.775   5.937  -2.938  0.00  0.00    -0.346 N 
ATOM     23  H   UNL     1       6.219   6.191  -2.114  0.00  0.00    +0.146 HD
BRANCH  22  24
ATOM     24  C   UNL     1       6.336   6.283  -4.170  0.00  0.00    +0.027 A 
ATOM     25  C   UNL     1       5.705   5.915  -5.351  0.00  0.00    +0.025 A 
ATOM     26  C   UNL     1       6.260   6.264  -6.566  0.00  0.00    +0.034 A 
ATOM     27  C   UNL     1       7.449   6.969  -6.609  0.00  0.00    +0.126 A 
ATOM     28  C   UNL     1       8.083   7.332  -5.435  0.00  0.00    +0.034 A 
ATOM     29  C   UNL     1       7.530   6.992  -4.215  0.00  0.00    +0.025 A 
BRANCH  27  30
ATOM     30  N   UNL     1       8.043   7.337  -7.913  0.00  0.00    +0.056 N 
ATOM     31  O   UNL     1       9.090   7.958  -7.952  0.00  0.00    -0.126 OA
ATOM     32  O   UNL     1       7.486   7.017  -8.948  0.00  0.00    -0.126 OA
ENDBRANCH  27  30
ENDBRANCH  22  24
ENDBRANCH  21  22
ENDBRANCH  20  21
ENDBRANCH  17  20
ENDBRANCH   1  17
TORSDOF 10
