REMARK  Name = ZINC36072364
REMARK  12 active torsions:
REMARK  status: ('A' for Active; 'I' for Inactive)
REMARK    1  A    between atoms: C_1  and  C_2
REMARK    2  A    between atoms: C_2  and  O_3
REMARK    3  A    between atoms: O_3  and  C_4
REMARK    4  A    between atoms: C_4  and  C_6
REMARK    5  A    between atoms: C_12  and  C_14
REMARK    6  A    between atoms: C_17  and  C_19
REMARK    7  A    between atoms: C_19  and  N_20
REMARK    8  A    between atoms: N_20  and  C_21
REMARK    9  A    between atoms: N_20  and  C_29
REMARK   10  A    between atoms: C_21  and  C_22
REMARK   11  A    between atoms: C_29  and  C_30
REMARK   12  A    between atoms: C_31  and  C_35
REMARK                            x       y       z     vdW  Elec       q    Type
REMARK                         _______ _______ _______ _____ _____    ______ ____
ROOT
ATOM      1  C   UNL     1      -0.756  -6.593  -5.083  0.00  0.00    +0.164 A 
ATOM      2  C   UNL     1      -0.638  -7.484  -6.104  0.00  0.00    +0.230 A 
ATOM      3  O   UNL     1       0.267  -8.399  -5.723  0.00  0.00    -0.449 OA
ATOM      4  C   UNL     1       0.695  -8.079  -4.494  0.00  0.00    +0.179 A 
ATOM      5  N   UNL     1       0.095  -6.996  -4.100  0.00  0.00    -0.210 NA
ENDROOT
BRANCH   1  12
ATOM      6  C   UNL     1      -2.862  -3.822  -1.465  0.00  0.00    +0.101 C 
ATOM      7  C   UNL     1      -3.555  -3.494  -2.790  0.00  0.00    +0.033 C 
ATOM      8  C   UNL     1      -2.508  -3.429  -3.907  0.00  0.00    +0.109 C 
ATOM      9  N   UNL     1      -1.749  -4.687  -3.918  0.00  0.00    -0.296 N 
ATOM     10  C   UNL     1      -1.118  -5.142  -2.671  0.00  0.00    +0.109 C 
ATOM     11  C   UNL     1      -2.181  -5.188  -1.569  0.00  0.00    +0.033 C 
ATOM     12  C   UNL     1      -1.635  -5.410  -5.049  0.00  0.00    +0.268 C 
ATOM     13  O   UNL     1      -2.257  -5.087  -6.043  0.00  0.00    -0.268 OA
BRANCH   6  14
ATOM     14  C   UNL     1      -3.885  -3.853  -0.359  0.00  0.00    +0.310 C 
ATOM     15  O   UNL     1      -4.051  -4.864   0.281  0.00  0.00    -0.251 OA
BRANCH  14  16
ATOM     16  O   UNL     1      -4.611  -2.758  -0.084  0.00  0.00    -0.465 OA
BRANCH  16  18
ATOM     17  C   UNL     1      -6.287  -1.522   1.142  0.00  0.00    +0.048 C 
ATOM     18  C   UNL     1      -5.561  -2.859   0.978  0.00  0.00    +0.229 C 
ENDBRANCH  16  18
ENDBRANCH  14  16
ENDBRANCH   6  14
ENDBRANCH   1  12
BRANCH   4  19
ATOM     19  C   UNL     1       1.716  -8.849  -3.697  0.00  0.00    +0.020 C 
BRANCH  19  20
ATOM     20  N   UNL     1       1.036  -9.868  -2.885  0.00  0.00    +0.391 N 
ATOM     21  H   UNL     1       0.329  -9.427  -2.315  0.00  0.00    -0.080 HD
BRANCH  20  22
ATOM     22  C   UNL     1       2.015 -10.538  -2.019  0.00  0.00    -0.042 C 
BRANCH  22  23
ATOM     23  C   UNL     1       2.539  -9.559  -1.001  0.00  0.00    -0.064 A 
ATOM     24  C   UNL     1       3.726  -8.889  -1.233  0.00  0.00    +0.004 A 
ATOM     25  C   UNL     1       4.207  -7.991  -0.299  0.00  0.00    +0.038 A 
ATOM     26  C   UNL     1       3.499  -7.761   0.868  0.00  0.00    +0.123 A 
ATOM     27  C   UNL     1       2.311  -8.432   1.100  0.00  0.00    +0.038 A 
ATOM     28  C   UNL     1       1.829  -9.326   0.163  0.00  0.00    +0.004 A 
ATOM     29  F   UNL     1       3.969  -6.883   1.782  0.00  0.00    -0.205 F 
ENDBRANCH  22  23
ENDBRANCH  20  22
BRANCH  20  30
ATOM     30  C   UNL     1       0.405 -10.857  -3.769  0.00  0.00    -0.034 C 
BRANCH  30  31
ATOM     31  C   UNL     1      -0.476 -11.769  -2.954  0.00  0.00    -0.024 A 
ATOM     32  C   UNL     1      -1.788 -11.633  -2.643  0.00  0.00    -0.042 A 
ATOM     33  C   UNL     1      -2.399 -12.606  -1.873  0.00  0.00    +0.011 A 
ATOM     34  C   UNL     1      -1.667 -13.667  -1.452  0.00  0.00    +0.045 A 
ATOM     35  S   UNL     1      -0.064 -13.311  -2.155  0.00  0.00    -0.103 S 
ATOM     36  C   UNL     1      -2.571 -10.440  -3.128  0.00  0.00    +0.044 C 
ENDBRANCH  30  31
ENDBRANCH  20  30
ENDBRANCH  19  20
ENDBRANCH   4  19
TORSDOF 10
