REMARK  Name = ZINC16433778
REMARK  8 active torsions:
REMARK  status: ('A' for Active; 'I' for Inactive)
REMARK    1  A    between atoms: C_1  and  C_2
REMARK    2  A    between atoms: C_5  and  C_7
REMARK    3  A    between atoms: C_10  and  C_12
REMARK    4  A    between atoms: C_12  and  N_55
REMARK    5  A    between atoms: C_13  and  N_55
REMARK    6  A    between atoms: C_14  and  C_15
REMARK    7  A    between atoms: C_14  and  N_55
REMARK    8  A    between atoms: C_28  and  C_30
REMARK                            x       y       z     vdW  Elec       q    Type
REMARK                         _______ _______ _______ _____ _____    ______ ____
ROOT
ATOM      1  C   UNL     1      -2.907   4.487   1.069  0.00  0.00    +0.204 C 
ATOM      2  O   UNL     1      -3.971   5.069   1.033  0.00  0.00    -0.277 OA
ATOM      3  N   UNL     1      -2.463   3.825  -0.018  0.00  0.00    -0.268 N 
ATOM      4  C   UNL     1      -1.235   3.149   0.010  0.00  0.00    +0.058 A 
ATOM      5  C   UNL     1      -0.042   3.852   0.008  0.00  0.00    +0.025 A 
ATOM      6  C   UNL     1       1.160   3.168   0.005  0.00  0.00    +0.002 A 
ATOM      7  C   UNL     1       1.174   1.785   0.000  0.00  0.00    +0.002 A 
ATOM      8  C   UNL     1      -0.013   1.076   0.008  0.00  0.00    +0.025 A 
ATOM      9  C   UNL     1      -1.220   1.754   0.017  0.00  0.00    +0.055 A 
ATOM     10  N   UNL     1      -2.433   1.058   0.084  0.00  0.00    -0.284 N 
ATOM     11  C   UNL     1      -3.442   1.366  -0.759  0.00  0.00    +0.219 C 
ATOM     12  O   UNL     1      -4.516   0.815  -0.642  0.00  0.00    -0.275 OA
ATOM     13  C   UNL     1      -3.241   2.390  -1.845  0.00  0.00    +0.118 C 
ATOM     14  C   UNL     1      -3.255   3.798  -1.249  0.00  0.00    +0.087 C 
ATOM     15  C   UNL     1      -2.658   4.782  -2.258  0.00  0.00    +0.029 C 
ATOM     16  H   UNL     1      -2.550   0.349   0.736  0.00  0.00    +0.155 HD
ENDROOT
BRANCH   1  17
ATOM     17  C   UNL     1      -2.080   4.506   2.329  0.00  0.00    +0.019 C 
BRANCH  17  19
ATOM     18  C   UNL     1      -2.863   6.704   2.977  0.00  0.00    -0.095 C 
ATOM     19  N   UNL     1      -2.803   5.278   3.362  0.00  0.00    +0.388 N 
ATOM     20  H   UNL     1      -3.760   4.914   3.442  0.00  0.00    -0.081 HD
BRANCH  19  21
ATOM     21  C   UNL     1      -2.125   5.135   4.667  0.00  0.00    -0.003 C 
BRANCH  21  25
ATOM     22  C   UNL     1      -3.866   7.206   7.119  0.00  0.00    +0.108 A 
ATOM     23  C   UNL     1      -4.512   6.044   7.324  0.00  0.00    +0.045 A 
ATOM     24  C   UNL     1      -3.950   5.101   6.433  0.00  0.00    +0.043 A 
ATOM     25  C   UNL     1      -2.995   5.743   5.737  0.00  0.00    +0.089 A 
ATOM     26  O   UNL     1      -2.944   7.016   6.160  0.00  0.00    -0.466 OA
BRANCH  22  30
ATOM     27  C   UNL     1      -1.636   8.366   8.629  0.00  0.00    +0.008 C 
ATOM     28  C   UNL     1      -2.971   9.114   8.636  0.00  0.00    -0.003 C 
ATOM     29  C   UNL     1      -3.428   9.757   7.325  0.00  0.00    +0.015 C 
ATOM     30  C   UNL     1      -4.128   8.500   7.846  0.00  0.00    +0.058 C 
ENDBRANCH  22  30
ENDBRANCH  21  25
ENDBRANCH  19  21
ENDBRANCH  17  19
ENDBRANCH   1  17
TORSDOF 5
