REMARK  Name = ZINC36506617
REMARK  11 active torsions:
REMARK  status: ('A' for Active; 'I' for Inactive)
REMARK    1  A    between atoms: C_1  and  C_2
REMARK    2  A    between atoms: C_2  and  C_3
REMARK    3  A    between atoms: C_2  and  C_4
REMARK    4  A    between atoms: C_2  and  N_5
REMARK    5  A    between atoms: C_6  and  C_8
REMARK    6  A    between atoms: C_8  and  C_10
REMARK    7  A    between atoms: C_8  and  N_19
REMARK    8  A    between atoms: N_19  and  C_20
REMARK    9  A    between atoms: C_20  and  C_21
REMARK   10  A    between atoms: C_26  and  C_28
REMARK   11  A    between atoms: C_31  and  N_34
REMARK                            x       y       z     vdW  Elec       q    Type
REMARK                         _______ _______ _______ _____ _____    ______ ____
ROOT
ATOM      1  C   UNL     1       4.490   2.063  -3.417  0.00  0.00    +0.193 C 
ENDROOT
BRANCH   1   2
ATOM      2  C   UNL     1       5.646   2.550  -2.582  0.00  0.00    -0.014 A 
ATOM      3  C   UNL     1       6.285   1.683  -1.715  0.00  0.00    +0.010 A 
ATOM      4  C   UNL     1       7.346   2.126  -0.948  0.00  0.00    +0.050 A 
ATOM      5  C   UNL     1       7.772   3.440  -1.045  0.00  0.00    +0.166 A 
ATOM      6  C   UNL     1       7.128   4.314  -1.919  0.00  0.00    +0.167 A 
ATOM      7  C   UNL     1       6.069   3.862  -2.689  0.00  0.00    +0.055 A 
ATOM      8  O   UNL     1       7.728   5.537  -1.832  0.00  0.00    -0.453 OA
ATOM      9  C   UNL     1       8.477   5.512  -0.603  0.00  0.00    +0.466 C 
ATOM     10  O   UNL     1       8.774   4.117  -0.412  0.00  0.00    -0.453 OA
ENDBRANCH   1   2
BRANCH   1  12
ATOM     11  N   UNL     1       3.559   4.317  -3.830  0.00  0.00    -0.309 N 
ATOM     12  C   UNL     1       3.369   3.068  -3.359  0.00  0.00    +0.239 C 
ATOM     13  O   UNL     1       2.296   2.755  -2.889  0.00  0.00    -0.273 OA
ATOM     14  H   UNL     1       4.418   4.568  -4.206  0.00  0.00    +0.149 HD
BRANCH  11  16
ATOM     15  C   UNL     1       2.051   5.509  -2.318  0.00  0.00    +0.031 C 
ATOM     16  C   UNL     1       2.470   5.295  -3.774  0.00  0.00    +0.026 C 
ATOM     17  C   UNL     1       1.276   4.775  -4.577  0.00  0.00    +0.031 C 
ATOM     18  C   UNL     1       2.945   6.622  -4.368  0.00  0.00    +0.031 C 
ENDBRANCH  11  16
ENDBRANCH   1  12
BRANCH   1  19
ATOM     19  N   UNL     1       4.019   0.777  -2.896  0.00  0.00    -0.275 N 
ATOM     20  C   UNL     1       4.025  -0.314  -3.688  0.00  0.00    +0.248 C 
ATOM     21  O   UNL     1       3.391  -1.300  -3.368  0.00  0.00    -0.270 OA
BRANCH  20  22
ATOM     22  C   UNL     1       4.802  -0.310  -4.945  0.00  0.00    +0.037 A 
ATOM     23  C   UNL     1       5.980   0.432  -5.039  0.00  0.00    +0.015 A 
ATOM     24  C   UNL     1       6.701   0.431  -6.215  0.00  0.00    +0.033 A 
ATOM     25  C   UNL     1       6.259  -0.304  -7.301  0.00  0.00    +0.126 A 
ATOM     26  C   UNL     1       5.091  -1.042  -7.215  0.00  0.00    +0.033 A 
ATOM     27  C   UNL     1       4.364  -1.054  -6.042  0.00  0.00    +0.015 A 
BRANCH  25  28
ATOM     28  N   UNL     1       7.037  -0.301  -8.560  0.00  0.00    +0.056 N 
ATOM     29  O   UNL     1       8.057   0.343  -8.638  0.00  0.00    -0.126 OA
ATOM     30  O   UNL     1       6.653  -0.943  -9.510  0.00  0.00    -0.126 OA
ENDBRANCH  25  28
ENDBRANCH  20  22
BRANCH  19  31
ATOM     31  C   UNL     1       3.543   0.676  -1.514  0.00  0.00    +0.183 C 
BRANCH  31  32
ATOM     32  C   UNL     1       2.164   0.069  -1.501  0.00  0.00    +0.122 A 
ATOM     33  C   UNL     1       1.882  -1.239  -1.357  0.00  0.00    +0.046 A 
ATOM     34  C   UNL     1       0.475  -1.362  -1.403  0.00  0.00    +0.041 A 
ATOM     35  C   UNL     1      -0.019  -0.122  -1.573  0.00  0.00    +0.195 A 
ATOM     36  O   UNL     1       1.008   0.741  -1.626  0.00  0.00    -0.466 OA
ENDBRANCH  31  32
ENDBRANCH  19  31
ENDBRANCH   1  19
TORSDOF 8
