REMARK  Name = ZINC16544748
REMARK  6 active torsions:
REMARK  status: ('A' for Active; 'I' for Inactive)
REMARK    1  A    between atoms: C_6  and  C_7
REMARK    2  A    between atoms: C_16  and  S_18
REMARK    3  A    between atoms: S_18  and  C_19
REMARK    4  A    between atoms: C_19  and  C_20
REMARK    5  A    between atoms: C_20  and  C_22
REMARK    6  A    between atoms: C_24  and  C_28
REMARK                            x       y       z     vdW  Elec       q    Type
REMARK                         _______ _______ _______ _____ _____    ______ ____
ROOT
ATOM      1  C   UNL     1      -2.617   1.393   0.034  0.00  0.00    +0.004 A 
ATOM      2  C   UNL     1      -3.654   2.263   0.048  0.00  0.00    +0.056 A 
ATOM      3  S   UNL     1      -2.856   3.857   0.049  0.00  0.00    -0.076 S 
ATOM      4  C   UNL     1      -1.164   3.324   0.030  0.00  0.00    +0.117 A 
ATOM      5  C   UNL     1      -1.256   1.921   0.018  0.00  0.00    +0.080 A 
ATOM      6  C   UNL     1      -0.015   1.215   0.009  0.00  0.00    +0.261 A 
ATOM      7  O   UNL     1       0.002  -0.004   0.002  0.00  0.00    -0.267 OA
ATOM      8  N   UNL     1       1.137   1.912   0.002  0.00  0.00    -0.301 N 
ATOM      9  H   UNL     1       1.982   1.435  -0.009  0.00  0.00    +0.171 HD
ATOM     10  C   UNL     1       1.137   3.276   0.008  0.00  0.00    +0.170 A 
ATOM     11  N   UNL     1       0.006   3.953   0.022  0.00  0.00    -0.216 NA
ENDROOT
BRANCH   1  17
ATOM     12  C   UNL     1      -2.222  -0.880  -0.909  0.00  0.00    +0.011 A 
ATOM     13  C   UNL     1      -2.446  -2.242  -0.907  0.00  0.00    +0.039 A 
ATOM     14  C   UNL     1      -3.312  -2.802   0.019  0.00  0.00    +0.123 A 
ATOM     15  C   UNL     1      -3.951  -1.999   0.950  0.00  0.00    +0.039 A 
ATOM     16  C   UNL     1      -3.729  -0.637   0.959  0.00  0.00    +0.011 A 
ATOM     17  C   UNL     1      -2.859  -0.069   0.029  0.00  0.00    -0.016 A 
ATOM     18  F   UNL     1      -3.532  -4.135   0.015  0.00  0.00    -0.205 F 
ENDBRANCH   1  17
BRANCH  10  19
ATOM     19  S   UNL     1       2.670   4.146  -0.001  0.00  0.00    -0.080 S 
BRANCH  19  20
ATOM     20  C   UNL     1       2.064   5.851   0.013  0.00  0.00    +0.157 C 
BRANCH  20  21
ATOM     21  C   UNL     1       3.235   6.800   0.007  0.00  0.00    +0.175 C 
ATOM     22  O   UNL     1       4.367   6.366  -0.005  0.00  0.00    -0.291 OA
BRANCH  21  23
ATOM     23  C   UNL     1       3.005   8.248   0.017  0.00  0.00    +0.036 A 
ATOM     24  C   UNL     1       3.996   9.259   0.013  0.00  0.00    +0.043 A 
ATOM     25  C   UNL     1       3.345  10.455   0.025  0.00  0.00    +0.103 A 
ATOM     26  N   UNL     1       1.988  10.212   0.036  0.00  0.00    -0.356 N 
ATOM     27  H   UNL     1       1.296  10.892   0.045  0.00  0.00    +0.165 HD
ATOM     28  C   UNL     1       1.775   8.888   0.025  0.00  0.00    +0.094 A 
BRANCH  25  29
ATOM     29  C   UNL     1       3.980  11.779   0.025  0.00  0.00    +0.263 C 
ATOM     30  O   UNL     1       5.193  11.872   0.014  0.00  0.00    -0.268 OA
ATOM     31  N   UNL     1       3.219  12.892   0.038  0.00  0.00    -0.296 N 
ATOM     32  C   UNL     1       1.750  12.925   0.045  0.00  0.00    +0.108 C 
ATOM     33  C   UNL     1       1.324  14.408   0.034  0.00  0.00    +0.020 C 
ATOM     34  C   UNL     1       2.569  15.120  -0.559  0.00  0.00    +0.020 C 
ATOM     35  C   UNL     1       3.723  14.277   0.040  0.00  0.00    +0.108 C 
ENDBRANCH  25  29
ENDBRANCH  21  23
ENDBRANCH  20  21
ENDBRANCH  19  20
ENDBRANCH  10  19
TORSDOF 6
