REMARK  Name = ZINC14942361
REMARK  11 active torsions:
REMARK  status: ('A' for Active; 'I' for Inactive)
REMARK    1  A    between atoms: C_1  and  C_2
REMARK    2  A    between atoms: C_2  and  C_3
REMARK    3  A    between atoms: C_2  and  C_4
REMARK    4  A    between atoms: C_4  and  C_6
REMARK    5  A    between atoms: C_4  and  N_25
REMARK    6  A    between atoms: N_8  and  N_9
REMARK    7  A    between atoms: C_10  and  C_12
REMARK    8  A    between atoms: C_15  and  C_17
REMARK    9  A    between atoms: C_17  and  O_18
REMARK   10  A    between atoms: O_18  and  C_19
REMARK   11  A    between atoms: C_26  and  C_28
REMARK                            x       y       z     vdW  Elec       q    Type
REMARK                         _______ _______ _______ _____ _____    ______ ____
ROOT
ATOM      1  C   UNL     1       1.078   7.994  -0.041  0.00  0.00    +0.250 C 
ATOM      2  O   UNL     1      -0.035   7.915   0.434  0.00  0.00    -0.272 OA
ATOM      3  N   UNL     1       1.594   6.952  -0.724  0.00  0.00    -0.233 N 
ATOM      4  H   UNL     1       2.456   7.038  -1.161  0.00  0.00    +0.173 HD
ENDROOT
BRANCH   3   5
ATOM      5  N   UNL     1       0.886   5.746  -0.802  0.00  0.00    -0.228 N 
ATOM      6  C   UNL     1       1.402   4.705  -1.485  0.00  0.00    +0.295 C 
ATOM      7  O   UNL     1       2.484   4.813  -2.033  0.00  0.00    -0.265 OA
ATOM      8  H   UNL     1       0.025   5.660  -0.365  0.00  0.00    +0.173 HD
BRANCH   6   9
ATOM      9  C   UNL     1       0.661   3.442  -1.567  0.00  0.00    +0.191 A 
ATOM     10  C   UNL     1       1.067   2.315  -2.222  0.00  0.00    +0.055 A 
ATOM     11  C   UNL     1       0.057   1.357  -2.040  0.00  0.00    +0.049 A 
ATOM     12  C   UNL     1      -0.911   1.936  -1.296  0.00  0.00    +0.143 A 
ATOM     13  O   UNL     1      -0.540   3.191  -1.008  0.00  0.00    -0.452 OA
BRANCH  12  14
ATOM     14  C   UNL     1      -2.194   1.277  -0.859  0.00  0.00    +0.303 C 
BRANCH  14  15
ATOM     15  O   UNL     1      -1.995   0.636   0.403  0.00  0.00    -0.484 OA
BRANCH  15  16
ATOM     16  C   UNL     1      -3.062  -0.010   0.942  0.00  0.00    +0.121 A 
ATOM     17  C   UNL     1      -4.277  -0.021   0.274  0.00  0.00    +0.045 A 
ATOM     18  C   UNL     1      -5.359  -0.684   0.821  0.00  0.00    +0.004 A 
ATOM     19  C   UNL     1      -5.234  -1.325   2.040  0.00  0.00    +0.000 A 
ATOM     20  C   UNL     1      -4.025  -1.310   2.711  0.00  0.00    +0.004 A 
ATOM     21  C   UNL     1      -2.939  -0.654   2.165  0.00  0.00    +0.045 A 
ENDBRANCH  15  16
ENDBRANCH  14  15
ENDBRANCH  12  14
ENDBRANCH   6   9
ENDBRANCH   3   5
BRANCH   1  22
ATOM     22  C   UNL     1       1.884   9.255   0.132  0.00  0.00    +0.163 C 
BRANCH  22  23
ATOM     23  N   UNL     1       0.979  10.398   0.277  0.00  0.00    -0.303 N 
ATOM     24  C   UNL     1       1.397  11.635  -0.053  0.00  0.00    +0.220 C 
ATOM     25  O   UNL     1       2.524  11.803  -0.470  0.00  0.00    -0.275 OA
ATOM     26  H   UNL     1       0.078  10.263   0.610  0.00  0.00    +0.149 HD
BRANCH  24  27
ATOM     27  C   UNL     1       0.466  12.810   0.095  0.00  0.00    +0.048 C 
ATOM     28  C   UNL     1       0.041  12.942   1.559  0.00  0.00    +0.019 C 
ATOM     29  C   UNL     1      -0.905  14.136   1.710  0.00  0.00    -0.009 C 
ATOM     30  C   UNL     1      -0.188  15.414   1.270  0.00  0.00    +0.007 C 
ATOM     31  C   UNL     1       0.237  15.282  -0.194  0.00  0.00    -0.009 C 
ATOM     32  C   UNL     1       1.183  14.088  -0.345  0.00  0.00    +0.019 C 
ATOM     33  C   UNL     1      -1.001  15.065  -1.067  0.00  0.00    +0.007 C 
ATOM     34  C   UNL     1      -1.718  13.787  -0.627  0.00  0.00    -0.009 C 
ATOM     35  C   UNL     1      -2.143  13.919   0.837  0.00  0.00    +0.007 C 
ATOM     36  C   UNL     1      -0.772  12.594  -0.778  0.00  0.00    +0.019 C 
ENDBRANCH  24  27
ENDBRANCH  22  23
BRANCH  22  38
ATOM     37  C   UNL     1       3.735   7.971   1.213  0.00  0.00    +0.009 C 
ATOM     38  C   UNL     1       2.757   9.135   1.383  0.00  0.00    +0.012 C 
ATOM     39  C   UNL     1       3.540  10.434   1.586  0.00  0.00    +0.009 C 
ENDBRANCH  22  38
ENDBRANCH   1  22
TORSDOF 9
