REMARK  Name = ZINC58912599
REMARK  10 active torsions:
REMARK  status: ('A' for Active; 'I' for Inactive)
REMARK    1  A    between atoms: C_1  and  C_2
REMARK    2  A    between atoms: C_4  and  C_18
REMARK    3  A    between atoms: C_5  and  C_17
REMARK    4  A    between atoms: N_6  and  C_7
REMARK    5  A    between atoms: C_12  and  C_13
REMARK    6  A    between atoms: N_19  and  N_20
REMARK    7  A    between atoms: C_21  and  C_23
REMARK    8  A    between atoms: N_28  and  C_31
REMARK    9  A    between atoms: C_36  and  O_37
REMARK   10  A    between atoms: O_37  and  C_38
REMARK                            x       y       z     vdW  Elec       q    Type
REMARK                         _______ _______ _______ _____ _____    ______ ____
ROOT
ATOM      1  N   UNL     1      -0.079  -5.720  -1.674  0.00  0.00    -0.199 N 
ATOM      2  C   UNL     1       0.177  -6.923  -1.123  0.00  0.00    +0.318 C 
ATOM      3  O   UNL     1       0.468  -7.003   0.053  0.00  0.00    -0.263 OA
ATOM      4  H   UNL     1      -0.311  -5.656  -2.614  0.00  0.00    +0.178 HD
ENDROOT
BRANCH   2   5
ATOM      5  C   UNL     1       0.102  -8.157  -1.958  0.00  0.00    +0.303 C 
ATOM      6  O   UNL     1      -0.068  -8.069  -3.157  0.00  0.00    -0.265 OA
ATOM      7  N   UNL     1       0.222  -9.369  -1.382  0.00  0.00    -0.291 N 
ATOM      8  C   UNL     1       0.225  -9.504   0.082  0.00  0.00    +0.127 C 
ATOM      9  C   UNL     1      -0.877 -10.491   0.485  0.00  0.00    +0.124 C 
ATOM     10  N   UNL     1      -0.747 -11.702  -0.338  0.00  0.00    -0.324 N 
ATOM     11  C   UNL     1      -0.751 -11.567  -1.801  0.00  0.00    +0.124 C 
ATOM     12  C   UNL     1       0.346 -10.580  -2.205  0.00  0.00    +0.127 C 
BRANCH  10  13
ATOM     13  C   UNL     1      -0.623 -12.961   0.261  0.00  0.00    +0.072 A 
ATOM     14  C   UNL     1      -1.754 -13.711   0.545  0.00  0.00    +0.027 A 
ATOM     15  C   UNL     1      -1.628 -14.954   1.136  0.00  0.00    +0.002 A 
ATOM     16  C   UNL     1      -0.376 -15.453   1.445  0.00  0.00    +0.004 A 
ATOM     17  C   UNL     1       0.756 -14.711   1.165  0.00  0.00    +0.047 A 
ATOM     18  C   UNL     1       0.639 -13.466   0.568  0.00  0.00    +0.141 A 
BRANCH  18  19
ATOM     19  O   UNL     1       1.752 -12.738   0.286  0.00  0.00    -0.493 OA
ATOM     20  C   UNL     1       3.012 -13.319   0.629  0.00  0.00    +0.277 C 
ENDBRANCH  18  19
ENDBRANCH  10  13
ENDBRANCH   2   5
BRANCH   1  22
ATOM     21  C   UNL     1      -0.254  -3.401  -1.422  0.00  0.00    +0.140 C 
ATOM     22  N   UNL     1      -0.008  -4.561  -0.890  0.00  0.00    -0.187 NA
BRANCH  21  26
ATOM     23  C   UNL     1      -0.396   1.479   0.065  0.00  0.00    +0.064 C 
ATOM     24  C   UNL     1      -0.249  -0.020   0.040  0.00  0.00    +0.022 A 
ATOM     25  C   UNL     1      -0.427  -0.806  -1.038  0.00  0.00    +0.032 A 
ATOM     26  C   UNL     1      -0.180  -2.183  -0.597  0.00  0.00    +0.016 A 
ATOM     27  C   UNL     1       0.132  -2.109   0.732  0.00  0.00    +0.030 A 
ATOM     28  N   UNL     1       0.094  -0.803   1.106  0.00  0.00    -0.317 N 
ATOM     29  C   UNL     1       0.466  -3.275   1.626  0.00  0.00    +0.064 C 
BRANCH  28  30
ATOM     30  C   UNL     1       0.363  -0.329   2.397  0.00  0.00    +0.058 A 
ATOM     31  C   UNL     1      -0.663  -0.218   3.326  0.00  0.00    +0.027 A 
ATOM     32  C   UNL     1      -0.395   0.249   4.597  0.00  0.00    +0.002 A 
ATOM     33  C   UNL     1       0.894   0.607   4.946  0.00  0.00    +0.001 A 
ATOM     34  C   UNL     1       1.918   0.499   4.024  0.00  0.00    +0.014 A 
ATOM     35  C   UNL     1       1.657   0.026   2.752  0.00  0.00    +0.079 A 
BRANCH  35  36
ATOM     36  C   UNL     1       2.776  -0.099   1.749  0.00  0.00    +0.419 C 
ATOM     37  F   UNL     1       3.976   0.315   2.336  0.00  0.00    -0.166 F 
ATOM     38  F   UNL     1       2.891  -1.432   1.343  0.00  0.00    -0.166 F 
ATOM     39  F   UNL     1       2.498   0.706   0.639  0.00  0.00    -0.166 F 
ENDBRANCH  35  36
ENDBRANCH  28  30
ENDBRANCH  21  26
ENDBRANCH   1  22
TORSDOF 7
