REMARK  Name = ZINC01581895
REMARK  6 active torsions:
REMARK  status: ('A' for Active; 'I' for Inactive)
REMARK    1  A    between atoms: C_1  and  C_2
REMARK    2  A    between atoms: C_7  and  C_8
REMARK    3  A    between atoms: C_13  and  C_23
REMARK    4  A    between atoms: N_15  and  C_16
REMARK    5  A    between atoms: C_25  and  O_32
REMARK    6  A    between atoms: C_27  and  O_31
REMARK                            x       y       z     vdW  Elec       q    Type
REMARK                         _______ _______ _______ _____ _____    ______ ____
ROOT
ATOM      1  C   UNL     1      -8.690   2.714   1.417  0.00  0.00    +0.044 C 
ATOM      2  C   UNL     1      -7.553   1.754   1.657  0.00  0.00    -0.045 A 
ATOM      3  C   UNL     1      -6.307   2.082   1.226  0.00  0.00    +0.033 A 
ATOM      4  C   UNL     1      -5.238   1.191   1.446  0.00  0.00    +0.090 A 
ATOM      5  C   UNL     1      -5.504  -0.072   2.139  0.00  0.00    +0.092 A 
ATOM      6  C   UNL     1      -6.819  -0.349   2.561  0.00  0.00    +0.033 A 
ATOM      7  C   UNL     1      -7.806   0.553   2.317  0.00  0.00    -0.045 A 
ATOM      8  C   UNL     1      -9.210   0.246   2.772  0.00  0.00    +0.044 C 
ATOM      9  N   UNL     1      -4.511  -0.935   2.362  0.00  0.00    -0.224 NA
ATOM     10  C   UNL     1      -3.292  -0.645   1.955  0.00  0.00    +0.183 A 
ATOM     11  C   UNL     1      -3.025   0.620   1.266  0.00  0.00    +0.134 A 
ATOM     12  N   UNL     1      -4.004   1.479   1.036  0.00  0.00    -0.240 NA
ATOM     13  C   UNL     1      -1.595   0.602   0.961  0.00  0.00    +0.122 A 
ATOM     14  N   UNL     1      -1.100  -0.511   1.416  0.00  0.00    -0.164 NA
ATOM     15  N   UNL     1      -2.083  -1.296   2.023  0.00  0.00    -0.212 N 
ENDROOT
BRANCH  15  16
ATOM     16  C   UNL     1      -1.871  -2.551   2.609  0.00  0.00    +0.068 A 
ATOM     17  C   UNL     1      -2.587  -2.920   3.740  0.00  0.00    +0.030 A 
ATOM     18  C   UNL     1      -2.380  -4.160   4.313  0.00  0.00    +0.040 A 
ATOM     19  C   UNL     1      -1.452  -5.030   3.767  0.00  0.00    +0.124 A 
ATOM     20  C   UNL     1      -0.733  -4.661   2.642  0.00  0.00    +0.040 A 
ATOM     21  C   UNL     1      -0.940  -3.425   2.063  0.00  0.00    +0.030 A 
ATOM     22  F   UNL     1      -1.247  -6.240   4.332  0.00  0.00    -0.205 F 
ENDBRANCH  15  16
BRANCH  13  23
ATOM     23  C   UNL     1      -0.827   1.686   0.249  0.00  0.00    +0.202 C 
ATOM     24  C   UNL     1      -0.503   1.254  -1.198  0.00  0.00    +0.180 C 
ATOM     25  C   UNL     1       0.911   1.824  -1.452  0.00  0.00    +0.171 C 
ATOM     26  C   UNL     1       1.273   2.533  -0.128  0.00  0.00    +0.194 C 
ATOM     27  O   UNL     1       0.461   1.883   0.873  0.00  0.00    -0.365 OA
BRANCH  25  28
ATOM     28  O   UNL     1       1.835   0.769  -1.724  0.00  0.00    -0.387 OA
ATOM     29  H   UNL     1       2.738   1.071  -1.891  0.00  0.00    +0.210 HD
ENDBRANCH  25  28
BRANCH  24  30
ATOM     30  O   UNL     1      -1.442   1.819  -2.114  0.00  0.00    -0.386 OA
ATOM     31  H   UNL     1      -1.267   1.604  -3.041  0.00  0.00    +0.210 HD
ENDBRANCH  24  30
ENDBRANCH  13  23
TORSDOF 4
