REMARK  Name = ZINC09614572
REMARK  8 active torsions:
REMARK  status: ('A' for Active; 'I' for Inactive)
REMARK    1  A    between atoms: C_1  and  N_2
REMARK    2  A    between atoms: C_9  and  C_17
REMARK    3  A    between atoms: C_10  and  C_11
REMARK    4  A    between atoms: N_27  and  C_28
REMARK    5  A    between atoms: C_28  and  C_29
REMARK    6  A    between atoms: N_31  and  C_32
REMARK    7  A    between atoms: C_32  and  C_33
REMARK    8  A    between atoms: C_33  and  N_69
REMARK                            x       y       z     vdW  Elec       q    Type
REMARK                         _______ _______ _______ _____ _____    ______ ____
ROOT
ATOM      1  C   UNL     1      -1.083  -1.046  -0.119  0.00  0.00    +0.141 C 
ATOM      2  C   UNL     1      -0.090   0.082   0.002  0.00  0.00    -0.010 A 
ATOM      3  C   UNL     1      -0.218   1.452   0.022  0.00  0.00    +0.006 A 
ATOM      4  C   UNL     1       0.907   2.249   0.148  0.00  0.00    +0.000 A 
ATOM      5  C   UNL     1       2.161   1.673   0.256  0.00  0.00    +0.001 A 
ATOM      6  C   UNL     1       2.300   0.300   0.236  0.00  0.00    +0.013 A 
ATOM      7  C   UNL     1       1.170  -0.510   0.109  0.00  0.00    +0.042 A 
ATOM      8  C   UNL     1       0.999  -1.975   0.058  0.00  0.00    +0.248 C 
ATOM      9  O   UNL     1       1.904  -2.783   0.126  0.00  0.00    -0.270 OA
ATOM     10  N   UNL     1      -0.302  -2.287  -0.073  0.00  0.00    -0.278 N 
ENDROOT
BRANCH   1  19
ATOM     11  C   UNL     1      -4.723  -0.221  -3.510  0.00  0.00    +0.149 C 
ATOM     12  N   UNL     1      -3.424  -0.587  -2.941  0.00  0.00    -0.343 N 
ATOM     13  C   UNL     1      -2.337  -1.026  -3.665  0.00  0.00    +0.050 A 
ATOM     14  C   UNL     1      -2.122  -1.249  -5.022  0.00  0.00    +0.026 A 
ATOM     15  C   UNL     1      -0.895  -1.702  -5.455  0.00  0.00    +0.002 A 
ATOM     16  C   UNL     1       0.132  -1.940  -4.552  0.00  0.00    +0.001 A 
ATOM     17  C   UNL     1      -0.057  -1.729  -3.216  0.00  0.00    +0.010 A 
ATOM     18  C   UNL     1      -1.293  -1.269  -2.753  0.00  0.00    +0.006 A 
ATOM     19  C   UNL     1      -1.822  -0.947  -1.429  0.00  0.00    +0.011 A 
ATOM     20  C   UNL     1      -3.107  -0.548  -1.603  0.00  0.00    +0.055 A 
BRANCH  20  21
ATOM     21  C   UNL     1      -4.025  -0.133  -0.520  0.00  0.00    -0.001 A 
ATOM     22  C   UNL     1      -4.111  -0.885   0.652  0.00  0.00    +0.010 A 
ATOM     23  C   UNL     1      -4.967  -0.489   1.660  0.00  0.00    +0.001 A 
ATOM     24  C   UNL     1      -5.745   0.644   1.506  0.00  0.00    +0.000 A 
ATOM     25  C   UNL     1      -5.668   1.391   0.344  0.00  0.00    +0.001 A 
ATOM     26  C   UNL     1      -4.813   1.009  -0.670  0.00  0.00    +0.010 A 
ENDBRANCH  20  21
ENDBRANCH   1  19
BRANCH  10  27
ATOM     27  C   UNL     1      -0.850  -3.644  -0.158  0.00  0.00    +0.204 C 
BRANCH  27  28
ATOM     28  C   UNL     1      -1.150  -4.151   1.229  0.00  0.00    +0.230 C 
ATOM     29  O   UNL     1      -1.012  -3.419   2.186  0.00  0.00    -0.274 OA
ATOM     30  N   UNL     1      -1.572  -5.419   1.406  0.00  0.00    -0.316 N 
ATOM     31  H   UNL     1      -1.683  -6.005   0.640  0.00  0.00    +0.149 HD
BRANCH  30  32
ATOM     32  C   UNL     1      -1.865  -5.912   2.754  0.00  0.00    +0.086 C 
BRANCH  32  33
ATOM     33  C   UNL     1      -2.322  -7.370   2.675  0.00  0.00    -0.060 C 
BRANCH  33  38
ATOM     34  C   UNL     1      -3.558  -6.960   4.732  0.00  0.00    -0.079 C 
ATOM     35  C   UNL     1      -4.144  -7.859   5.849  0.00  0.00    -0.020 C 
ATOM     36  C   UNL     1      -4.273  -9.234   5.154  0.00  0.00    -0.020 C 
ATOM     37  C   UNL     1      -3.283  -9.183   3.976  0.00  0.00    -0.079 C 
ATOM     38  N   UNL     1      -2.632  -7.875   4.047  0.00  0.00    +0.381 N 
ATOM     39  H   UNL     1      -1.759  -7.950   4.583  0.00  0.00    -0.082 HD
ENDBRANCH  33  38
ENDBRANCH  32  33
ENDBRANCH  30  32
ENDBRANCH  27  28
ENDBRANCH  10  27
TORSDOF 7
