REMARK  Name = ZINC13065202
REMARK  13 active torsions:
REMARK  status: ('A' for Active; 'I' for Inactive)
REMARK    1  A    between atoms: C_1  and  C_2
REMARK    2  A    between atoms: C_2  and  C_3
REMARK    3  A    between atoms: C_3  and  C_5
REMARK    4  A    between atoms: C_3  and  N_76
REMARK    5  A    between atoms: N_9  and  C_10
REMARK    6  A    between atoms: C_16  and  C_17
REMARK    7  A    between atoms: C_16  and  N_76
REMARK    8  A    between atoms: C_20  and  O_23
REMARK    9  A    between atoms: O_23  and  C_24
REMARK   10  A    between atoms: C_25  and  C_26
REMARK   11  A    between atoms: C_25  and  N_76
REMARK   12  A    between atoms: C_29  and  C_39
REMARK   13  A    between atoms: C_32  and  C_38
REMARK                            x       y       z     vdW  Elec       q    Type
REMARK                         _______ _______ _______ _____ _____    ______ ____
ROOT
ATOM      1  N   UNL     1       0.766   2.362   0.642  0.00  0.00    +0.392 N 
ATOM      2  H   UNL     1       0.581   2.680   1.600  0.00  0.00    -0.080 HD
ENDROOT
BRANCH   1   3
ATOM      3  C   UNL     1       1.222   0.956   0.682  0.00  0.00    +0.003 C 
BRANCH   3   4
ATOM      4  C   UNL     1       1.737   0.529  -0.668  0.00  0.00    +0.138 A 
ATOM      5  N   UNL     1       2.566   1.193  -1.436  0.00  0.00    -0.115 NA
ATOM      6  N   UNL     1       2.764   0.499  -2.503  0.00  0.00    -0.023 NA
ATOM      7  N   UNL     1       2.082  -0.591  -2.436  0.00  0.00    -0.044 NA
ATOM      8  N   UNL     1       1.440  -0.612  -1.317  0.00  0.00    -0.228 N 
BRANCH   8   9
ATOM      9  C   UNL     1       0.552  -1.677  -0.843  0.00  0.00    +0.111 C 
ATOM     10  C   UNL     1       1.337  -2.985  -0.734  0.00  0.00    +0.027 C 
ATOM     11  C   UNL     1       0.409  -4.097  -0.239  0.00  0.00    +0.002 C 
ATOM     12  C   UNL     1      -0.744  -4.276  -1.228  0.00  0.00    +0.000 C 
ATOM     13  C   UNL     1      -1.530  -2.967  -1.337  0.00  0.00    +0.002 C 
ATOM     14  C   UNL     1      -0.602  -1.856  -1.832  0.00  0.00    +0.027 C 
ENDBRANCH   8   9
ENDBRANCH   3   4
BRANCH   3  16
ATOM     15  C   UNL     1       1.792   1.167   3.106  0.00  0.00    +0.002 C 
ATOM     16  C   UNL     1       2.341   0.831   1.718  0.00  0.00    -0.011 C 
ENDBRANCH   3  16
ENDBRANCH   1   3
BRANCH   1  17
ATOM     17  C   UNL     1      -0.478   2.466  -0.148  0.00  0.00    -0.042 C 
BRANCH  17  18
ATOM     18  C   UNL     1      -1.625   1.956   0.687  0.00  0.00    -0.064 A 
ATOM     19  C   UNL     1      -1.969   0.618   0.642  0.00  0.00    +0.005 A 
ATOM     20  C   UNL     1      -3.016   0.147   1.411  0.00  0.00    +0.046 A 
ATOM     21  C   UNL     1      -3.729   1.020   2.220  0.00  0.00    +0.120 A 
ATOM     22  C   UNL     1      -3.384   2.364   2.259  0.00  0.00    +0.046 A 
ATOM     23  C   UNL     1      -2.333   2.829   1.492  0.00  0.00    +0.005 A 
BRANCH  21  24
ATOM     24  O   UNL     1      -4.762   0.560   2.973  0.00  0.00    -0.495 OA
ATOM     25  C   UNL     1      -5.060  -0.834   2.883  0.00  0.00    +0.277 C 
ENDBRANCH  21  24
ENDBRANCH  17  18
ENDBRANCH   1  17
BRANCH   1  26
ATOM     26  C   UNL     1       1.815   3.216   0.046  0.00  0.00    -0.036 C 
BRANCH  26  27
ATOM     27  C   UNL     1       1.495   4.657   0.347  0.00  0.00    +0.001 A 
ATOM     28  C   UNL     1       2.009   5.247   1.455  0.00  0.00    +0.017 A 
ATOM     29  C   UNL     1       1.682   6.650   1.716  0.00  0.00    +0.002 A 
ATOM     30  C   UNL     1       2.188   7.314   2.839  0.00  0.00    -0.041 A 
ATOM     31  C   UNL     1       1.861   8.622   3.056  0.00  0.00    +0.004 A 
ATOM     32  C   UNL     1       1.030   9.299   2.173  0.00  0.00    +0.005 A 
ATOM     33  C   UNL     1       0.520   8.665   1.061  0.00  0.00    -0.026 A 
ATOM     34  C   UNL     1       0.840   7.333   0.818  0.00  0.00    +0.052 A 
ATOM     35  N   UNL     1       0.345   6.674  -0.287  0.00  0.00    -0.322 N 
ATOM     36  H   UNL     1      -0.235   7.146  -0.904  0.00  0.00    +0.169 HD
ATOM     37  C   UNL     1       0.655   5.387  -0.521  0.00  0.00    +0.251 A 
ATOM     38  O   UNL     1       0.198   4.836  -1.508  0.00  0.00    -0.268 OA
ATOM     39  C   UNL     1      -0.380   9.411   0.111  0.00  0.00    +0.046 C 
ATOM     40  C   UNL     1       3.091   6.589   3.804  0.00  0.00    +0.044 C 
ENDBRANCH  26  27
ENDBRANCH   1  26
TORSDOF 9
