REMARK  Name = ZINC18195833
REMARK  5 active torsions:
REMARK  status: ('A' for Active; 'I' for Inactive)
REMARK    1  A    between atoms: C_1  and  O_2
REMARK    2  A    between atoms: O_2  and  C_3
REMARK    3  A    between atoms: C_5  and  C_11
REMARK    4  A    between atoms: C_8  and  O_9
REMARK    5  A    between atoms: C_18  and  O_19
REMARK                            x       y       z     vdW  Elec       q    Type
REMARK                         _______ _______ _______ _____ _____    ______ ____
ROOT
ATOM      1  C   UNL     1      -2.513   0.975   0.019  0.00  0.00    +0.092 C 
ATOM      2  C   UNL     1      -2.573   0.105   1.242  0.00  0.00    +0.067 A 
ATOM      3  C   UNL     1      -2.411  -1.253   1.188  0.00  0.00    +0.126 A 
ATOM      4  N   UNL     1      -2.515  -1.730   2.442  0.00  0.00    -0.260 N 
ATOM      5  H   UNL     1      -2.437  -2.689   2.717  0.00  0.00    +0.190 HD
ATOM      6  N   UNL     1      -2.753  -0.641   3.297  0.00  0.00    -0.134 NA
ATOM      7  C   UNL     1      -2.787   0.456   2.573  0.00  0.00    +0.237 A 
ATOM      8  N   UNL     1      -2.184  -1.906  -0.018  0.00  0.00    -0.303 N 
ATOM      9  C   UNL     1      -2.427  -1.228  -1.186  0.00  0.00    +0.017 C 
ATOM     10  C   UNL     1      -2.585   0.113  -1.223  0.00  0.00    +0.024 C 
ATOM     11  C   UNL     1      -2.825   0.777  -2.440  0.00  0.00    +0.162 C 
ATOM     12  O   UNL     1      -2.970   1.984  -2.439  0.00  0.00    -0.292 OA
ATOM     13  C   UNL     1      -2.906   0.029  -3.741  0.00  0.00    +0.080 C 
ATOM     14  C   UNL     1      -2.038  -1.230  -3.642  0.00  0.00    +0.014 C 
ATOM     15  C   UNL     1      -2.521  -2.054  -2.448  0.00  0.00    +0.051 C 
ATOM     16  H   UNL     1      -1.862  -2.821  -0.033  0.00  0.00    +0.153 HD
ENDROOT
BRANCH   1  19
ATOM     17  C   UNL     1      -0.056   3.845   0.023  0.00  0.00    +0.163 A 
ATOM     18  C   UNL     1      -1.244   3.131   0.031  0.00  0.00    +0.054 A 
ATOM     19  C   UNL     1      -1.220   1.749   0.017  0.00  0.00    -0.031 A 
ATOM     20  C   UNL     1      -0.013   1.076   0.008  0.00  0.00    +0.022 A 
ATOM     21  C   UNL     1       1.176   1.782   0.000  0.00  0.00    +0.059 A 
ATOM     22  C   UNL     1       1.159   3.168   0.008  0.00  0.00    +0.172 A 
ATOM     23  I   UNL     1       3.003   0.757  -0.023  0.00  0.00    -0.040 I 
BRANCH  17  25
ATOM     24  C   UNL     1      -1.362   5.833   0.046  0.00  0.00    +0.277 C 
ATOM     25  O   UNL     1      -0.079   5.205   0.030  0.00  0.00    -0.491 OA
ENDBRANCH  17  25
BRANCH  22  26
ATOM     26  O   UNL     1       2.327   3.864   0.000  0.00  0.00    -0.503 OA
ATOM     27  H   UNL     1       2.656   4.071  -0.885  0.00  0.00    +0.292 HD
ENDBRANCH  22  26
ENDBRANCH   1  19
BRANCH   7  28
ATOM     28  O   UNL     1      -2.995   1.715   3.043  0.00  0.00    -0.491 OA
ATOM     29  H   UNL     1      -3.120   1.684   4.035  0.00  0.00    +0.294 HD
ENDBRANCH   7  28
TORSDOF 4
