REMARK  Name = ZINC01444214
REMARK  10 active torsions:
REMARK  status: ('A' for Active; 'I' for Inactive)
REMARK    1  A    between atoms: C_1  and  N_2
REMARK    2  A    between atoms: N_2  and  C_3
REMARK    3  A    between atoms: N_2  and  C_4
REMARK    4  A    between atoms: C_7  and  C_10
REMARK    5  A    between atoms: C_12  and  C_33
REMARK    6  A    between atoms: C_13  and  N_32
REMARK    7  A    between atoms: N_14  and  N_29
REMARK    8  A    between atoms: C_20  and  C_23
REMARK    9  A    between atoms: N_29  and  C_30
REMARK   10  A    between atoms: N_29  and  C_31
REMARK                            x       y       z     vdW  Elec       q    Type
REMARK                         _______ _______ _______ _____ _____    ______ ____
ROOT
ATOM      1  C   UNL     1       5.012   6.981  -0.169  0.00  0.00    +0.097 C 
ATOM      2  C   UNL     1       5.902   7.059   1.035  0.00  0.00    +0.078 C 
ATOM      3  C   UNL     1       5.685   6.271   2.120  0.00  0.00    +0.117 C 
ATOM      4  N   UNL     1       4.640   5.378   2.126  0.00  0.00    -0.223 N 
ATOM      5  C   UNL     1       4.060   4.976   0.953  0.00  0.00    +0.037 C 
ATOM      6  C   UNL     1       4.215   5.701  -0.175  0.00  0.00    +0.026 C 
ATOM      7  C   UNL     1       3.636   5.288  -1.387  0.00  0.00    +0.162 C 
ATOM      8  O   UNL     1       3.787   5.968  -2.383  0.00  0.00    -0.292 OA
ATOM      9  C   UNL     1       2.832   4.019  -1.476  0.00  0.00    +0.088 C 
ATOM     10  C   UNL     1       3.336   3.035  -0.416  0.00  0.00    +0.032 C 
ATOM     11  C   UNL     1       3.242   3.708   0.955  0.00  0.00    +0.061 C 
ENDROOT
BRANCH   1  15
ATOM     12  C   UNL     1       2.325  10.305  -0.142  0.00  0.00    +0.029 A 
ATOM     13  C   UNL     1       3.227  10.148  -1.186  0.00  0.00    +0.023 A 
ATOM     14  C   UNL     1       4.094   9.073  -1.192  0.00  0.00    +0.006 A 
ATOM     15  C   UNL     1       4.064   8.153  -0.160  0.00  0.00    -0.035 A 
ATOM     16  C   UNL     1       3.164   8.304   0.879  0.00  0.00    +0.006 A 
ATOM     17  C   UNL     1       2.298   9.380   0.894  0.00  0.00    +0.023 A 
BRANCH  12  19
ATOM     18  C   UNL     1       1.476  12.366  -1.226  0.00  0.00    +0.129 C 
ATOM     19  N   UNL     1       1.447  11.391  -0.133  0.00  0.00    -0.336 N 
ATOM     20  C   UNL     1       0.496  11.556   0.970  0.00  0.00    +0.129 C 
ENDBRANCH  12  19
ENDBRANCH   1  15
BRANCH  10  21
ATOM     21  C   UNL     1       2.481   1.794  -0.430  0.00  0.00    -0.044 A 
ATOM     22  C   UNL     1       3.052   0.563  -0.694  0.00  0.00    +0.004 A 
ATOM     23  C   UNL     1       2.268  -0.575  -0.707  0.00  0.00    +0.000 A 
ATOM     24  C   UNL     1       0.911  -0.482  -0.461  0.00  0.00    +0.000 A 
ATOM     25  C   UNL     1       0.340   0.748  -0.192  0.00  0.00    +0.000 A 
ATOM     26  C   UNL     1       1.124   1.886  -0.179  0.00  0.00    +0.004 A 
ENDBRANCH  10  21
BRANCH   4  27
ATOM     27  N   UNL     1       4.176   4.887   3.313  0.00  0.00    -0.227 NA
ATOM     28  C   UNL     1       5.162   3.995   3.936  0.00  0.00    +0.128 C 
ATOM     29  C   UNL     1       3.803   5.978   4.224  0.00  0.00    +0.128 C 
ENDBRANCH   4  27
BRANCH   3  30
ATOM     30  N   UNL     1       6.511   6.366   3.214  0.00  0.00    -0.344 N 
ATOM     31  H   UNL     1       6.187   6.106   4.090  0.00  0.00    +0.144 HD
ATOM     32  H   UNL     1       7.418   6.693   3.109  0.00  0.00    +0.144 HD
ENDBRANCH   3  30
BRANCH   2  33
ATOM     33  C   UNL     1       6.999   7.979   1.042  0.00  0.00    +0.099 C 
ATOM     34  N   UNL     1       7.870   8.709   1.047  0.00  0.00    -0.191 NA
ENDBRANCH   2  33
TORSDOF 6
