REMARK  Name = ZINC13726473
REMARK  14 active torsions:
REMARK  status: ('A' for Active; 'I' for Inactive)
REMARK    1  A    between atoms: C_1  and  C_2
REMARK    2  A    between atoms: C_2  and  C_4
REMARK    3  A    between atoms: C_2  and  N_66
REMARK    4  A    between atoms: C_4  and  C_5
REMARK    5  A    between atoms: C_5  and  C_6
REMARK    6  A    between atoms: C_12  and  C_13
REMARK    7  A    between atoms: C_12  and  N_66
REMARK    8  A    between atoms: C_16  and  O_19
REMARK    9  A    between atoms: O_19  and  C_20
REMARK   10  A    between atoms: C_20  and  C_21
REMARK   11  A    between atoms: C_21  and  C_23
REMARK   12  A    between atoms: C_21  and  O_35
REMARK   13  A    between atoms: N_29  and  C_34
REMARK   14  A    between atoms: N_32  and  C_33
REMARK                            x       y       z     vdW  Elec       q    Type
REMARK                         _______ _______ _______ _____ _____    ______ ____
ROOT
ATOM      1  C   UNL     1      -5.602  -1.260   5.139  0.00  0.00    -0.064 A 
ATOM      2  C   UNL     1      -6.352  -1.473   3.997  0.00  0.00    +0.005 A 
ATOM      3  C   UNL     1      -5.870  -1.066   2.768  0.00  0.00    +0.046 A 
ATOM      4  C   UNL     1      -4.634  -0.443   2.680  0.00  0.00    +0.121 A 
ATOM      5  C   UNL     1      -3.881  -0.235   3.827  0.00  0.00    +0.046 A 
ATOM      6  C   UNL     1      -4.370  -0.639   5.054  0.00  0.00    +0.005 A 
ENDROOT
BRANCH   1   7
ATOM      7  C   UNL     1      -6.129  -1.705   6.479  0.00  0.00    -0.046 C 
BRANCH   7   8
ATOM      8  N   UNL     1      -5.686  -3.088   6.738  0.00  0.00    +0.383 N 
ATOM      9  H   UNL     1      -6.046  -3.703   6.000  0.00  0.00    -0.085 HD
ATOM     10  H   UNL     1      -4.659  -3.119   6.739  0.00  0.00    -0.085 HD
BRANCH   8  12
ATOM     11  C   UNL     1      -5.229  -3.102   9.149  0.00  0.00    -0.014 C 
ATOM     12  C   UNL     1      -6.188  -3.550   8.046  0.00  0.00    -0.074 C 
BRANCH  12  13
ATOM     13  C   UNL     1      -6.278  -5.078   8.037  0.00  0.00    -0.011 C 
BRANCH  13  14
ATOM     14  C   UNL     1      -7.330  -5.521   7.019  0.00  0.00    +0.033 C 
BRANCH  14  15
ATOM     15  C   UNL     1      -7.418  -7.026   7.010  0.00  0.00    -0.047 A 
ATOM     16  C   UNL     1      -6.621  -7.760   6.152  0.00  0.00    +0.003 A 
ATOM     17  C   UNL     1      -6.699  -9.140   6.149  0.00  0.00    +0.000 A 
ATOM     18  C   UNL     1      -7.581  -9.785   6.995  0.00  0.00    +0.000 A 
ATOM     19  C   UNL     1      -8.382  -9.051   7.849  0.00  0.00    +0.000 A 
ATOM     20  C   UNL     1      -8.301  -7.671   7.856  0.00  0.00    +0.003 A 
ENDBRANCH  14  15
ENDBRANCH  13  14
ENDBRANCH  12  13
ENDBRANCH   8  12
ENDBRANCH   7   8
ENDBRANCH   1   7
BRANCH   4  21
ATOM     21  O   UNL     1      -4.159  -0.042   1.472  0.00  0.00    -0.489 OA
BRANCH  21  22
ATOM     22  C   UNL     1      -2.878   0.593   1.457  0.00  0.00    +0.265 C 
BRANCH  22  23
ATOM     23  C   UNL     1      -2.513   0.971   0.020  0.00  0.00    +0.182 C 
BRANCH  23  24
ATOM     24  C   UNL     1      -1.222   1.749   0.017  0.00  0.00    -0.014 A 
ATOM     25  C   UNL     1      -0.013   1.076   0.008  0.00  0.00    +0.008 A 
ATOM     26  C   UNL     1       1.176   1.780   0.000  0.00  0.00    +0.028 A 
ATOM     27  C   UNL     1       1.157   3.166   0.008  0.00  0.00    +0.070 A 
ATOM     28  C   UNL     1      -0.064   3.845   0.022  0.00  0.00    +0.070 A 
ATOM     29  C   UNL     1      -1.251   3.129   0.031  0.00  0.00    +0.034 A 
ATOM     30  N   UNL     1       0.233   5.206   0.026  0.00  0.00    -0.295 N 
ATOM     31  C   UNL     1       1.571   5.348   0.013  0.00  0.00    +0.330 A 
ATOM     32  O   UNL     1       2.163   6.412   0.012  0.00  0.00    -0.246 OA
ATOM     33  N   UNL     1       2.156   4.136   0.002  0.00  0.00    -0.295 N 
ATOM     34  C   UNL     1       3.599   3.880  -0.013  0.00  0.00    +0.154 C 
ATOM     35  C   UNL     1      -0.746   6.296   0.040  0.00  0.00    +0.154 C 
ENDBRANCH  23  24
BRANCH  23  36
ATOM     36  O   UNL     1      -2.356  -0.216  -0.760  0.00  0.00    -0.384 OA
ATOM     37  H   UNL     1      -1.664  -0.810  -0.437  0.00  0.00    +0.210 HD
ENDBRANCH  23  36
ENDBRANCH  22  23
ENDBRANCH  21  22
ENDBRANCH   4  21
TORSDOF 11
