REMARK  Name = ZINC23214959
REMARK  10 active torsions:
REMARK  status: ('A' for Active; 'I' for Inactive)
REMARK    1  A    between atoms: C_1  and  N_2
REMARK    2  A    between atoms: N_2  and  C_3
REMARK    3  A    between atoms: N_2  and  C_12
REMARK    4  A    between atoms: C_3  and  C_4
REMARK    5  A    between atoms: C_5  and  C_6
REMARK    6  A    between atoms: C_12  and  C_13
REMARK    7  A    between atoms: C_16  and  C_19
REMARK    8  A    between atoms: C_25  and  C_27
REMARK    9  A    between atoms: C_27  and  C_28
REMARK   10  A    between atoms: C_28  and  N_29
REMARK                            x       y       z     vdW  Elec       q    Type
REMARK                         _______ _______ _______ _____ _____    ______ ____
ROOT
ATOM      1  C   UNL     1       5.474   1.646  -2.109  0.00  0.00    -0.064 A 
ATOM      2  C   UNL     1       5.596   1.095  -3.373  0.00  0.00    +0.002 A 
ATOM      3  C   UNL     1       6.372   1.717  -4.328  0.00  0.00    +0.012 A 
ATOM      4  C   UNL     1       7.046   2.899  -4.015  0.00  0.00    +0.017 A 
ATOM      5  C   UNL     1       6.924   3.447  -2.736  0.00  0.00    +0.012 A 
ATOM      6  C   UNL     1       6.139   2.817  -1.792  0.00  0.00    +0.002 A 
ENDROOT
BRANCH   4   7
ATOM      7  C   UNL     1       7.885   3.567  -5.031  0.00  0.00    +0.141 A 
ATOM      8  N   UNL     1       7.998   3.017  -6.272  0.00  0.00    -0.307 N 
ATOM      9  H   UNL     1       7.471   2.081  -6.510  0.00  0.00    +0.170 HD
ATOM     10  C   UNL     1       8.759   3.625  -7.208  0.00  0.00    +0.252 A 
ATOM     11  O   UNL     1       8.869   3.149  -8.326  0.00  0.00    -0.268 OA
ATOM     12  C   UNL     1       9.429   4.816  -6.865  0.00  0.00    +0.093 A 
ATOM     13  C   UNL     1       9.281   5.316  -5.604  0.00  0.00    +0.047 A 
ATOM     14  N   UNL     1       8.514   4.681  -4.719  0.00  0.00    -0.234 NA
BRANCH  13  15
ATOM     15  C   UNL     1       9.986   6.588  -5.212  0.00  0.00    +0.036 C 
BRANCH  15  16
ATOM     16  C   UNL     1       9.040   7.775  -5.400  0.00  0.00    -0.080 C 
BRANCH  16  17
ATOM     17  N   UNL     1       9.727   9.015  -5.017  0.00  0.00    +0.378 N 
ATOM     18  H   UNL     1       9.047   9.869  -5.152  0.00  0.00    -0.090 HD
ATOM     19  H   UNL     1      10.617   9.152  -5.651  0.00  0.00    -0.090 HD
ATOM     20  H   UNL     1      10.034   8.954  -3.963  0.00  0.00    -0.090 HD
ENDBRANCH  16  17
ENDBRANCH  15  16
ENDBRANCH  13  15
ENDBRANCH   4   7
BRANCH   1  21
ATOM     21  C   UNL     1       4.619   0.965  -1.073  0.00  0.00    -0.043 C 
BRANCH  21  23
ATOM     22  C   UNL     1       2.618   1.102  -2.429  0.00  0.00    -0.095 C 
ATOM     23  N   UNL     1       3.246   1.479  -1.156  0.00  0.00    +0.383 N 
ATOM     24  H   UNL     1       3.293   2.577  -1.114  0.00  0.00    -0.081 HD
BRANCH  23  25
ATOM     25  C   UNL     1       2.442   1.018  -0.016  0.00  0.00    -0.051 C 
BRANCH  25  26
ATOM     26  C   UNL     1       1.126   1.754   0.001  0.00  0.00    -0.045 C 
ATOM     27  C   UNL     1      -0.013   1.076   0.008  0.00  0.00    +0.002 C 
BRANCH  27  28
ATOM     28  C   UNL     1      -1.303   1.797   0.018  0.00  0.00    -0.025 A 
ATOM     29  C   UNL     1      -1.325   3.192   0.032  0.00  0.00    +0.008 A 
ATOM     30  C   UNL     1      -2.532   3.860   0.035  0.00  0.00    +0.001 A 
ATOM     31  C   UNL     1      -3.719   3.149   0.037  0.00  0.00    +0.000 A 
ATOM     32  C   UNL     1      -3.704   1.766   0.029  0.00  0.00    +0.001 A 
ATOM     33  C   UNL     1      -2.503   1.086   0.020  0.00  0.00    +0.008 A 
ENDBRANCH  27  28
ENDBRANCH  25  26
ENDBRANCH  23  25
ENDBRANCH  21  23
ENDBRANCH   1  21
TORSDOF 9
