REMARK  Name = ZINC39291741
REMARK  12 active torsions:
REMARK  status: ('A' for Active; 'I' for Inactive)
REMARK    1  A    between atoms: C_1  and  C_2
REMARK    2  A    between atoms: C_5  and  S_8
REMARK    3  A    between atoms: S_8  and  O_11
REMARK    4  A    between atoms: O_11  and  C_12
REMARK    5  A    between atoms: C_15  and  C_26
REMARK    6  A    between atoms: C_19  and  O_21
REMARK    7  A    between atoms: O_21  and  C_22
REMARK    8  A    between atoms: C_22  and  C_23
REMARK    9  A    between atoms: C_22  and  C_24
REMARK   10  A    between atoms: C_22  and  C_25
REMARK   11  A    between atoms: C_26  and  O_27
REMARK   12  A    between atoms: O_27  and  N_28
REMARK                            x       y       z     vdW  Elec       q    Type
REMARK                         _______ _______ _______ _____ _____    ______ ____
ROOT
ATOM      1  C   UNL     1       2.109  -5.003   1.311  0.00  0.00    +0.169 C 
ATOM      2  C   UNL     1       3.217  -6.052   1.592  0.00  0.00    +0.061 C 
ATOM      3  C   UNL     1       4.247  -5.212   2.387  0.00  0.00    +0.122 C 
ATOM      4  N   UNL     1       4.213  -3.879   1.758  0.00  0.00    -0.258 N 
ATOM      5  C   UNL     1       2.907  -3.699   1.101  0.00  0.00    +0.145 C 
ATOM      6  C   UNL     1       5.210  -2.973   1.783  0.00  0.00    +0.404 C 
ATOM      7  O   UNL     1       6.280  -3.261   2.282  0.00  0.00    -0.226 OA
ENDROOT
BRANCH   1   8
ATOM      8  O   UNL     1       1.377  -5.344   0.132  0.00  0.00    -0.229 OA
BRANCH   8   9
ATOM      9  S   UNL     1      -0.089  -4.936   0.174  0.00  0.00    +0.112 S 
ATOM     10  O   UNL     1      -0.541  -5.179   1.499  0.00  0.00    -0.142 OA
ATOM     11  O   UNL     1      -0.707  -5.524  -0.962  0.00  0.00    -0.142 OA
BRANCH   9  16
ATOM     12  C   UNL     1      -0.305   1.038  -0.647  0.00  0.00    +0.044 C 
ATOM     13  C   UNL     1      -0.251  -0.454  -0.442  0.00  0.00    -0.050 A 
ATOM     14  C   UNL     1      -0.305  -1.304  -1.531  0.00  0.00    +0.005 A 
ATOM     15  C   UNL     1      -0.255  -2.672  -1.343  0.00  0.00    +0.030 A 
ATOM     16  C   UNL     1      -0.151  -3.191  -0.066  0.00  0.00    +0.117 A 
ATOM     17  C   UNL     1      -0.096  -2.341   1.023  0.00  0.00    +0.030 A 
ATOM     18  C   UNL     1      -0.141  -0.973   0.835  0.00  0.00    +0.005 A 
ENDBRANCH   9  16
ENDBRANCH   8   9
ENDBRANCH   1   8
BRANCH   6  19
ATOM     19  O   UNL     1       5.021  -1.749   1.256  0.00  0.00    -0.445 OA
BRANCH  19  20
ATOM     20  C   UNL     1       6.122  -0.839   1.317  0.00  0.00    +0.107 C 
ATOM     21  C   UNL     1       7.316  -1.431   0.565  0.00  0.00    +0.055 C 
ATOM     22  C   UNL     1       5.721   0.490   0.673  0.00  0.00    +0.055 C 
ATOM     23  C   UNL     1       6.507  -0.602   2.779  0.00  0.00    +0.055 C 
ENDBRANCH  19  20
ENDBRANCH   6  19
BRANCH   3  24
ATOM     24  C   UNL     1       5.643  -5.826   2.265  0.00  0.00    +0.283 C 
BRANCH  24  25
ATOM     25  O   UNL     1       6.533  -5.167   3.168  0.00  0.00    -0.407 OA
BRANCH  25  26
ATOM     26  N   UNL     1       7.859  -5.662   3.133  0.00  0.00    -0.151 N 
ATOM     27  C   UNL     1       8.324  -6.667   2.338  0.00  0.00    +0.242 A 
ATOM     28  N   UNL     1       9.590  -6.866   2.564  0.00  0.00    -0.228 NA
ATOM     29  C   UNL     1      10.020  -6.004   3.517  0.00  0.00    +0.148 A 
ATOM     30  C   UNL     1       8.913  -5.216   3.890  0.00  0.00    +0.200 A 
ATOM     31  N   UNL     1       9.072  -4.279   4.816  0.00  0.00    -0.213 NA
ATOM     32  C   UNL     1      10.249  -4.086   5.375  0.00  0.00    +0.225 A 
ATOM     33  N   UNL     1      11.312  -4.800   5.052  0.00  0.00    -0.222 NA
ATOM     34  C   UNL     1      11.244  -5.763   4.146  0.00  0.00    +0.160 A 
ATOM     35 CL   UNL     1      12.652  -6.690   3.731  0.00  0.00    -0.060 Cl
ENDBRANCH  25  26
ENDBRANCH  24  25
ENDBRANCH   3  24
TORSDOF 8
