REMARK  Name = ZINC12946160
REMARK  8 active torsions:
REMARK  status: ('A' for Active; 'I' for Inactive)
REMARK    1  A    between atoms: C_1  and  C_2
REMARK    2  A    between atoms: C_5  and  C_7
REMARK    3  A    between atoms: N_9  and  C_10
REMARK    4  A    between atoms: C_10  and  C_11
REMARK    5  A    between atoms: N_13  and  C_14
REMARK    6  A    between atoms: C_14  and  C_15
REMARK    7  A    between atoms: C_15  and  C_17
REMARK    8  A    between atoms: C_15  and  C_22
REMARK                            x       y       z     vdW  Elec       q    Type
REMARK                         _______ _______ _______ _____ _____    ______ ____
ROOT
ATOM      1  C   UNL     1       4.301   4.598   1.234  0.00  0.00    +0.117 C 
ENDROOT
BRANCH   1   4
ATOM      2  C   UNL     1       6.490   4.725   2.297  0.00  0.00    +0.230 C 
ATOM      3  O   UNL     1       5.993   5.399   3.175  0.00  0.00    -0.274 OA
ATOM      4  N   UNL     1       5.729   4.274   1.280  0.00  0.00    -0.313 N 
ATOM      5  H   UNL     1       6.127   3.735   0.579  0.00  0.00    +0.149 HD
BRANCH   2   6
ATOM      6  C   UNL     1       7.959   4.392   2.345  0.00  0.00    +0.200 C 
BRANCH   6   9
ATOM      7  C   UNL     1       9.872   4.828   3.790  0.00  0.00    +0.251 C 
ATOM      8  O   UNL     1      10.560   4.178   3.025  0.00  0.00    -0.270 OA
ATOM      9  N   UNL     1       8.558   4.994   3.538  0.00  0.00    -0.302 N 
ATOM     10  H   UNL     1       8.010   5.512   4.148  0.00  0.00    +0.150 HD
BRANCH   7  15
ATOM     11  C   UNL     1      11.183   7.482   8.532  0.00  0.00    +0.051 C 
ATOM     12  C   UNL     1      11.092   6.698   7.248  0.00  0.00    -0.013 A 
ATOM     13  C   UNL     1      12.081   6.040   6.589  0.00  0.00    +0.011 A 
ATOM     14  C   UNL     1      11.786   5.380   5.422  0.00  0.00    +0.021 A 
ATOM     15  C   UNL     1      10.471   5.430   4.984  0.00  0.00    +0.074 A 
ATOM     16  S   UNL     1       9.701   6.424   6.250  0.00  0.00    -0.089 S 
ENDBRANCH   7  15
ENDBRANCH   6   9
ENDBRANCH   2   6
ENDBRANCH   1   4
BRANCH   1  17
ATOM     17  C   UNL     1       3.676   3.969  -0.012  0.00  0.00    +0.075 C 
BRANCH  17  18
ATOM     18  C   UNL     1       2.186   4.197   0.004  0.00  0.00    -0.013 A 
ATOM     19  C   UNL     1       1.560   5.385   0.016  0.00  0.00    +0.088 A 
ATOM     20  N   UNL     1       0.205   5.198   0.028  0.00  0.00    -0.360 N 
ATOM     21  H   UNL     1      -0.455   5.909   0.038  0.00  0.00    +0.165 HD
ATOM     22  C   UNL     1      -0.082   3.852   0.024  0.00  0.00    +0.047 A 
ATOM     23  C   UNL     1       1.147   3.166   0.008  0.00  0.00    +0.003 A 
ATOM     24  C   UNL     1       1.165   1.770   0.000  0.00  0.00    +0.010 A 
ATOM     25  C   UNL     1      -0.013   1.076   0.008  0.00  0.00    +0.001 A 
ATOM     26  C   UNL     1      -1.227   1.748   0.017  0.00  0.00    +0.002 A 
ATOM     27  C   UNL     1      -1.268   3.125   0.031  0.00  0.00    +0.026 A 
ENDBRANCH  17  18
BRANCH  17  28
ATOM     28  C   UNL     1       4.268   4.602  -1.245  0.00  0.00    -0.001 A 
ATOM     29  C   UNL     1       4.963   4.021  -2.253  0.00  0.00    +0.012 A 
ATOM     30  C   UNL     1       5.412   4.807  -3.298  0.00  0.00    +0.008 A 
ATOM     31  C   UNL     1       5.154   6.137  -3.278  0.00  0.00    +0.045 A 
ATOM     32  S   UNL     1       4.243   6.314  -1.752  0.00  0.00    -0.101 S 
ENDBRANCH  17  28
ENDBRANCH   1  17
TORSDOF 7
