REMARK  Name = ZINC40296834
REMARK  3 active torsions:
REMARK  status: ('A' for Active; 'I' for Inactive)
REMARK    1  A    between atoms: C_2  and  C_10
REMARK    2  A    between atoms: C_6  and  N_7
REMARK    3  A    between atoms: N_12  and  C_13
REMARK                            x       y       z     vdW  Elec       q    Type
REMARK                         _______ _______ _______ _____ _____    ______ ____
ROOT
ATOM      1  C   UNL     1       1.172   3.570   0.016  0.00  0.00    +0.248 C 
ATOM      2  O   UNL     1       0.114   4.169   0.025  0.00  0.00    -0.270 OA
ATOM      3  N   UNL     1       2.333   4.253   0.002  0.00  0.00    -0.280 N 
ATOM      4  H   UNL     1       3.177   3.778   0.061  0.00  0.00    +0.155 HD
ENDROOT
BRANCH   3   5
ATOM      5  C   UNL     1       2.323   5.649  -0.096  0.00  0.00    +0.054 A 
ATOM      6  C   UNL     1       1.309   6.381   0.508  0.00  0.00    +0.046 A 
ATOM      7  C   UNL     1       1.301   7.760   0.409  0.00  0.00    +0.061 A 
ATOM      8  C   UNL     1       2.303   8.411  -0.292  0.00  0.00    +0.061 A 
ATOM      9  C   UNL     1       3.313   7.684  -0.895  0.00  0.00    +0.043 A 
ATOM     10  C   UNL     1       3.329   6.305  -0.794  0.00  0.00    +0.064 A 
ATOM     11 CL   UNL     1       4.602   5.394  -1.546  0.00  0.00    -0.082 Cl
ATOM     12 CL   UNL     1       2.289  10.143  -0.415  0.00  0.00    -0.082 Cl
ATOM     13 CL   UNL     1       0.035   8.676   1.164  0.00  0.00    -0.082 Cl
ENDBRANCH   3   5
BRANCH   1  15
ATOM     14  C   UNL     1      -0.018   1.382   0.033  0.00  0.00    +0.037 A 
ATOM     15  C   UNL     1       1.184   2.092   0.019  0.00  0.00    +0.040 A 
ATOM     16  C   UNL     1       2.397   1.402   0.008  0.00  0.00    +0.034 A 
ATOM     17  C   UNL     1       2.407   0.021   0.011  0.00  0.00    +0.062 A 
ATOM     18  C   UNL     1       1.215  -0.683   0.025  0.00  0.00    +0.080 A 
ATOM     19  C   UNL     1       0.001  -0.003   0.036  0.00  0.00    +0.045 A 
ATOM     20 CL   UNL     1       1.235  -2.419   0.027  0.00  0.00    -0.080 Cl
ATOM     21 CL   UNL     1       3.917  -0.835  -0.003  0.00  0.00    -0.082 Cl
BRANCH  19  22
ATOM     22  N   UNL     1      -1.200  -0.718   0.051  0.00  0.00    -0.357 N 
ATOM     23  H   UNL     1      -2.047  -0.244   0.059  0.00  0.00    +0.142 HD
ATOM     24  H   UNL     1      -1.188  -1.688   0.053  0.00  0.00    +0.142 HD
ENDBRANCH  19  22
ENDBRANCH   1  15
TORSDOF 3
