REMARK  Name = ZINC49581384
REMARK  7 active torsions:
REMARK  status: ('A' for Active; 'I' for Inactive)
REMARK    1  A    between atoms: C_1  and  C_2
REMARK    2  A    between atoms: C_3  and  C_8
REMARK    3  A    between atoms: C_4  and  C_7
REMARK    4  A    between atoms: C_8  and  C_9
REMARK    5  A    between atoms: C_9  and  N_11
REMARK    6  A    between atoms: N_18  and  C_21
REMARK    7  A    between atoms: C_21  and  C_22
REMARK                            x       y       z     vdW  Elec       q    Type
REMARK                         _______ _______ _______ _____ _____    ______ ____
ROOT
ATOM      1  N   UNL     1       1.642   0.246  -4.293  0.00  0.00    -0.156 NA
ATOM      2  C   UNL     1       2.896   0.404  -4.721  0.00  0.00    +0.163 A 
ATOM      3  N   UNL     1       4.054   0.186  -4.042  0.00  0.00    -0.339 N 
ATOM      4  C   UNL     1       5.252   0.408  -4.662  0.00  0.00    +0.024 A 
ATOM      5  C   UNL     1       5.170   0.838  -5.932  0.00  0.00    -0.004 A 
ATOM      6  S   UNL     1       3.428   0.914  -6.235  0.00  0.00    -0.059 S 
ATOM      7  C   UNL     1       6.308   1.163  -6.842  0.00  0.00    -0.033 C 
ATOM      8  N   UNL     1       7.530   1.300  -6.027  0.00  0.00    +0.386 N 
ATOM      9  C   UNL     1       7.661   0.135  -5.143  0.00  0.00    -0.072 C 
ATOM     10  C   UNL     1       6.619   0.201  -4.022  0.00  0.00    +0.035 C 
ATOM     11  H   UNL     1       4.030  -0.124  -3.124  0.00  0.00    +0.167 HD
ATOM     12  H   UNL     1       7.471   2.140  -5.471  0.00  0.00    -0.081 HD
ENDROOT
BRANCH   1  13
ATOM     13  C   UNL     1       1.411  -0.170  -3.054  0.00  0.00    +0.243 C 
ATOM     14  O   UNL     1       2.342  -0.406  -2.308  0.00  0.00    -0.273 OA
BRANCH  13  15
ATOM     15  C   UNL     1      -0.005  -0.348  -2.571  0.00  0.00    +0.138 C 
BRANCH  15  18
ATOM     16  C   UNL     1      -0.018   1.503   0.010  0.00  0.00    +0.069 C 
ATOM     17  C   UNL     1       0.002  -0.004   0.002  0.00  0.00    +0.084 A 
ATOM     18  C   UNL     1       0.008  -0.824  -1.141  0.00  0.00    +0.026 A 
ATOM     19  C   UNL     1       0.027  -2.108  -0.735  0.00  0.00    +0.138 A 
ATOM     20  O   UNL     1       0.034  -2.119   0.606  0.00  0.00    -0.359 OA
ATOM     21  N   UNL     1       0.023  -0.775   1.052  0.00  0.00    -0.083 NA
ATOM     22  C   UNL     1       0.039  -3.320  -1.631  0.00  0.00    +0.089 C 
ENDBRANCH  15  18
ENDBRANCH  13  15
ENDBRANCH   1  13
BRANCH   8  23
ATOM     23  C   UNL     1       8.701   1.379  -6.910  0.00  0.00    -0.043 C 
BRANCH  23  24
ATOM     24  C   UNL     1       8.627   2.640  -7.732  0.00  0.00    -0.064 A 
ATOM     25  C   UNL     1       7.986   2.630  -8.957  0.00  0.00    +0.002 A 
ATOM     26  C   UNL     1       7.918   3.787  -9.710  0.00  0.00    +0.000 A 
ATOM     27  C   UNL     1       8.490   4.954  -9.239  0.00  0.00    +0.000 A 
ATOM     28  C   UNL     1       9.130   4.964  -8.014  0.00  0.00    +0.000 A 
ATOM     29  C   UNL     1       9.194   3.808  -7.258  0.00  0.00    +0.002 A 
ENDBRANCH  23  24
ENDBRANCH   8  23
TORSDOF 5
