REMARK  Name = ZINC63694425
REMARK  6 active torsions:
REMARK  status: ('A' for Active; 'I' for Inactive)
REMARK    1  A    between atoms: C_1  and  C_2
REMARK    2  A    between atoms: C_11  and  C_15
REMARK    3  A    between atoms: C_15  and  C_16
REMARK    4  A    between atoms: N_18  and  C_19
REMARK    5  A    between atoms: C_19  and  C_20
REMARK    6  A    between atoms: C_20  and  C_21
REMARK                            x       y       z     vdW  Elec       q    Type
REMARK                         _______ _______ _______ _____ _____    ______ ____
ROOT
ATOM      1  C   UNL     1       3.012  -1.677   2.294  0.00  0.00    +0.215 C 
ATOM      2  O   UNL     1       2.795  -0.528   1.973  0.00  0.00    -0.276 OA
ATOM      3  N   UNL     1       4.118  -2.304   1.846  0.00  0.00    -0.315 N 
ATOM      4  H   UNL     1       4.292  -3.223   2.102  0.00  0.00    +0.149 HD
ENDROOT
BRANCH   1   5
ATOM      5  C   UNL     1       2.046  -2.405   3.192  0.00  0.00    +0.119 C 
BRANCH   5  14
ATOM      6  C   UNL     1      -3.295  -3.338   3.859  0.00  0.00    +0.018 C 
ATOM      7  C   UNL     1      -2.009  -3.703   4.603  0.00  0.00    +0.086 C 
ATOM      8  C   UNL     1      -2.118  -3.208   6.036  0.00  0.00    +0.096 C 
ATOM      9  N   UNL     1      -1.592  -1.846   6.182  0.00  0.00    -0.289 NA
ATOM     10  C   UNL     1      -0.159  -1.828   5.858  0.00  0.00    +0.204 C 
ATOM     11  N   UNL     1      -0.034  -2.188   4.421  0.00  0.00    -0.272 N 
ATOM     12  C   UNL     1      -0.845  -3.121   3.866  0.00  0.00    +0.222 C 
ATOM     13  O   UNL     1      -0.618  -3.496   2.736  0.00  0.00    -0.275 OA
ATOM     14  C   UNL     1       0.967  -1.433   3.675  0.00  0.00    +0.097 C 
ATOM     15  C   UNL     1       1.657  -0.301   4.473  0.00  0.00    +0.095 C 
ATOM     16  S   UNL     1       0.444  -0.087   5.870  0.00  0.00    -0.121 S 
ATOM     17  H   UNL     1      -2.102  -1.197   5.602  0.00  0.00    +0.124 HD
ENDBRANCH   5  14
ENDBRANCH   1   5
BRANCH   3  18
ATOM     18  C   UNL     1       5.058  -1.597   0.973  0.00  0.00    +0.108 C 
BRANCH  18  19
ATOM     19  C   UNL     1       6.218  -2.527   0.612  0.00  0.00    +0.052 C 
BRANCH  19  20
ATOM     20  C   UNL     1       7.184  -1.800  -0.287  0.00  0.00    -0.040 C 
ATOM     21  C   UNL     1       8.307  -1.145   0.087  0.00  0.00    -0.001 A 
ATOM     22  C   UNL     1       8.940  -0.921   1.393  0.00  0.00    +0.010 A 
ATOM     23  C   UNL     1      10.088  -0.208   1.452  0.00  0.00    +0.001 A 
ATOM     24  C   UNL     1      10.686   0.322   0.301  0.00  0.00    +0.002 A 
ATOM     25  C   UNL     1      10.165   0.159  -0.933  0.00  0.00    +0.026 A 
ATOM     26  C   UNL     1       8.960  -0.575  -1.113  0.00  0.00    +0.043 A 
ATOM     27  N   UNL     1       8.267  -0.866  -2.188  0.00  0.00    -0.380 N 
ATOM     28  C   UNL     1       7.099  -1.659  -1.790  0.00  0.00    +0.144 C 
ATOM     29  H   UNL     1       8.492  -0.603  -3.094  0.00  0.00    +0.160 HD
ENDBRANCH  19  20
ENDBRANCH  18  19
ENDBRANCH   3  18
TORSDOF 5
