REMARK  Name = ZINC10463385
REMARK  8 active torsions:
REMARK  status: ('A' for Active; 'I' for Inactive)
REMARK    1  A    between atoms: C_1  and  N_48
REMARK    2  A    between atoms: C_2  and  N_48
REMARK    3  A    between atoms: C_3  and  C_4
REMARK    4  A    between atoms: C_3  and  N_48
REMARK    5  A    between atoms: C_4  and  N_5
REMARK    6  A    between atoms: C_16  and  C_18
REMARK    7  A    between atoms: C_19  and  C_20
REMARK    8  A    between atoms: C_23  and  N_26
REMARK                            x       y       z     vdW  Elec       q    Type
REMARK                         _______ _______ _______ _____ _____    ______ ____
ROOT
ATOM      1  N   UNL     1       0.205  -0.298   1.437  0.00  0.00    -0.249 N 
ATOM      2  C   UNL     1       0.284   0.899   2.127  0.00  0.00    +0.168 A 
ATOM      3  N   UNL     1       1.352   1.558   2.515  0.00  0.00    -0.224 NA
ATOM      4  C   UNL     1       1.279   2.727   3.187  0.00  0.00    +0.080 A 
ATOM      5  C   UNL     1       2.344   3.530   3.658  0.00  0.00    +0.030 A 
ATOM      6  C   UNL     1       2.095   4.699   4.328  0.00  0.00    +0.017 A 
ATOM      7  C   UNL     1       0.799   5.136   4.569  0.00  0.00    +0.019 A 
ATOM      8  C   UNL     1      -0.266   4.374   4.122  0.00  0.00    +0.032 A 
ATOM      9  C   UNL     1      -0.026   3.202   3.450  0.00  0.00    +0.042 A 
ATOM     10  S   UNL     1      -1.042   1.946   2.711  0.00  0.00    -0.052 S 
ATOM     11 BR   UNL     1       0.493   6.755   5.497  0.00  0.00    -0.050 Br
ATOM     12  C   UNL     1       1.332  -0.942   1.074  0.00  0.00    +0.245 C 
ATOM     13  O   UNL     1       2.419  -0.471   1.354  0.00  0.00    -0.270 OA
ENDROOT
BRANCH  12  14
ATOM     14  C   UNL     1       1.249  -2.208   0.344  0.00  0.00    +0.068 C 
ATOM     15  C   UNL     1       2.370  -2.783  -0.137  0.00  0.00    +0.013 C 
BRANCH  15  16
ATOM     16  C   UNL     1       3.637  -2.034  -0.146  0.00  0.00    -0.025 A 
ATOM     17  C   UNL     1       3.660  -0.698  -0.558  0.00  0.00    +0.010 A 
ATOM     18  C   UNL     1       4.851  -0.001  -0.558  0.00  0.00    +0.033 A 
ATOM     19  C   UNL     1       6.021  -0.625  -0.162  0.00  0.00    +0.126 A 
ATOM     20  C   UNL     1       6.007  -1.948   0.242  0.00  0.00    +0.033 A 
ATOM     21  C   UNL     1       4.824  -2.656   0.253  0.00  0.00    +0.010 A 
BRANCH  19  22
ATOM     22  N   UNL     1       7.295   0.129  -0.171  0.00  0.00    +0.056 N 
ATOM     23  O   UNL     1       8.328  -0.417   0.177  0.00  0.00    -0.126 OA
ATOM     24  O   UNL     1       7.312   1.294  -0.525  0.00  0.00    -0.126 OA
ENDBRANCH  19  22
ENDBRANCH  15  16
ENDBRANCH  12  14
BRANCH   1  25
ATOM     25  C   UNL     1      -1.103  -0.864   1.100  0.00  0.00    +0.097 C 
BRANCH  25  26
ATOM     26  C   UNL     1      -1.548  -0.341  -0.267  0.00  0.00    -0.060 C 
BRANCH  26  29
ATOM     27  C   UNL     1      -3.429  -0.254  -1.790  0.00  0.00    -0.097 C 
ATOM     28  C   UNL     1      -2.771  -2.363  -0.799  0.00  0.00    -0.097 C 
ATOM     29  N   UNL     1      -2.878  -0.905  -0.583  0.00  0.00    +0.377 N 
ATOM     30  H   UNL     1      -3.510  -0.731   0.207  0.00  0.00    -0.083 HD
ENDBRANCH  26  29
ENDBRANCH  25  26
ENDBRANCH   1  25
TORSDOF 6
