REMARK  Name = ZINC27821012
REMARK  8 active torsions:
REMARK  status: ('A' for Active; 'I' for Inactive)
REMARK    1  A    between atoms: C_1  and  C_2
REMARK    2  A    between atoms: C_5  and  C_8
REMARK    3  A    between atoms: C_8  and  C_10
REMARK    4  A    between atoms: N_21  and  C_22
REMARK    5  A    between atoms: C_24  and  C_30
REMARK    6  A    between atoms: C_24  and  C_31
REMARK    7  A    between atoms: C_26  and  C_28
REMARK    8  A    between atoms: C_26  and  C_29
REMARK                            x       y       z     vdW  Elec       q    Type
REMARK                         _______ _______ _______ _____ _____    ______ ____
ROOT
ATOM      1  C   UNL     1       1.207   2.015  -0.021  0.00  0.00    +0.187 A 
ATOM      2  N   UNL     1       2.304   1.287  -0.090  0.00  0.00    -0.233 NA
ATOM      3  C   UNL     1       3.365   2.086  -0.029  0.00  0.00    +0.131 A 
ATOM      4  C   UNL     1       2.933   3.367   0.093  0.00  0.00    +0.114 A 
ATOM      5  N   UNL     1       1.572   3.330   0.098  0.00  0.00    -0.280 N 
ATOM      6  C   UNL     1       0.711   4.427   0.206  0.00  0.00    +0.161 A 
ATOM      7  C   UNL     1       1.224   5.724   0.177  0.00  0.00    +0.052 A 
ATOM      8  C   UNL     1       0.333   6.777   0.286  0.00  0.00    +0.049 A 
ATOM      9  C   UNL     1      -1.024   6.476   0.418  0.00  0.00    +0.142 A 
ATOM     10  N   UNL     1      -1.419   5.212   0.435  0.00  0.00    -0.132 NA
ATOM     11  N   UNL     1      -0.592   4.236   0.329  0.00  0.00    -0.129 NA
ATOM     12  N   UNL     1      -1.958   7.500   0.531  0.00  0.00    -0.325 N 
ATOM     13  H   UNL     1      -3.027   7.261   0.635  0.00  0.00    +0.148 HD
ENDROOT
BRANCH  12  14
ATOM     14  C   UNL     1      -1.518   8.901   0.512  0.00  0.00    +0.069 C 
ATOM     15  C   UNL     1      -1.120   9.323   1.926  0.00  0.00    +0.009 C 
ATOM     16  C   UNL     1      -0.679  10.784   1.940  0.00  0.00    -0.072 C 
ATOM     17  N   UNL     1      -1.615  11.665   1.273  0.00  0.00    +0.386 N 
ATOM     18  C   UNL     1      -2.251  11.252   0.039  0.00  0.00    -0.072 C 
ATOM     19  C   UNL     1      -2.675   9.786   0.048  0.00  0.00    +0.009 C 
ATOM     20  C   UNL     1      -1.343  11.516  -1.168  0.00  0.00    -0.010 C 
ATOM     21  C   UNL     1      -3.526  12.104  -0.154  0.00  0.00    -0.010 C 
ATOM     22  C   UNL     1       0.724  10.903   1.331  0.00  0.00    -0.010 C 
ATOM     23  C   UNL     1      -0.574  11.224   3.418  0.00  0.00    -0.010 C 
ATOM     24  H   UNL     1      -2.459  11.880   1.945  0.00  0.00    -0.084 HD
ATOM     25  H   UNL     1      -1.109  12.604   1.006  0.00  0.00    -0.084 HD
ENDBRANCH  12  14
BRANCH   1  26
ATOM     26  C   UNL     1      -0.171   1.503  -0.059  0.00  0.00    +0.229 C 
ATOM     27  O   UNL     1      -1.107   2.279  -0.112  0.00  0.00    -0.283 OA
BRANCH  26  32
ATOM     28  C   UNL     1      -1.137  -4.169   0.012  0.00  0.00    +0.044 C 
ATOM     29  C   UNL     1      -0.884  -2.684  -0.007  0.00  0.00    -0.050 A 
ATOM     30  C   UNL     1      -1.950  -1.803   0.055  0.00  0.00    +0.004 A 
ATOM     31  C   UNL     1      -1.725  -0.442   0.039  0.00  0.00    +0.012 A 
ATOM     32  C   UNL     1      -0.419   0.046  -0.041  0.00  0.00    +0.025 A 
ATOM     33  C   UNL     1       0.651  -0.848  -0.109  0.00  0.00    +0.012 A 
ATOM     34  C   UNL     1       0.413  -2.207  -0.085  0.00  0.00    +0.004 A 
ENDBRANCH  26  32
ENDBRANCH   1  26
TORSDOF 3
