REMARK  Name = ZINC40017121
REMARK  5 active torsions:
REMARK  status: ('A' for Active; 'I' for Inactive)
REMARK    1  A    between atoms: C_1  and  C_2
REMARK    2  A    between atoms: C_4  and  N_17
REMARK    3  A    between atoms: N_8  and  C_11
REMARK    4  A    between atoms: N_9  and  C_10
REMARK    5  A    between atoms: C_21  and  C_24
REMARK                            x       y       z     vdW  Elec       q    Type
REMARK                         _______ _______ _______ _____ _____    ______ ____
ROOT
ATOM      1  N   UNL     1       1.504   0.028  -2.041  0.00  0.00    -0.310 N 
ATOM      2  C   UNL     1       1.521  -0.247  -3.377  0.00  0.00    +0.177 C 
ATOM      3  N   UNL     1       0.671  -1.109  -3.948  0.00  0.00    -0.127 NA
ATOM      4  N   UNL     1       0.577  -1.451  -5.153  0.00  0.00    -0.151 NA
ATOM      5  C   UNL     1       1.216  -1.135  -6.253  0.00  0.00    +0.079 C 
ATOM      6  C   UNL     1       2.362  -0.123  -6.168  0.00  0.00    +0.134 C 
ATOM      7  S   UNL     1       2.610   0.476  -4.443  0.00  0.00    -0.083 S 
ATOM      8  H   UNL     1       2.136   0.663  -1.669  0.00  0.00    +0.149 HD
ENDROOT
BRANCH   5   9
ATOM      9  C   UNL     1       0.863  -1.705  -7.468  0.00  0.00    +0.005 C 
ATOM     10  C   UNL     1      -0.159  -2.636  -7.703  0.00  0.00    +0.005 A 
ATOM     11  C   UNL     1      -1.096  -3.255  -6.853  0.00  0.00    +0.010 A 
ATOM     12  C   UNL     1      -1.993  -4.139  -7.366  0.00  0.00    +0.001 A 
ATOM     13  C   UNL     1      -2.011  -4.453  -8.725  0.00  0.00    +0.002 A 
ATOM     14  C   UNL     1      -1.137  -3.894  -9.600  0.00  0.00    +0.026 A 
ATOM     15  C   UNL     1      -0.174  -2.963  -9.136  0.00  0.00    +0.043 A 
ATOM     16  N   UNL     1       0.769  -2.292  -9.773  0.00  0.00    -0.380 N 
ATOM     17  C   UNL     1       1.495  -1.449  -8.818  0.00  0.00    +0.150 C 
ATOM     18  H   UNL     1       0.950  -2.345 -10.724  0.00  0.00    +0.160 HD
ENDBRANCH   5   9
BRANCH   1  21
ATOM     19  C   UNL     1       0.563   1.693  -0.164  0.00  0.00    +0.028 C 
ATOM     20  C   UNL     1       0.253   0.217   0.093  0.00  0.00    +0.102 C 
ATOM     21  C   UNL     1       0.532  -0.635  -1.169  0.00  0.00    +0.179 C 
ATOM     22  C   UNL     1       1.111  -1.907  -0.576  0.00  0.00    +0.256 C 
ATOM     23  O   UNL     1       1.250  -2.965  -1.153  0.00  0.00    -0.272 OA
ATOM     24  N   UNL     1       1.444  -1.654   0.704  0.00  0.00    -0.201 N 
ATOM     25  N   UNL     1       1.204  -0.362   1.070  0.00  0.00    -0.218 NA
ATOM     26  C   UNL     1       2.451   0.413   1.113  0.00  0.00    +0.128 C 
BRANCH  24  27
ATOM     27  C   UNL     1       1.979  -2.615   1.568  0.00  0.00    +0.053 A 
ATOM     28  C   UNL     1       1.462  -2.765   2.848  0.00  0.00    +0.025 A 
ATOM     29  C   UNL     1       1.992  -3.715   3.699  0.00  0.00    +0.002 A 
ATOM     30  C   UNL     1       3.037  -4.516   3.277  0.00  0.00    +0.000 A 
ATOM     31  C   UNL     1       3.555  -4.369   2.003  0.00  0.00    +0.002 A 
ATOM     32  C   UNL     1       3.025  -3.425   1.145  0.00  0.00    +0.025 A 
ENDBRANCH  24  27
ENDBRANCH   1  21
TORSDOF 3
