REMARK  Name = ZINC08487909
REMARK  5 active torsions:
REMARK  status: ('A' for Active; 'I' for Inactive)
REMARK    1  A    between atoms: C_1  and  O_2
REMARK    2  A    between atoms: O_2  and  C_3
REMARK    3  A    between atoms: C_6  and  C_11
REMARK    4  A    between atoms: C_8  and  O_9
REMARK    5  A    between atoms: O_9  and  C_10
REMARK                            x       y       z     vdW  Elec       q    Type
REMARK                         _______ _______ _______ _____ _____    ______ ____
ROOT
ATOM      1  C   UNL     1       2.507  -2.501  -4.386  0.00  0.00    +0.090 C 
ATOM      2  C   UNL     1       1.798  -2.104  -5.647  0.00  0.00    +0.042 A 
ATOM      3  C   UNL     1       0.572  -2.697  -5.985  0.00  0.00    +0.126 A 
ATOM      4  N   UNL     1      -0.048  -2.334  -7.103  0.00  0.00    -0.208 NA
ATOM      5  C   UNL     1       0.475  -1.415  -7.910  0.00  0.00    +0.180 A 
ATOM      6  S   UNL     1      -0.359  -0.977  -9.339  0.00  0.00    -0.011 S 
ATOM      7  N   UNL     1       1.649  -0.823  -7.622  0.00  0.00    -0.322 N 
ATOM      8  C   UNL     1       2.327  -1.165  -6.483  0.00  0.00    +0.110 A 
ATOM      9  N   UNL     1       3.530  -0.574  -6.184  0.00  0.00    -0.304 N 
ATOM     10  C   UNL     1       4.395  -1.160  -5.299  0.00  0.00    +0.017 C 
ATOM     11  C   UNL     1       3.958  -2.090  -4.425  0.00  0.00    +0.024 C 
ATOM     12  C   UNL     1       4.843  -2.708  -3.524  0.00  0.00    +0.162 C 
ATOM     13  O   UNL     1       4.418  -3.538  -2.745  0.00  0.00    -0.292 OA
ATOM     14  C   UNL     1       6.306  -2.360  -3.506  0.00  0.00    +0.080 C 
ATOM     15  C   UNL     1       6.729  -1.906  -4.907  0.00  0.00    +0.014 C 
ATOM     16  C   UNL     1       5.842  -0.735  -5.323  0.00  0.00    +0.051 C 
ATOM     17  N   UNL     1       0.013  -3.651  -5.162  0.00  0.00    -0.343 N 
ATOM     18  H   UNL     1       3.770   0.267  -6.604  0.00  0.00    +0.153 HD
ATOM     19  H   UNL     1      -0.834  -4.059  -5.397  0.00  0.00    +0.144 HD
ATOM     20  H   UNL     1       0.468  -3.914  -4.346  0.00  0.00    +0.144 HD
ATOM     21  H   UNL     1       2.015  -0.154  -8.221  0.00  0.00    +0.169 HD
ENDROOT
BRANCH   1  25
ATOM     22  C   UNL     1       0.606  -0.608  -1.056  0.00  0.00    +0.162 A 
ATOM     23  C   UNL     1       1.173   0.159  -2.062  0.00  0.00    +0.050 A 
ATOM     24  C   UNL     1       1.787  -0.456  -3.137  0.00  0.00    +0.008 A 
ATOM     25  C   UNL     1       1.837  -1.836  -3.212  0.00  0.00    -0.032 A 
ATOM     26  C   UNL     1       1.273  -2.606  -2.212  0.00  0.00    +0.054 A 
ATOM     27  C   UNL     1       0.662  -1.996  -1.129  0.00  0.00    +0.162 A 
BRANCH  22  29
ATOM     28  C   UNL     1      -0.017   1.425   0.010  0.00  0.00    +0.277 C 
ATOM     29  O   UNL     1       0.002  -0.004   0.002  0.00  0.00    -0.491 OA
ENDBRANCH  22  29
BRANCH  27  30
ATOM     30  O   UNL     1       0.112  -2.753  -0.142  0.00  0.00    -0.491 OA
ATOM     31  C   UNL     1       0.206  -4.171  -0.283  0.00  0.00    +0.277 C 
ENDBRANCH  27  30
ENDBRANCH   1  25
TORSDOF 3
