REMARK  Name = ZINC59227746
REMARK  8 active torsions:
REMARK  status: ('A' for Active; 'I' for Inactive)
REMARK    1  A    between atoms: C_1  and  C_2
REMARK    2  A    between atoms: C_3  and  C_28
REMARK    3  A    between atoms: C_4  and  C_10
REMARK    4  A    between atoms: C_13  and  O_16
REMARK    5  A    between atoms: O_16  and  C_17
REMARK    6  A    between atoms: C_17  and  C_18
REMARK    7  A    between atoms: N_30  and  C_31
REMARK    8  A    between atoms: C_31  and  C_32
REMARK                            x       y       z     vdW  Elec       q    Type
REMARK                         _______ _______ _______ _____ _____    ______ ____
ROOT
ATOM      1  C   UNL     1       0.625   1.337   0.004  0.00  0.00    +0.061 C 
ATOM      2  C   UNL     1       0.350  -0.144  -0.001  0.00  0.00    +0.017 C 
ATOM      3  C   UNL     1      -0.925  -0.583  -0.049  0.00  0.00    +0.055 C 
ATOM      4  C   UNL     1      -1.157  -2.080  -0.053  0.00  0.00    +0.139 C 
ATOM      5  N   UNL     1       0.038  -2.940  -0.003  0.00  0.00    -0.315 N 
ATOM      6  C   UNL     1       1.250  -2.352   0.043  0.00  0.00    +0.135 C 
ATOM      7  S   UNL     1       2.647  -3.339   0.101  0.00  0.00    -0.019 S 
ATOM      8  N   UNL     1       1.396  -1.021   0.038  0.00  0.00    -0.300 N 
ATOM      9  H   UNL     1      -0.046  -3.907  -0.002  0.00  0.00    +0.149 HD
ATOM     10  H   UNL     1       2.296  -0.660   0.068  0.00  0.00    +0.154 HD
ENDROOT
BRANCH   4  11
ATOM     11  C   UNL     1      -1.927  -2.429  -1.300  0.00  0.00    -0.022 A 
ATOM     12  C   UNL     1      -1.288  -2.434  -2.527  0.00  0.00    +0.009 A 
ATOM     13  C   UNL     1      -1.992  -2.753  -3.672  0.00  0.00    +0.046 A 
ATOM     14  C   UNL     1      -3.341  -3.068  -3.591  0.00  0.00    +0.121 A 
ATOM     15  C   UNL     1      -3.979  -3.062  -2.359  0.00  0.00    +0.046 A 
ATOM     16  C   UNL     1      -3.270  -2.748  -1.216  0.00  0.00    +0.009 A 
BRANCH  14  17
ATOM     17  O   UNL     1      -4.035  -3.381  -4.716  0.00  0.00    -0.487 OA
BRANCH  17  18
ATOM     18  C   UNL     1      -5.420  -3.695  -4.557  0.00  0.00    +0.265 C 
BRANCH  18  19
ATOM     19  C   UNL     1      -6.021  -4.014  -5.902  0.00  0.00    -0.003 A 
ATOM     20  C   UNL     1      -5.248  -3.978  -7.022  0.00  0.00    +0.007 A 
ATOM     21  C   UNL     1      -5.785  -4.269  -8.274  0.00  0.00    +0.001 A 
ATOM     22  C   UNL     1      -7.099  -4.598  -8.414  0.00  0.00    +0.008 A 
ATOM     23  C   UNL     1      -7.928  -4.646  -7.280  0.00  0.00    -0.018 A 
ATOM     24  C   UNL     1      -7.380  -4.355  -6.006  0.00  0.00    -0.011 A 
ATOM     25  C   UNL     1      -8.208  -4.408  -4.871  0.00  0.00    +0.009 A 
ATOM     26  C   UNL     1      -9.520  -4.742  -5.010  0.00  0.00    +0.001 A 
ATOM     27  C   UNL     1     -10.057  -5.035  -6.263  0.00  0.00    +0.001 A 
ATOM     28  C   UNL     1      -9.289  -4.981  -7.385  0.00  0.00    +0.008 A 
ENDBRANCH  18  19
ENDBRANCH  17  18
ENDBRANCH  14  17
ENDBRANCH   4  11
BRANCH   3  29
ATOM     29  C   UNL     1      -2.011   0.326  -0.095  0.00  0.00    +0.244 C 
ATOM     30  O   UNL     1      -2.670   0.538   0.907  0.00  0.00    -0.270 OA
ATOM     31  N   UNL     1      -2.315   0.956  -1.247  0.00  0.00    -0.307 N 
ATOM     32  H   UNL     1      -1.837   0.734  -2.062  0.00  0.00    +0.149 HD
BRANCH  31  33
ATOM     33  C   UNL     1      -3.366   1.976  -1.269  0.00  0.00    +0.139 C 
BRANCH  33  34
ATOM     34  C   UNL     1      -3.507   2.521  -2.667  0.00  0.00    -0.030 A 
ATOM     35  C   UNL     1      -2.755   3.611  -3.063  0.00  0.00    +0.005 A 
ATOM     36  C   UNL     1      -2.884   4.111  -4.346  0.00  0.00    +0.000 A 
ATOM     37  C   UNL     1      -3.766   3.522  -5.232  0.00  0.00    +0.000 A 
ATOM     38  C   UNL     1      -4.518   2.431  -4.836  0.00  0.00    +0.000 A 
ATOM     39  C   UNL     1      -4.385   1.928  -3.555  0.00  0.00    +0.005 A 
ENDBRANCH  33  34
ENDBRANCH  31  33
ENDBRANCH   3  29
TORSDOF 7
