REMARK  Name = ZINC27103819
REMARK  12 active torsions:
REMARK  status: ('A' for Active; 'I' for Inactive)
REMARK    1  A    between atoms: C_1  and  C_2
REMARK    2  A    between atoms: C_2  and  C_23
REMARK    3  A    between atoms: C_4  and  N_11
REMARK    4  A    between atoms: C_6  and  C_9
REMARK    5  A    between atoms: C_6  and  C_10
REMARK    6  A    between atoms: N_7  and  O_8
REMARK    7  A    between atoms: N_11  and  C_12
REMARK    8  A    between atoms: C_14  and  C_21
REMARK    9  A    between atoms: C_14  and  C_22
REMARK   10  A    between atoms: N_15  and  O_20
REMARK   11  A    between atoms: C_16  and  C_18
REMARK   12  A    between atoms: C_16  and  C_19
REMARK                            x       y       z     vdW  Elec       q    Type
REMARK                         _______ _______ _______ _____ _____    ______ ____
ROOT
ATOM      1  N   UNL     1      -0.006   1.059   2.454  0.00  0.00    +0.383 N 
ATOM      2  H   UNL     1      -0.372   0.048   2.686  0.00  0.00    -0.085 HD
ATOM      3  H   UNL     1       1.073   1.020   2.246  0.00  0.00    -0.085 HD
ENDROOT
BRANCH   1   7
ATOM      4  C   UNL     1      -0.431   3.081  -1.441  0.00  0.00    +0.030 C 
ATOM      5  C   UNL     1      -0.741   1.593  -1.235  0.00  0.00    +0.040 C 
ATOM      6  C   UNL     1      -0.013   1.088   0.008  0.00  0.00    +0.008 C 
ATOM      7  C   UNL     1      -0.716   1.579   1.273  0.00  0.00    -0.068 C 
ATOM      8  C   UNL     1      -2.148   1.046   1.271  0.00  0.00    +0.008 C 
ATOM      9  C   UNL     1      -2.902   1.554   0.044  0.00  0.00    +0.040 C 
ATOM     10  N   UNL     1      -2.169   1.358  -1.189  0.00  0.00    -0.180 NA
ATOM     11  C   UNL     1      -3.269   3.029   0.243  0.00  0.00    +0.030 C 
ATOM     12  C   UNL     1      -4.225   0.762  -0.050  0.00  0.00    +0.030 C 
ATOM     13  C   UNL     1      -0.166   0.834  -2.452  0.00  0.00    +0.030 C 
BRANCH  10  14
ATOM     14  O   UNL     1      -2.861   1.937  -2.341  0.00  0.00    -0.311 OA
ATOM     15  H   UNL     1      -3.952   1.834  -2.435  0.00  0.00    +0.237 HD
ENDBRANCH  10  14
ENDBRANCH   1   7
BRANCH   1  16
ATOM     16  C   UNL     1      -0.230   1.922   3.626  0.00  0.00    -0.068 C 
ATOM     17  C   UNL     1       0.801   3.051   3.624  0.00  0.00    +0.008 C 
ATOM     18  C   UNL     1       0.605   3.951   4.842  0.00  0.00    +0.040 C 
ATOM     19  N   UNL     1       0.504   3.210   6.082  0.00  0.00    -0.180 NA
ATOM     20  C   UNL     1      -0.250   1.974   6.134  0.00  0.00    +0.040 C 
ATOM     21  C   UNL     1      -0.046   1.099   4.901  0.00  0.00    +0.008 C 
ATOM     22  C   UNL     1      -1.746   2.247   6.328  0.00  0.00    +0.030 C 
ATOM     23  C   UNL     1       0.231   1.168   7.361  0.00  0.00    +0.030 C 
ATOM     24  C   UNL     1      -0.623   4.843   4.628  0.00  0.00    +0.030 C 
ATOM     25  C   UNL     1       1.835   4.881   4.935  0.00  0.00    +0.030 C 
BRANCH  19  26
ATOM     26  O   UNL     1       0.220   4.079   7.223  0.00  0.00    -0.311 OA
ATOM     27  H   UNL     1       0.117   3.649   8.230  0.00  0.00    +0.237 HD
ENDBRANCH  19  26
ENDBRANCH   1  16
TORSDOF 4
