REMARK  Name = ZINC20102577
REMARK  9 active torsions:
REMARK  status: ('A' for Active; 'I' for Inactive)
REMARK    1  A    between atoms: C_1  and  O_2
REMARK    2  A    between atoms: O_2  and  C_3
REMARK    3  A    between atoms: C_5  and  C_13
REMARK    4  A    between atoms: C_7  and  O_11
REMARK    5  A    between atoms: C_8  and  O_9
REMARK    6  A    between atoms: O_9  and  C_10
REMARK    7  A    between atoms: O_11  and  C_12
REMARK    8  A    between atoms: C_20  and  O_21
REMARK    9  A    between atoms: C_28  and  C_31
REMARK                            x       y       z     vdW  Elec       q    Type
REMARK                         _______ _______ _______ _____ _____    ______ ____
ROOT
ATOM      1  C   UNL     1      -4.871   0.264   0.038  0.00  0.00    +0.093 C 
ATOM      2  C   UNL     1      -5.681  -0.064  -1.184  0.00  0.00    +0.067 A 
ATOM      3  C   UNL     1      -6.819  -0.824  -1.129  0.00  0.00    +0.126 A 
ATOM      4  N   UNL     1      -7.300  -0.935  -2.382  0.00  0.00    -0.260 N 
ATOM      5  H   UNL     1      -8.098  -1.419  -2.647  0.00  0.00    +0.190 HD
ATOM      6  N   UNL     1      -6.442  -0.222  -3.235  0.00  0.00    -0.134 NA
ATOM      7  C   UNL     1      -5.474   0.297  -2.512  0.00  0.00    +0.237 A 
ATOM      8  N   UNL     1      -7.293  -1.332   0.074  0.00  0.00    -0.303 N 
ATOM      9  C   UNL     1      -6.785  -0.827   1.245  0.00  0.00    +0.017 C 
ATOM     10  C   UNL     1      -5.668  -0.070   1.281  0.00  0.00    +0.024 C 
ATOM     11  C   UNL     1      -5.190   0.451   2.497  0.00  0.00    +0.162 C 
ATOM     12  O   UNL     1      -4.179   1.125   2.497  0.00  0.00    -0.292 OA
ATOM     13  C   UNL     1      -5.900   0.193   3.796  0.00  0.00    +0.088 C 
ATOM     14  C   UNL     1      -7.392  -0.016   3.515  0.00  0.00    +0.039 C 
ATOM     15  C   UNL     1      -7.534  -1.162   2.515  0.00  0.00    +0.060 C 
ATOM     16  H   UNL     1      -7.968  -2.028   0.087  0.00  0.00    +0.153 HD
ENDROOT
BRANCH   1  19
ATOM     17  C   UNL     1      -1.201  -0.638   0.010  0.00  0.00    +0.165 A 
ATOM     18  C   UNL     1      -2.375   0.101   0.019  0.00  0.00    +0.054 A 
ATOM     19  C   UNL     1      -3.598  -0.543   0.028  0.00  0.00    -0.028 A 
ATOM     20  C   UNL     1      -3.657  -1.924   0.027  0.00  0.00    +0.054 A 
ATOM     21  C   UNL     1      -2.488  -2.670   0.017  0.00  0.00    +0.165 A 
ATOM     22  C   UNL     1      -1.256  -2.027   0.003  0.00  0.00    +0.204 A 
BRANCH  17  24
ATOM     23  C   UNL     1      -0.017   1.425   0.010  0.00  0.00    +0.277 C 
ATOM     24  O   UNL     1       0.002  -0.004   0.002  0.00  0.00    -0.491 OA
ENDBRANCH  17  24
BRANCH  22  25
ATOM     25  O   UNL     1      -0.106  -2.755  -0.012  0.00  0.00    -0.488 OA
ATOM     26  C   UNL     1       0.454  -3.109   1.254  0.00  0.00    +0.277 C 
ENDBRANCH  22  25
BRANCH  21  27
ATOM     27  O   UNL     1      -2.547  -4.028   0.017  0.00  0.00    -0.491 OA
ATOM     28  C   UNL     1      -3.847  -4.621   0.026  0.00  0.00    +0.277 C 
ENDBRANCH  21  27
ENDBRANCH   1  19
BRANCH  14  29
ATOM     29  C   UNL     1      -8.106  -0.366   4.795  0.00  0.00    -0.006 A 
ATOM     30  C   UNL     1      -9.123   0.286   5.410  0.00  0.00    +0.011 A 
ATOM     31  C   UNL     1      -9.629  -0.225   6.591  0.00  0.00    +0.008 A 
ATOM     32  C   UNL     1      -9.093  -1.362   7.098  0.00  0.00    +0.045 A 
ATOM     33  S   UNL     1      -7.838  -1.750   5.889  0.00  0.00    -0.101 S 
ENDBRANCH  14  29
BRANCH   7  34
ATOM     34  O   UNL     1      -4.448   1.056  -2.981  0.00  0.00    -0.491 OA
ATOM     35  H   UNL     1      -3.668   0.547  -3.240  0.00  0.00    +0.294 HD
ENDBRANCH   7  34
TORSDOF 6
