REMARK  Name = ZINC08849242
REMARK  9 active torsions:
REMARK  status: ('A' for Active; 'I' for Inactive)
REMARK    1  A    between atoms: C_1  and  C_2
REMARK    2  A    between atoms: C_2  and  C_3
REMARK    3  A    between atoms: C_3  and  C_30
REMARK    4  A    between atoms: N_6  and  N_10
REMARK    5  A    between atoms: C_11  and  C_13
REMARK    6  A    between atoms: C_13  and  N_60
REMARK    7  A    between atoms: N_17  and  S_20
REMARK    8  A    between atoms: S_20  and  C_23
REMARK    9  A    between atoms: C_26  and  C_29
REMARK                            x       y       z     vdW  Elec       q    Type
REMARK                         _______ _______ _______ _____ _____    ______ ____
ROOT
ATOM      1  C   UNL     1      -4.780   0.113   6.732  0.00  0.00    -0.077 C 
ATOM      2  C   UNL     1      -5.048   1.447   7.392  0.00  0.00    -0.001 C 
ATOM      3  C   UNL     1      -6.008   1.254   8.578  0.00  0.00    +0.107 C 
ATOM      4  N   UNL     1      -7.069   0.280   8.255  0.00  0.00    -0.178 NA
ATOM      5  C   UNL     1      -7.741   0.258   6.972  0.00  0.00    +0.091 C 
ATOM      6  C   UNL     1      -6.976  -0.670   5.998  0.00  0.00    -0.061 C 
ATOM      7  N   UNL     1      -5.744  -0.032   5.602  0.00  0.00    +0.386 N 
ATOM      8  H   UNL     1      -5.971   0.906   5.252  0.00  0.00    -0.081 HD
ENDROOT
BRANCH   4   9
ATOM      9  S   UNL     1      -7.509  -0.828   9.404  0.00  0.00    +0.061 S 
ATOM     10  O   UNL     1      -7.156  -0.271  10.662  0.00  0.00    -0.153 OA
ATOM     11  O   UNL     1      -8.837  -1.229   9.094  0.00  0.00    -0.153 OA
BRANCH   9  12
ATOM     12  C   UNL     1      -6.489  -2.247   9.177  0.00  0.00    +0.105 A 
ATOM     13  C   UNL     1      -6.899  -3.266   8.339  0.00  0.00    +0.029 A 
ATOM     14  C   UNL     1      -6.096  -4.377   8.157  0.00  0.00    +0.005 A 
ATOM     15  C   UNL     1      -4.888  -4.472   8.822  0.00  0.00    -0.050 A 
ATOM     16  C   UNL     1      -4.480  -3.455   9.664  0.00  0.00    +0.005 A 
ATOM     17  C   UNL     1      -5.280  -2.342   9.842  0.00  0.00    +0.029 A 
ATOM     18  C   UNL     1      -4.015  -5.685   8.628  0.00  0.00    +0.044 C 
ENDBRANCH   9  12
ENDBRANCH   4   9
BRANCH   7  19
ATOM     19  C   UNL     1      -5.118  -0.800   4.521  0.00  0.00    +0.020 C 
BRANCH  19  21
ATOM     20  N   UNL     1      -3.210  -0.479   2.980  0.00  0.00    -0.225 N 
ATOM     21  C   UNL     1      -3.937  -0.013   4.015  0.00  0.00    +0.213 C 
ATOM     22  O   UNL     1      -3.640   1.040   4.539  0.00  0.00    -0.276 OA
ATOM     23  H   UNL     1      -3.448  -1.321   2.561  0.00  0.00    +0.173 HD
BRANCH  20  27
ATOM     24  C   UNL     1      -0.729   1.579   1.267  0.00  0.00    +0.111 C 
ATOM     25  C   UNL     1      -2.112   0.968   1.368  0.00  0.00    +0.263 C 
ATOM     26  O   UNL     1      -3.029   1.097   0.585  0.00  0.00    -0.271 OA
ATOM     27  N   UNL     1      -2.112   0.252   2.509  0.00  0.00    -0.137 N 
ATOM     28  C   UNL     1      -0.933   0.325   3.137  0.00  0.00    +0.326 C 
ATOM     29  O   UNL     1      -0.690  -0.237   4.187  0.00  0.00    -0.251 OA
ATOM     30  N   UNL     1      -0.045   1.091   2.477  0.00  0.00    -0.284 N 
ATOM     31  C   UNL     1      -0.013   1.086   0.008  0.00  0.00    +0.041 C 
ATOM     32  H   UNL     1       0.866   1.284   2.746  0.00  0.00    +0.151 HD
BRANCH  24  34
ATOM     33  C   UNL     1       0.603   3.693   1.227  0.00  0.00    +0.006 C 
ATOM     34  C   UNL     1      -0.810   3.107   1.274  0.00  0.00    +0.032 C 
ENDBRANCH  24  34
ENDBRANCH  20  27
ENDBRANCH  19  21
ENDBRANCH   7  19
TORSDOF 6
