REMARK  Name = ZINC38576668
REMARK  2 active torsions:
REMARK  status: ('A' for Active; 'I' for Inactive)
REMARK    1  A    between atoms: C_1  and  C_2
REMARK    2  A    between atoms: C_4  and  C_25
REMARK                            x       y       z     vdW  Elec       q    Type
REMARK                         _______ _______ _______ _____ _____    ______ ____
ROOT
ATOM      1  C   UNL     1      -0.272   1.607  -0.699  0.00  0.00    +0.062 C 
ATOM      2  C   UNL     1      -0.195   0.103  -0.737  0.00  0.00    +0.023 C 
ATOM      3  C   UNL     1      -1.167  -0.699  -0.327  0.00  0.00    +0.005 C 
ATOM      4  C   UNL     1      -2.474  -0.248   0.223  0.00  0.00    +0.112 C 
ATOM      5  S   UNL     1      -3.854  -0.643  -0.866  0.00  0.00    -0.139 S 
ATOM      6  C   UNL     1      -3.996  -2.438  -0.850  0.00  0.00    +0.165 C 
ATOM      7  C   UNL     1      -2.801  -3.096  -1.444  0.00  0.00    +0.225 C 
ATOM      8  O   UNL     1      -3.090  -4.020  -2.175  0.00  0.00    -0.275 OA
ATOM      9  N   UNL     1      -1.539  -2.910  -1.360  0.00  0.00    -0.291 N 
ATOM     10  C   UNL     1      -0.688  -2.109  -0.532  0.00  0.00    +0.210 C 
ATOM     11  N   UNL     1       0.658  -1.980  -1.113  0.00  0.00    -0.213 N 
ATOM     12  N   UNL     1       0.894  -0.602  -1.208  0.00  0.00    -0.265 N 
ATOM     13  C   UNL     1       1.488  -2.978  -1.481  0.00  0.00    +0.150 C 
ATOM     14  N   UNL     1       1.139  -4.245  -1.347  0.00  0.00    -0.221 NA
ATOM     15  C   UNL     1       1.939  -5.267  -1.632  0.00  0.00    +0.225 C 
ATOM     16  N   UNL     1       3.252  -5.126  -1.771  0.00  0.00    -0.218 NA
ATOM     17  C   UNL     1       3.719  -3.885  -1.676  0.00  0.00    +0.164 C 
ATOM     18  N   UNL     1       4.828  -3.361  -1.248  0.00  0.00    -0.219 NA
ATOM     19  C   UNL     1       4.689  -2.049  -1.019  0.00  0.00    +0.218 C 
ATOM     20  N   UNL     1       3.547  -1.574  -1.430  0.00  0.00    -0.253 NA
ATOM     21  C   UNL     1       2.845  -2.690  -2.065  0.00  0.00    +0.239 C 
ATOM     22  H   UNL     1      -1.042  -3.434  -2.007  0.00  0.00    +0.151 HD
ATOM     23  H   UNL     1       1.707  -0.201  -1.553  0.00  0.00    +0.170 HD
ENDROOT
BRANCH   4  24
ATOM     24  C   UNL     1      -2.428   1.245   0.426  0.00  0.00    +0.023 A 
ATOM     25  C   UNL     1      -2.864   2.094  -0.576  0.00  0.00    +0.129 A 
ATOM     26  C   UNL     1      -2.821   3.465  -0.388  0.00  0.00    +0.039 A 
ATOM     27  C   UNL     1      -2.343   3.985   0.799  0.00  0.00    +0.004 A 
ATOM     28  C   UNL     1      -1.907   3.138   1.800  0.00  0.00    +0.020 A 
ATOM     29  C   UNL     1      -1.954   1.767   1.616  0.00  0.00    +0.048 A 
ATOM     30 CL   UNL     1      -1.413   0.703   2.877  0.00  0.00    -0.083 Cl
ATOM     31  F   UNL     1      -3.332   1.586  -1.737  0.00  0.00    -0.205 F 
ENDBRANCH   4  24
TORSDOF 1
