REMARK  Name = ZINC40985892
REMARK  10 active torsions:
REMARK  status: ('A' for Active; 'I' for Inactive)
REMARK    1  A    between atoms: C_1  and  O_2
REMARK    2  A    between atoms: O_2  and  C_3
REMARK    3  A    between atoms: C_6  and  C_9
REMARK    4  A    between atoms: C_9  and  C_11
REMARK    5  A    between atoms: C_9  and  N_31
REMARK    6  A    between atoms: C_11  and  N_12
REMARK    7  A    between atoms: C_13  and  C_15
REMARK    8  A    between atoms: C_18  and  S_22
REMARK    9  A    between atoms: S_22  and  C_23
REMARK   10  A    between atoms: C_23  and  C_24
REMARK                            x       y       z     vdW  Elec       q    Type
REMARK                         _______ _______ _______ _____ _____    ______ ____
ROOT
ATOM      1  N   UNL     1       0.734  -1.752  -5.929  0.00  0.00    -0.312 N 
ATOM      2  C   UNL     1      -0.283  -1.887  -6.802  0.00  0.00    +0.248 C 
ATOM      3  O   UNL     1      -0.591  -2.989  -7.213  0.00  0.00    -0.270 OA
ATOM      4  H   UNL     1       0.980  -0.873  -5.601  0.00  0.00    +0.149 HD
ENDROOT
BRANCH   2   5
ATOM      5  C   UNL     1      -1.024  -0.696  -7.260  0.00  0.00    +0.092 A 
ATOM      6  C   UNL     1      -0.681   0.583  -6.803  0.00  0.00    +0.129 A 
ATOM      7  N   UNL     1      -1.367   1.623  -7.237  0.00  0.00    -0.229 NA
ATOM      8  C   UNL     1      -2.370   1.470  -8.093  0.00  0.00    +0.190 A 
ATOM      9  N   UNL     1      -2.727   0.276  -8.550  0.00  0.00    -0.209 NA
ATOM     10  C   UNL     1      -2.086  -0.815  -8.169  0.00  0.00    +0.146 A 
ATOM     11 CL   UNL     1      -2.556  -2.371  -8.777  0.00  0.00    -0.061 Cl
BRANCH   8  12
ATOM     12  S   UNL     1      -3.254   2.893  -8.639  0.00  0.00    -0.081 S 
BRANCH  12  13
ATOM     13  C   UNL     1      -4.504   2.226  -9.771  0.00  0.00    +0.112 C 
BRANCH  13  14
ATOM     14  C   UNL     1      -5.341   3.354 -10.317  0.00  0.00    -0.037 A 
ATOM     15  C   UNL     1      -6.484   3.753  -9.649  0.00  0.00    +0.007 A 
ATOM     16  C   UNL     1      -7.251   4.788 -10.149  0.00  0.00    +0.038 A 
ATOM     17  C   UNL     1      -6.875   5.426 -11.319  0.00  0.00    +0.123 A 
ATOM     18  C   UNL     1      -5.730   5.026 -11.987  0.00  0.00    +0.038 A 
ATOM     19  C   UNL     1      -4.961   3.994 -11.482  0.00  0.00    +0.007 A 
ATOM     20  F   UNL     1      -7.625   6.437 -11.808  0.00  0.00    -0.205 F 
ENDBRANCH  13  14
ENDBRANCH  12  13
ENDBRANCH   8  12
ENDBRANCH   2   5
BRANCH   1  21
ATOM     21  C   UNL     1       1.470  -2.935  -5.474  0.00  0.00    +0.094 C 
BRANCH  21  22
ATOM     22  C   UNL     1       2.476  -2.527  -4.396  0.00  0.00    -0.020 C 
BRANCH  22  23
ATOM     23  N   UNL     1       3.276  -3.695  -4.006  0.00  0.00    +0.385 N 
ATOM     24  C   UNL     1       4.203  -3.315  -2.932  0.00  0.00    -0.078 C 
ATOM     25  C   UNL     1       4.982  -4.546  -2.466  0.00  0.00    -0.019 C 
ATOM     26  C   UNL     1       5.773  -5.120  -3.645  0.00  0.00    -0.004 C 
ATOM     27  C   UNL     1       4.805  -5.444  -4.787  0.00  0.00    -0.019 C 
ATOM     28  C   UNL     1       4.032  -4.179  -5.167  0.00  0.00    -0.078 C 
ATOM     29  H   UNL     1       2.664  -4.426  -3.676  0.00  0.00    -0.081 HD
ENDBRANCH  22  23
BRANCH  22  33
ATOM     30  C   UNL     1       0.381  -1.030  -0.986  0.00  0.00    +0.120 A 
ATOM     31  C   UNL     1       0.945  -0.149  -1.896  0.00  0.00    +0.046 A 
ATOM     32  C   UNL     1       1.622  -0.635  -2.998  0.00  0.00    +0.005 A 
ATOM     33  C   UNL     1       1.737  -1.999  -3.193  0.00  0.00    -0.059 A 
ATOM     34  C   UNL     1       1.175  -2.880  -2.288  0.00  0.00    +0.005 A 
ATOM     35  C   UNL     1       0.503  -2.398  -1.181  0.00  0.00    +0.046 A 
BRANCH  30  37
ATOM     36  C   UNL     1      -0.371   0.865   0.236  0.00  0.00    +0.277 C 
ATOM     37  O   UNL     1      -0.285  -0.555   0.099  0.00  0.00    -0.495 OA
ENDBRANCH  30  37
ENDBRANCH  22  33
ENDBRANCH  21  22
ENDBRANCH   1  21
TORSDOF 9
