REMARK  Name = ZINC37360024
REMARK  7 active torsions:
REMARK  status: ('A' for Active; 'I' for Inactive)
REMARK    1  A    between atoms: C_4  and  O_7
REMARK    2  A    between atoms: O_7  and  C_8
REMARK    3  A    between atoms: C_8  and  C_9
REMARK    4  A    between atoms: C_9  and  N_10
REMARK    5  A    between atoms: C_13  and  C_28
REMARK    6  A    between atoms: C_15  and  N_27
REMARK    7  A    between atoms: N_16  and  C_20
REMARK                            x       y       z     vdW  Elec       q    Type
REMARK                         _______ _______ _______ _____ _____    ______ ____
ROOT
ATOM      1  N   UNL     1       5.979  -1.627   0.793  0.00  0.00    -0.310 N 
ATOM      2  C   UNL     1       7.142  -2.278   1.165  0.00  0.00    +0.218 A 
ATOM      3  N   UNL     1       7.738  -1.904   2.293  0.00  0.00    -0.214 NA
ATOM      4  C   UNL     1       8.856  -2.476   2.724  0.00  0.00    +0.089 A 
ATOM      5  C   UNL     1       9.419  -3.514   1.947  0.00  0.00    +0.086 A 
ATOM      6  C   UNL     1      10.535  -4.336   2.044  0.00  0.00    +0.131 A 
ATOM      7  N   UNL     1      10.535  -5.148   0.968  0.00  0.00    -0.216 N 
ATOM      8  N   UNL     1       9.427  -4.868   0.161  0.00  0.00    -0.144 NA
ATOM      9  C   UNL     1       8.726  -3.896   0.703  0.00  0.00    +0.189 A 
ATOM     10  N   UNL     1       7.595  -3.237   0.384  0.00  0.00    -0.193 NA
ATOM     11  H   UNL     1       5.623  -0.916   1.348  0.00  0.00    +0.149 HD
ENDROOT
BRANCH   4  12
ATOM     12  C   UNL     1       9.495  -2.038   3.983  0.00  0.00    +0.005 A 
ATOM     13  C   UNL     1      10.872  -1.807   4.025  0.00  0.00    +0.014 A 
ATOM     14  C   UNL     1      11.466  -1.398   5.200  0.00  0.00    +0.050 A 
ATOM     15  C   UNL     1      10.701  -1.216   6.343  0.00  0.00    +0.166 A 
ATOM     16  C   UNL     1       9.326  -1.445   6.307  0.00  0.00    +0.167 A 
ATOM     17  C   UNL     1       8.724  -1.849   5.131  0.00  0.00    +0.059 A 
ATOM     18  O   UNL     1       8.810  -1.197   7.547  0.00  0.00    -0.453 OA
ATOM     19  C   UNL     1       9.938  -1.210   8.442  0.00  0.00    +0.466 C 
ATOM     20  O   UNL     1      11.044  -0.825   7.604  0.00  0.00    -0.453 OA
ENDBRANCH   4  12
BRANCH   7  21
ATOM     21  C   UNL     1      11.500  -6.125   0.699  0.00  0.00    +0.068 A 
ATOM     22  C   UNL     1      12.827  -5.908   1.047  0.00  0.00    +0.029 A 
ATOM     23  C   UNL     1      13.777  -6.874   0.781  0.00  0.00    +0.022 A 
ATOM     24  C   UNL     1      13.408  -8.059   0.167  0.00  0.00    +0.041 A 
ATOM     25  C   UNL     1      12.087  -8.277  -0.182  0.00  0.00    +0.022 A 
ATOM     26  C   UNL     1      11.132  -7.317   0.087  0.00  0.00    +0.029 A 
ATOM     27 CL   UNL     1      14.605  -9.271  -0.167  0.00  0.00    -0.084 Cl
ENDBRANCH   7  21
BRANCH   6  28
ATOM     28  N   UNL     1      11.474  -4.323   3.058  0.00  0.00    -0.342 N 
ATOM     29  H   UNL     1      11.309  -3.811   3.865  0.00  0.00    +0.144 HD
ATOM     30  H   UNL     1      12.298  -4.826   2.963  0.00  0.00    +0.144 HD
ENDBRANCH   6  28
BRANCH   1  31
ATOM     31  C   UNL     1       5.287  -2.010  -0.440  0.00  0.00    +0.145 C 
BRANCH  31  32
ATOM     32  C   UNL     1       4.040  -1.142  -0.617  0.00  0.00    +0.247 C 
BRANCH  32  33
ATOM     33  O   UNL     1       4.431   0.219  -0.810  0.00  0.00    -0.490 OA
BRANCH  33  37
ATOM     34  C   UNL     1       1.410   2.978  -1.339  0.00  0.00    +0.000 A 
ATOM     35  C   UNL     1       2.730   3.389  -1.354  0.00  0.00    +0.004 A 
ATOM     36  C   UNL     1       3.743   2.467  -1.177  0.00  0.00    +0.045 A 
ATOM     37  C   UNL     1       3.436   1.128  -0.984  0.00  0.00    +0.121 A 
ATOM     38  C   UNL     1       2.110   0.718  -0.969  0.00  0.00    +0.045 A 
ATOM     39  C   UNL     1       1.100   1.644  -1.146  0.00  0.00    +0.004 A 
ENDBRANCH  33  37
ENDBRANCH  32  33
ENDBRANCH  31  32
ENDBRANCH   1  31
TORSDOF 7
