REMARK  Name = ZINC40408589
REMARK  13 active torsions:
REMARK  status: ('A' for Active; 'I' for Inactive)
REMARK    1  A    between atoms: C_1  and  C_2
REMARK    2  A    between atoms: C_2  and  C_3
REMARK    3  A    between atoms: C_2  and  C_4
REMARK    4  A    between atoms: C_4  and  C_5
REMARK    5  A    between atoms: C_5  and  N_6
REMARK    6  A    between atoms: N_6  and  C_7
REMARK    7  A    between atoms: N_6  and  C_24
REMARK    8  A    between atoms: C_7  and  C_8
REMARK    9  A    between atoms: C_24  and  C_25
REMARK   10  A    between atoms: C_25  and  C_27
REMARK   11  A    between atoms: C_25  and  O_31
REMARK   12  A    between atoms: C_27  and  C_28
REMARK   13  A    between atoms: C_28  and  C_29
REMARK                            x       y       z     vdW  Elec       q    Type
REMARK                         _______ _______ _______ _____ _____    ______ ____
ROOT
ATOM      1  C   UNL     1      -3.657  -1.990  -1.001  0.00  0.00    -0.003 C 
ENDROOT
BRANCH   1   2
ATOM      2  C   UNL     1      -3.759  -0.490  -0.899  0.00  0.00    +0.094 A 
ATOM      3  N   UNL     1      -4.483   0.193  -1.823  0.00  0.00    -0.312 N 
ATOM      4  H   UNL     1      -4.926  -0.295  -2.535  0.00  0.00    +0.170 HD
ATOM      5  C   UNL     1      -4.601   1.532  -1.770  0.00  0.00    +0.260 A 
ATOM      6  O   UNL     1      -5.255   2.131  -2.606  0.00  0.00    -0.267 OA
ATOM      7  C   UNL     1      -3.943   2.243  -0.712  0.00  0.00    +0.075 A 
ATOM      8  C   UNL     1      -3.934   3.687  -0.461  0.00  0.00    -0.023 A 
ATOM      9  C   UNL     1      -3.229   4.112   0.608  0.00  0.00    -0.004 A 
ATOM     10  S   UNL     1      -2.559   2.638   1.336  0.00  0.00    -0.073 S 
ATOM     11  C   UNL     1      -3.220   1.453   0.193  0.00  0.00    +0.116 A 
ATOM     12  N   UNL     1      -3.154   0.129   0.079  0.00  0.00    -0.229 NA
ATOM     13  C   UNL     1      -3.035   5.519   1.081  0.00  0.00    +0.043 C 
ATOM     14  C   UNL     1      -4.397   6.223   1.146  0.00  0.00    +0.005 C 
ATOM     15  C   UNL     1      -4.668   6.872  -0.208  0.00  0.00    +0.001 C 
ATOM     16  C   UNL     1      -4.055   6.029  -1.324  0.00  0.00    +0.005 C 
ATOM     17  C   UNL     1      -4.698   4.648  -1.367  0.00  0.00    +0.037 C 
ENDBRANCH   1   2
BRANCH   1  18
ATOM     18  N   UNL     1      -2.716  -2.487   0.012  0.00  0.00    +0.386 N 
ATOM     19  H   UNL     1      -2.991  -2.148   0.922  0.00  0.00    -0.081 HD
BRANCH  18  20
ATOM     20  C   UNL     1      -1.363  -2.007  -0.300  0.00  0.00    -0.078 C 
BRANCH  20  21
ATOM     21  C   UNL     1      -0.891  -2.631  -1.615  0.00  0.00    -0.016 C 
BRANCH  21  23
ATOM     22  C   UNL     1       0.999  -2.760  -3.244  0.00  0.00    +0.007 C 
ATOM     23  C   UNL     1       0.470  -2.047  -1.998  0.00  0.00    -0.019 C 
ATOM     24  C   UNL     1       0.320  -0.553  -2.289  0.00  0.00    +0.007 C 
ENDBRANCH  21  23
ENDBRANCH  20  21
ENDBRANCH  18  20
BRANCH  18  25
ATOM     25  C   UNL     1      -2.727  -3.956   0.013  0.00  0.00    -0.047 C 
BRANCH  25  26
ATOM     26  C   UNL     1      -1.883  -4.472   1.180  0.00  0.00    +0.098 C 
BRANCH  26  27
ATOM     27  O   UNL     1      -0.510  -4.140   0.958  0.00  0.00    -0.394 OA
ATOM     28  H   UNL     1      -0.140  -4.519   0.149  0.00  0.00    +0.210 HD
ENDBRANCH  26  27
BRANCH  26  29
ATOM     29  C   UNL     1      -2.030  -5.991   1.284  0.00  0.00    +0.033 C 
BRANCH  29  30
ATOM     30  C   UNL     1      -1.287  -6.492   2.524  0.00  0.00    +0.029 C 
BRANCH  30  31
ATOM     31  C   UNL     1      -1.432  -7.989   2.626  0.00  0.00    -0.034 C 
ATOM     32  C   UNL     1      -0.367  -8.746   2.708  0.00  0.00    +0.004 C 
ENDBRANCH  30  31
ENDBRANCH  29  30
ENDBRANCH  26  29
ENDBRANCH  25  26
ENDBRANCH  18  25
ENDBRANCH   1  18
TORSDOF 11
