REMARK  Name = ZINC39530592
REMARK  9 active torsions:
REMARK  status: ('A' for Active; 'I' for Inactive)
REMARK    1  A    between atoms: C_1  and  C_2
REMARK    2  A    between atoms: C_2  and  O_3
REMARK    3  A    between atoms: O_3  and  C_4
REMARK    4  A    between atoms: C_7  and  N_20
REMARK    5  A    between atoms: C_8  and  S_10
REMARK    6  A    between atoms: S_10  and  O_13
REMARK    7  A    between atoms: O_13  and  C_14
REMARK    8  A    between atoms: C_24  and  C_27
REMARK    9  A    between atoms: C_32  and  O_33
REMARK                            x       y       z     vdW  Elec       q    Type
REMARK                         _______ _______ _______ _____ _____    ______ ____
ROOT
ATOM      1  C   UNL     1      -1.488  -2.061  -0.379  0.00  0.00    +0.123 A 
ATOM      2  C   UNL     1      -0.559  -2.820   0.317  0.00  0.00    +0.047 A 
ATOM      3  C   UNL     1      -0.881  -4.098   0.729  0.00  0.00    +0.029 A 
ATOM      4  C   UNL     1      -2.136  -4.623   0.448  0.00  0.00    +0.058 A 
ATOM      5  C   UNL     1      -3.066  -3.861  -0.248  0.00  0.00    +0.152 A 
ATOM      6  C   UNL     1      -2.744  -2.581  -0.655  0.00  0.00    +0.078 A 
ENDROOT
BRANCH   4   7
ATOM      7  N   UNL     1      -2.463  -5.918   0.865  0.00  0.00    -0.331 N 
ATOM      8  C   UNL     1      -2.484  -7.037  -0.089  0.00  0.00    +0.086 C 
ATOM      9  C   UNL     1      -3.815  -7.780   0.062  0.00  0.00    -0.063 C 
ATOM     10  N   UNL     1      -3.996  -8.176   1.465  0.00  0.00    +0.386 N 
ATOM     11  C   UNL     1      -4.112  -6.981   2.311  0.00  0.00    -0.020 C 
ATOM     12  C   UNL     1      -2.790  -6.200   2.271  0.00  0.00    +0.094 C 
ATOM     13  H   UNL     1      -4.835  -8.730   1.551  0.00  0.00    -0.085 HD
ATOM     14  H   UNL     1      -3.203  -8.723   1.764  0.00  0.00    -0.085 HD
BRANCH  11  15
ATOM     15  C   UNL     1      -4.407  -7.397   3.729  0.00  0.00    -0.018 A 
ATOM     16  C   UNL     1      -4.025  -8.647   4.177  0.00  0.00    +0.005 A 
ATOM     17  C   UNL     1      -4.295  -9.028   5.478  0.00  0.00    +0.000 A 
ATOM     18  C   UNL     1      -4.948  -8.160   6.334  0.00  0.00    +0.004 A 
ATOM     19  C   UNL     1      -5.331  -6.909   5.891  0.00  0.00    +0.045 A 
ATOM     20  C   UNL     1      -5.056  -6.522   4.588  0.00  0.00    +0.118 A 
BRANCH  20  21
ATOM     21  O   UNL     1      -5.427  -5.289   4.151  0.00  0.00    -0.507 OA
ATOM     22  H   UNL     1      -6.314  -5.259   3.767  0.00  0.00    +0.292 HD
ENDBRANCH  20  21
ENDBRANCH  11  15
ENDBRANCH   4   7
BRANCH   5  23
ATOM     23  S   UNL     1      -4.658  -4.525  -0.605  0.00  0.00    +0.153 S 
ATOM     24  O   UNL     1      -5.153  -5.072   0.610  0.00  0.00    -0.131 OA
ATOM     25  O   UNL     1      -5.360  -3.527  -1.333  0.00  0.00    -0.131 OA
BRANCH  23  26
ATOM     26  O   UNL     1      -4.454  -5.696  -1.557  0.00  0.00    -0.342 OA
BRANCH  26  27
ATOM     27  C   UNL     1      -4.200  -5.327  -2.840  0.00  0.00    +0.157 A 
ATOM     28  C   UNL     1      -5.248  -5.132  -3.728  0.00  0.00    +0.048 A 
ATOM     29  C   UNL     1      -4.987  -4.757  -5.031  0.00  0.00    +0.004 A 
ATOM     30  C   UNL     1      -3.683  -4.576  -5.452  0.00  0.00    +0.000 A 
ATOM     31  C   UNL     1      -2.636  -4.770  -4.569  0.00  0.00    +0.004 A 
ATOM     32  C   UNL     1      -2.892  -5.139  -3.263  0.00  0.00    +0.048 A 
ENDBRANCH  26  27
ENDBRANCH  23  26
ENDBRANCH   5  23
BRANCH   1  33
ATOM     33  O   UNL     1      -1.170  -0.802  -0.785  0.00  0.00    -0.492 OA
BRANCH  33  35
ATOM     34  C   UNL     1       0.312   1.094  -1.000  0.00  0.00    +0.048 C 
ATOM     35  C   UNL     1       0.140  -0.330  -0.466  0.00  0.00    +0.225 C 
ENDBRANCH  33  35
ENDBRANCH   1  33
TORSDOF 8
