REMARK  Name = ZINC20729965
REMARK  7 active torsions:
REMARK  status: ('A' for Active; 'I' for Inactive)
REMARK    1  A    between atoms: C_1  and  C_2
REMARK    2  A    between atoms: C_2  and  C_4
REMARK    3  A    between atoms: C_2  and  N_12
REMARK    4  A    between atoms: C_4  and  C_5
REMARK    5  A    between atoms: C_5  and  C_6
REMARK    6  A    between atoms: C_13  and  C_15
REMARK    7  A    between atoms: C_18  and  C_21
REMARK                            x       y       z     vdW  Elec       q    Type
REMARK                         _______ _______ _______ _____ _____    ______ ____
ROOT
ATOM      1  C   UNL     1      -5.620   1.286   1.738  0.00  0.00    +0.037 A 
ATOM      2  C   UNL     1      -5.613   2.565   2.300  0.00  0.00    +0.013 A 
ATOM      3  C   UNL     1      -4.511   3.362   2.171  0.00  0.00    +0.009 A 
ATOM      4  C   UNL     1      -3.389   2.897   1.474  0.00  0.00    -0.021 A 
ATOM      5  C   UNL     1      -3.400   1.617   0.907  0.00  0.00    +0.009 A 
ATOM      6  C   UNL     1      -4.501   0.820   1.042  0.00  0.00    +0.013 A 
ENDROOT
BRANCH   4   7
ATOM      7  C   UNL     1      -2.203   3.754   1.334  0.00  0.00    +0.059 C 
ATOM      8  C   UNL     1      -1.066   3.253   0.800  0.00  0.00    +0.191 C 
ATOM      9  C   UNL     1       0.033   4.138   0.352  0.00  0.00    +0.284 C 
ATOM     10  O   UNL     1      -0.179   5.287   0.016  0.00  0.00    -0.266 OA
ATOM     11  N   UNL     1       1.284   3.619   0.331  0.00  0.00    -0.276 N 
ATOM     12  C   UNL     1       1.472   2.293   0.741  0.00  0.00    +0.077 A 
ATOM     13  C   UNL     1       2.751   1.818   0.993  0.00  0.00    +0.027 A 
ATOM     14  C   UNL     1       2.934   0.511   1.401  0.00  0.00    +0.002 A 
ATOM     15  C   UNL     1       1.845  -0.328   1.559  0.00  0.00    +0.004 A 
ATOM     16  C   UNL     1       0.567   0.137   1.310  0.00  0.00    +0.048 A 
ATOM     17  C   UNL     1       0.376   1.446   0.900  0.00  0.00    +0.150 A 
ATOM     18  O   UNL     1      -0.881   1.906   0.646  0.00  0.00    -0.449 OA
ATOM     19  H   UNL     1       2.130   4.236  -0.005  0.00  0.00    +0.155 HD
ENDBRANCH   4   7
BRANCH   1  21
ATOM     20  N   UNL     1      -6.820  -0.809   1.336  0.00  0.00    -0.309 N 
ATOM     21  C   UNL     1      -6.812   0.425   1.878  0.00  0.00    +0.244 C 
ATOM     22  O   UNL     1      -7.787   0.830   2.482  0.00  0.00    -0.270 OA
ATOM     23  H   UNL     1      -5.939  -1.175   0.789  0.00  0.00    +0.149 HD
BRANCH  20  25
ATOM     24  C   UNL     1      -9.005  -1.329   0.368  0.00  0.00    +0.028 C 
ATOM     25  C   UNL     1      -8.003  -1.663   1.475  0.00  0.00    +0.070 C 
BRANCH  25  26
ATOM     26  C   UNL     1      -7.588  -3.131   1.362  0.00  0.00    +0.026 C 
BRANCH  26  27
ATOM     27  C   UNL     1      -6.683  -3.497   2.540  0.00  0.00    +0.037 C 
BRANCH  27  28
ATOM     28  C   UNL     1      -6.275  -4.944   2.429  0.00  0.00    -0.047 A 
ATOM     29  C   UNL     1      -7.045  -5.927   3.021  0.00  0.00    +0.003 A 
ATOM     30  C   UNL     1      -6.673  -7.254   2.914  0.00  0.00    +0.000 A 
ATOM     31  C   UNL     1      -5.525  -7.597   2.225  0.00  0.00    +0.000 A 
ATOM     32  C   UNL     1      -4.751  -6.613   1.638  0.00  0.00    +0.000 A 
ATOM     33  C   UNL     1      -5.126  -5.286   1.740  0.00  0.00    +0.003 A 
ENDBRANCH  27  28
ENDBRANCH  26  27
ENDBRANCH  25  26
ENDBRANCH  20  25
ENDBRANCH   1  21
TORSDOF 6
