REMARK  Name = ZINC50441397
REMARK  4 active torsions:
REMARK  status: ('A' for Active; 'I' for Inactive)
REMARK    1  A    between atoms: C_3  and  O_10
REMARK    2  A    between atoms: C_6  and  C_7
REMARK    3  A    between atoms: O_10  and  C_11
REMARK    4  A    between atoms: C_14  and  N_18
REMARK                            x       y       z     vdW  Elec       q    Type
REMARK                         _______ _______ _______ _____ _____    ______ ____
ROOT
ATOM      1  C   UNL     1      -0.017   1.393   0.010  0.00  0.00    +0.015 A 
ATOM      2  C   UNL     1       1.167   2.096   0.002  0.00  0.00    +0.047 A 
ATOM      3  C   UNL     1       2.380   1.417  -0.013  0.00  0.00    +0.129 A 
ATOM      4  C   UNL     1       2.403   0.027  -0.021  0.00  0.00    +0.047 A 
ATOM      5  C   UNL     1       1.223  -0.682  -0.013  0.00  0.00    +0.015 A 
ATOM      6  C   UNL     1       0.002  -0.004   0.002  0.00  0.00    +0.012 A 
ENDROOT
BRANCH   6   7
ATOM      7  C   UNL     1      -1.266  -0.762   0.011  0.00  0.00    +0.094 C 
ATOM      8  N   UNL     1      -1.246  -2.094   0.003  0.00  0.00    -0.387 N 
ATOM      9  N   UNL     1      -2.430  -0.113   0.026  0.00  0.00    -0.345 N 
ATOM     10  H   UNL     1      -0.399  -2.567  -0.008  0.00  0.00    +0.157 HD
ATOM     11  H   UNL     1      -2.444   0.857   0.031  0.00  0.00    +0.144 HD
ATOM     12  H   UNL     1      -3.263  -0.611   0.031  0.00  0.00    +0.144 HD
ATOM     13  H   UNL     1      -2.079  -2.592   0.009  0.00  0.00    +0.157 HD
ENDBRANCH   6   7
BRANCH   3  14
ATOM     14  O   UNL     1       3.545   2.113  -0.021  0.00  0.00    -0.454 OA
BRANCH  14  15
ATOM     15  C   UNL     1       4.708   1.410  -0.036  0.00  0.00    +0.156 A 
ATOM     16  C   UNL     1       5.312   1.040   1.158  0.00  0.00    +0.063 A 
ATOM     17  C   UNL     1       6.495   0.325   1.140  0.00  0.00    +0.051 A 
ATOM     18  C   UNL     1       7.077  -0.021  -0.066  0.00  0.00    +0.129 A 
ATOM     19  C   UNL     1       6.478   0.347  -1.257  0.00  0.00    +0.051 A 
ATOM     20  C   UNL     1       5.292   1.057  -1.245  0.00  0.00    +0.063 A 
ATOM     21 BR   UNL     1       4.469   1.552  -2.873  0.00  0.00    -0.046 Br
ATOM     22 BR   UNL     1       4.518   1.513   2.807  0.00  0.00    -0.046 Br
BRANCH  18  23
ATOM     23  N   UNL     1       8.345  -0.785  -0.082  0.00  0.00    +0.056 N 
ATOM     24  O   UNL     1       8.870  -1.107   0.958  0.00  0.00    -0.126 OA
ATOM     25  O   UNL     1       8.855  -1.088  -1.136  0.00  0.00    -0.126 OA
ENDBRANCH  18  23
ENDBRANCH  14  15
ENDBRANCH   3  14
TORSDOF 4
