REMARK  Name = ZINC22023467
REMARK  7 active torsions:
REMARK  status: ('A' for Active; 'I' for Inactive)
REMARK    1  A    between atoms: C_1  and  C_2
REMARK    2  A    between atoms: C_5  and  C_26
REMARK    3  A    between atoms: C_6  and  S_8
REMARK    4  A    between atoms: S_8  and  N_11
REMARK    5  A    between atoms: C_15  and  S_22
REMARK    6  A    between atoms: C_19  and  C_21
REMARK    7  A    between atoms: S_22  and  N_25
REMARK                            x       y       z     vdW  Elec       q    Type
REMARK                         _______ _______ _______ _____ _____    ______ ____
ROOT
ATOM      1  N   UNL     1      -0.900   1.593   1.294  0.00  0.00    -0.200 N 
ATOM      2  C   UNL     1      -2.014   2.346   0.912  0.00  0.00    +0.055 A 
ATOM      3  C   UNL     1      -2.983   2.958   1.710  0.00  0.00    +0.027 A 
ATOM      4  C   UNL     1      -4.015   3.665   1.130  0.00  0.00    +0.030 A 
ATOM      5  C   UNL     1      -4.098   3.773  -0.246  0.00  0.00    +0.105 A 
ATOM      6  C   UNL     1      -3.142   3.170  -1.042  0.00  0.00    +0.034 A 
ATOM      7  C   UNL     1      -2.106   2.461  -0.466  0.00  0.00    -0.021 A 
ATOM      8  C   UNL     1      -0.948   1.715  -1.090  0.00  0.00    +0.061 C 
ATOM      9  C   UNL     1      -0.165   1.149   0.106  0.00  0.00    +0.099 C 
ATOM     10  C   UNL     1       1.259   1.710   0.123  0.00  0.00    +0.030 C 
ENDROOT
BRANCH   1  11
ATOM     11  S   UNL     1      -0.473   1.250   2.857  0.00  0.00    +0.075 S 
ATOM     12  O   UNL     1      -1.679   1.206   3.607  0.00  0.00    -0.150 OA
ATOM     13  O   UNL     1       0.430   0.154   2.800  0.00  0.00    -0.150 OA
BRANCH  11  19
ATOM     14  C   UNL     1       1.116   6.217   2.499  0.00  0.00    +0.044 C 
ATOM     15  C   UNL     1       1.142   4.909   3.246  0.00  0.00    -0.049 A 
ATOM     16  C   UNL     1       1.885   4.790   4.406  0.00  0.00    +0.004 A 
ATOM     17  C   UNL     1       1.909   3.590   5.092  0.00  0.00    +0.005 A 
ATOM     18  C   UNL     1       1.189   2.509   4.619  0.00  0.00    -0.024 A 
ATOM     19  C   UNL     1       0.445   2.628   3.460  0.00  0.00    +0.112 A 
ATOM     20  C   UNL     1       0.425   3.826   2.771  0.00  0.00    +0.032 A 
ATOM     21  C   UNL     1       1.214   1.201   5.366  0.00  0.00    +0.046 C 
ENDBRANCH  11  19
ENDBRANCH   1  11
BRANCH   5  22
ATOM     22  S   UNL     1      -5.419   4.678  -0.983  0.00  0.00    +0.056 S 
ATOM     23  O   UNL     1      -5.873   5.602  -0.004  0.00  0.00    -0.153 OA
ATOM     24  O   UNL     1      -4.965   5.087  -2.265  0.00  0.00    -0.153 OA
BRANCH  22  25
ATOM     25  N   UNL     1      -6.660   3.611  -1.238  0.00  0.00    -0.204 NA
ATOM     26  H   UNL     1      -7.508   4.139  -1.699  0.00  0.00    +0.144 HD
ATOM     27  H   UNL     1      -6.975   3.179  -0.277  0.00  0.00    +0.144 HD
ENDBRANCH  22  25
ENDBRANCH   5  22
TORSDOF 4
