REMARK  Name = ZINC24811540
REMARK  10 active torsions:
REMARK  status: ('A' for Active; 'I' for Inactive)
REMARK    1  A    between atoms: C_1  and  C_2
REMARK    2  A    between atoms: C_2  and  N_3
REMARK    3  A    between atoms: C_4  and  C_35
REMARK    4  A    between atoms: C_10  and  C_12
REMARK    5  A    between atoms: N_14  and  N_15
REMARK    6  A    between atoms: C_16  and  C_18
REMARK    7  A    between atoms: C_18  and  N_19
REMARK    8  A    between atoms: C_24  and  C_31
REMARK    9  A    between atoms: C_27  and  C_29
REMARK   10  A    between atoms: C_27  and  C_30
REMARK                            x       y       z     vdW  Elec       q    Type
REMARK                         _______ _______ _______ _____ _____    ______ ____
ROOT
ATOM      1  N   UNL     1       0.066  -4.254  -0.020  0.00  0.00    -0.233 N 
ATOM      2  C   UNL     1      -1.099  -4.932  -0.013  0.00  0.00    +0.247 C 
ATOM      3  O   UNL     1      -2.151  -4.330   0.000  0.00  0.00    -0.273 OA
ATOM      4  H   UNL     1       1.021  -4.800  -0.032  0.00  0.00    +0.173 HD
ENDROOT
BRANCH   1   7
ATOM      5  C   UNL     1       1.225  -2.175  -0.020  0.00  0.00    +0.260 C 
ATOM      6  O   UNL     1       2.280  -2.778  -0.033  0.00  0.00    -0.269 OA
ATOM      7  N   UNL     1       0.060  -2.853  -0.013  0.00  0.00    -0.230 N 
ATOM      8  H   UNL     1      -0.894  -2.307  -0.001  0.00  0.00    +0.173 HD
BRANCH   5  16
ATOM      9  N   UNL     1       1.485   3.418   0.006  0.00  0.00    -0.328 N 
ATOM     10  C   UNL     1       2.842   3.523  -0.005  0.00  0.00    +0.108 A 
ATOM     11  N   UNL     1       3.383   2.341  -0.017  0.00  0.00    -0.233 NA
ATOM     12  C   UNL     1       2.408   1.394  -0.013  0.00  0.00    +0.090 A 
ATOM     13  C   UNL     1       1.176   2.075   0.002  0.00  0.00    +0.069 A 
ATOM     14  C   UNL     1      -0.016   1.361   0.009  0.00  0.00    +0.029 A 
ATOM     15  C   UNL     1       0.002  -0.004   0.002  0.00  0.00    +0.015 A 
ATOM     16  C   UNL     1       1.219  -0.698  -0.013  0.00  0.00    +0.040 A 
ATOM     17  C   UNL     1       2.423   0.001  -0.020  0.00  0.00    +0.043 A 
ATOM     18  C   UNL     1       3.606   4.822  -0.006  0.00  0.00    +0.086 C 
BRANCH   9  20
ATOM     19  C   UNL     1       0.183   4.923  -1.417  0.00  0.00    +0.027 C 
ATOM     20  C   UNL     1       0.529   4.528   0.021  0.00  0.00    +0.120 C 
ENDBRANCH   9  20
ENDBRANCH   5  16
ENDBRANCH   1   7
BRANCH   2  21
ATOM     21  C   UNL     1      -1.093  -6.439  -0.020  0.00  0.00    +0.215 C 
BRANCH  21  22
ATOM     22  N   UNL     1      -2.471  -6.933  -0.010  0.00  0.00    -0.215 N 
ATOM     23  C   UNL     1      -3.199  -7.184  -1.119  0.00  0.00    +0.247 C 
ATOM     24  O   UNL     1      -2.786  -7.212  -2.258  0.00  0.00    -0.273 OA
ATOM     25  C   UNL     1      -4.608  -7.420  -0.631  0.00  0.00    +0.113 C 
ATOM     26  C   UNL     1      -5.171  -8.710  -1.210  0.00  0.00    +0.038 C 
ATOM     27  C   UNL     1      -5.500  -8.516  -2.691  0.00  0.00    -0.011 C 
ATOM     28  C   UNL     1      -6.572  -7.436  -2.817  0.00  0.00    +0.009 C 
ATOM     29  C   UNL     1      -6.073  -6.103  -2.273  0.00  0.00    -0.032 C 
ATOM     30  C   UNL     1      -5.503  -6.223  -0.870  0.00  0.00    +0.041 C 
ATOM     31  C   UNL     1      -7.275  -5.135  -2.220  0.00  0.00    +0.011 C 
ATOM     32  C   UNL     1      -5.039  -5.499  -3.228  0.00  0.00    +0.011 C 
ATOM     33  C   UNL     1      -6.034  -9.831  -3.267  0.00  0.00    +0.007 C 
ATOM     34  N   UNL     1      -4.426  -7.593   0.829  0.00  0.00    -0.285 N 
ATOM     35  C   UNL     1      -3.164  -7.218   1.099  0.00  0.00    +0.310 C 
ATOM     36  O   UNL     1      -2.703  -7.146   2.222  0.00  0.00    -0.252 OA
ATOM     37  H   UNL     1      -5.257  -7.967   1.446  0.00  0.00    +0.151 HD
ENDBRANCH  21  22
ENDBRANCH   2  21
TORSDOF 5
