REMARK  Name = ZINC47253413
REMARK  7 active torsions:
REMARK  status: ('A' for Active; 'I' for Inactive)
REMARK    1  A    between atoms: C_1  and  C_2
REMARK    2  A    between atoms: N_15  and  C_16
REMARK    3  A    between atoms: C_16  and  C_17
REMARK    4  A    between atoms: C_17  and  C_19
REMARK    5  A    between atoms: C_17  and  C_20
REMARK    6  A    between atoms: C_20  and  N_21
REMARK    7  A    between atoms: C_25  and  C_26
REMARK                            x       y       z     vdW  Elec       q    Type
REMARK                         _______ _______ _______ _____ _____    ______ ____
ROOT
ATOM      1  C   UNL     1      -0.018   1.503   0.010  0.00  0.00    +0.069 C 
ATOM      2  C   UNL     1       0.002  -0.004   0.002  0.00  0.00    +0.081 A 
ATOM      3  C   UNL     1       0.008  -0.806  -1.133  0.00  0.00    +0.108 A 
ATOM      4  C   UNL     1       0.028  -2.130  -0.715  0.00  0.00    +0.177 A 
ATOM      5  N   UNL     1       0.041  -3.281  -1.411  0.00  0.00    -0.211 NA
ATOM      6  C   UNL     1       0.060  -4.456  -0.819  0.00  0.00    +0.130 A 
ATOM      7  C   UNL     1       0.067  -4.511   0.650  0.00  0.00    +0.040 A 
ATOM      8  C   UNL     1       0.088  -5.724   1.339  0.00  0.00    +0.013 A 
ATOM      9  C   UNL     1       0.095  -5.724   2.706  0.00  0.00    +0.001 A 
ATOM     10  C   UNL     1       0.081  -4.531   3.414  0.00  0.00    +0.002 A 
ATOM     11  C   UNL     1       0.061  -3.321   2.751  0.00  0.00    +0.028 A 
ATOM     12  C   UNL     1       0.053  -3.300   1.364  0.00  0.00    +0.078 A 
ATOM     13  N   UNL     1       0.034  -2.111   0.654  0.00  0.00    -0.212 N 
ATOM     14  N   UNL     1       0.023  -0.772   1.065  0.00  0.00    -0.168 NA
ATOM     15  N   UNL     1       0.072  -5.617  -1.565  0.00  0.00    -0.328 N 
ATOM     16 CL   UNL     1      -0.008  -0.253  -2.778  0.00  0.00    -0.078 Cl
ATOM     17  H   UNL     1       0.086  -6.479  -1.120  0.00  0.00    +0.147 HD
ENDROOT
BRANCH  15  18
ATOM     18  C   UNL     1       0.064  -5.548  -3.028  0.00  0.00    +0.108 C 
BRANCH  18  19
ATOM     19  C   UNL     1       0.081  -6.965  -3.606  0.00  0.00    +0.023 C 
ATOM     20  C   UNL     1       1.399  -7.649  -3.240  0.00  0.00    +0.011 C 
BRANCH  19  21
ATOM     21  C   UNL     1      -0.054  -6.897  -5.128  0.00  0.00    +0.127 C 
BRANCH  21  22
ATOM     22  N   UNL     1      -0.158  -8.254  -5.670  0.00  0.00    -0.336 N 
ATOM     23  C   UNL     1       0.871  -9.017  -6.153  0.00  0.00    +0.104 A 
ATOM     24  C   UNL     1       0.336 -10.188  -6.547  0.00  0.00    +0.101 A 
ATOM     25  N   UNL     1      -0.984 -10.142  -6.312  0.00  0.00    -0.350 N 
ATOM     26  C   UNL     1      -1.286  -8.988  -5.782  0.00  0.00    +0.084 A 
ATOM     27  C   UNL     1      -2.666  -8.546  -5.368  0.00  0.00    +0.084 C 
ATOM     28  H   UNL     1      -1.613 -10.854  -6.503  0.00  0.00    +0.166 HD
ENDBRANCH  21  22
ENDBRANCH  19  21
ENDBRANCH  18  19
ENDBRANCH  15  18
TORSDOF 4
