REMARK  Name = ZINC12900682
REMARK  10 active torsions:
REMARK  status: ('A' for Active; 'I' for Inactive)
REMARK    1  A    between atoms: C_1  and  C_2
REMARK    2  A    between atoms: C_3  and  C_34
REMARK    3  A    between atoms: C_11  and  O_13
REMARK    4  A    between atoms: O_13  and  C_14
REMARK    5  A    between atoms: C_14  and  C_15
REMARK    6  A    between atoms: N_17  and  C_18
REMARK    7  A    between atoms: C_18  and  C_19
REMARK    8  A    between atoms: N_21  and  C_22
REMARK    9  A    between atoms: C_22  and  C_23
REMARK   10  A    between atoms: C_23  and  C_24
REMARK                            x       y       z     vdW  Elec       q    Type
REMARK                         _______ _______ _______ _____ _____    ______ ____
ROOT
ATOM      1  C   UNL     1      -3.001   4.316   9.143  0.00  0.00    +0.251 C 
ATOM      2  O   UNL     1      -4.188   4.440   8.926  0.00  0.00    -0.272 OA
ATOM      3  N   UNL     1      -2.506   4.604  10.363  0.00  0.00    -0.304 N 
ATOM      4  H   UNL     1      -1.557   4.505  10.537  0.00  0.00    +0.149 HD
ENDROOT
BRANCH   1   5
ATOM      5  C   UNL     1      -2.080   3.839   8.049  0.00  0.00    +0.324 C 
BRANCH   5   6
ATOM      6  O   UNL     1      -2.836   3.602   6.860  0.00  0.00    -0.483 OA
BRANCH   6  17
ATOM      7  C   UNL     1       1.476   1.578   2.433  0.00  0.00    +0.045 C 
ATOM      8  C   UNL     1      -0.013   1.802   2.386  0.00  0.00    -0.030 A 
ATOM      9  C   UNL     1      -0.718   1.572   1.248  0.00  0.00    +0.037 A 
ATOM     10  C   UNL     1      -2.110   1.794   1.228  0.00  0.00    +0.340 A 
ATOM     11  O   UNL     1      -2.729   1.588   0.199  0.00  0.00    -0.245 OA
ATOM     12  O   UNL     1      -2.772   2.222   2.314  0.00  0.00    -0.422 OA
ATOM     13  C   UNL     1      -2.131   2.470   3.477  0.00  0.00    +0.143 A 
ATOM     14  C   UNL     1      -0.740   2.274   3.566  0.00  0.00    +0.021 A 
ATOM     15  C   UNL     1      -0.073   2.530   4.769  0.00  0.00    +0.015 A 
ATOM     16  C   UNL     1      -0.775   2.969   5.854  0.00  0.00    +0.046 A 
ATOM     17  C   UNL     1      -2.152   3.165   5.772  0.00  0.00    +0.125 A 
ATOM     18  C   UNL     1      -2.829   2.917   4.589  0.00  0.00    +0.092 A 
ATOM     19  C   UNL     1      -0.013   1.086   0.008  0.00  0.00    +0.051 C 
ENDBRANCH   6  17
ENDBRANCH   5   6
ENDBRANCH   1   5
BRANCH   3  20
ATOM     20  C   UNL     1      -3.401   5.067  11.426  0.00  0.00    +0.200 C 
BRANCH  20  21
ATOM     21  C   UNL     1      -2.604   5.318  12.680  0.00  0.00    +0.230 C 
ATOM     22  O   UNL     1      -1.406   5.128  12.685  0.00  0.00    -0.274 OA
ATOM     23  N   UNL     1      -3.222   5.753  13.796  0.00  0.00    -0.314 N 
ATOM     24  H   UNL     1      -4.180   5.904  13.792  0.00  0.00    +0.149 HD
BRANCH  23  25
ATOM     25  C   UNL     1      -2.447   5.996  15.015  0.00  0.00    +0.109 C 
BRANCH  25  26
ATOM     26  C   UNL     1      -3.382   6.480  16.126  0.00  0.00    +0.056 C 
BRANCH  26  27
ATOM     27  C   UNL     1      -2.585   6.730  17.380  0.00  0.00    -0.021 A 
ATOM     28  C   UNL     1      -2.408   5.874  18.398  0.00  0.00    +0.087 A 
ATOM     29  N   UNL     1      -1.624   6.448  19.361  0.00  0.00    -0.360 N 
ATOM     30  H   UNL     1      -1.357   6.022  20.190  0.00  0.00    +0.165 HD
ATOM     31  C   UNL     1      -1.274   7.724  18.979  0.00  0.00    +0.047 A 
ATOM     32  C   UNL     1      -1.861   7.957  17.722  0.00  0.00    +0.003 A 
ATOM     33  C   UNL     1      -1.674   9.184  17.082  0.00  0.00    +0.010 A 
ATOM     34  C   UNL     1      -0.921  10.153  17.682  0.00  0.00    +0.001 A 
ATOM     35  C   UNL     1      -0.340   9.929  18.922  0.00  0.00    +0.002 A 
ATOM     36  C   UNL     1      -0.512   8.726  19.571  0.00  0.00    +0.026 A 
ENDBRANCH  26  27
ENDBRANCH  25  26
ENDBRANCH  23  25
ENDBRANCH  20  21
ENDBRANCH   3  20
TORSDOF 8
