REMARK  Name = ZINC52839228
REMARK  4 active torsions:
REMARK  status: ('A' for Active; 'I' for Inactive)
REMARK    1  A    between atoms: C_4  and  C_7
REMARK    2  A    between atoms: C_9  and  C_14
REMARK    3  A    between atoms: C_10  and  N_13
REMARK    4  A    between atoms: N_11  and  N_12
REMARK                            x       y       z     vdW  Elec       q    Type
REMARK                         _______ _______ _______ _____ _____    ______ ____
ROOT
ATOM      1  C   UNL     1       3.691  -0.698  -0.132  0.00  0.00    +0.160 A 
ATOM      2  N   UNL     1       4.854  -0.204  -0.485  0.00  0.00    -0.224 NA
ATOM      3  C   UNL     1       5.816  -1.117  -0.254  0.00  0.00    +0.118 A 
ATOM      4  C   UNL     1       5.213  -2.241   0.274  0.00  0.00    +0.142 A 
ATOM      5  N   UNL     1       3.875  -1.967   0.352  0.00  0.00    -0.234 N 
ENDROOT
BRANCH   3   6
ATOM      6  C   UNL     1       7.263  -0.945  -0.518  0.00  0.00    +0.074 A 
ATOM      7  C   UNL     1       7.972  -1.931  -1.207  0.00  0.00    +0.135 A 
ATOM      8  C   UNL     1       9.323  -1.764  -1.450  0.00  0.00    +0.039 A 
ATOM      9  C   UNL     1       9.972  -0.624  -1.012  0.00  0.00    +0.006 A 
ATOM     10  C   UNL     1       9.276   0.357  -0.328  0.00  0.00    +0.039 A 
ATOM     11  C   UNL     1       7.924   0.206  -0.084  0.00  0.00    +0.135 A 
ATOM     12  F   UNL     1       7.244   1.167   0.579  0.00  0.00    -0.205 F 
ATOM     13  F   UNL     1       7.340  -3.046  -1.634  0.00  0.00    -0.205 F 
ENDBRANCH   3   6
BRANCH   1  17
ATOM     14  C   UNL     1      -0.037   1.315  -0.424  0.00  0.00    +0.000 A 
ATOM     15  C   UNL     1       1.142   2.030  -0.537  0.00  0.00    +0.001 A 
ATOM     16  C   UNL     1       2.356   1.382  -0.443  0.00  0.00    +0.011 A 
ATOM     17  C   UNL     1       2.393   0.002  -0.233  0.00  0.00    +0.019 A 
ATOM     18  C   UNL     1       1.200  -0.713  -0.120  0.00  0.00    +0.011 A 
ATOM     19  C   UNL     1      -0.008  -0.053  -0.217  0.00  0.00    +0.001 A 
ENDBRANCH   1  17
BRANCH   5  20
ATOM     20  N   UNL     1       2.903  -2.804   0.822  0.00  0.00    -0.295 N 
ATOM     21  H   UNL     1       2.526  -3.374   0.080  0.00  0.00    +0.163 HD
ATOM     22  H   UNL     1       3.252  -3.377   1.576  0.00  0.00    +0.163 HD
ENDBRANCH   5  20
BRANCH   4  23
ATOM     23  N   UNL     1       5.843  -3.418   0.656  0.00  0.00    -0.342 N 
ATOM     24  H   UNL     1       6.812  -3.475   0.647  0.00  0.00    +0.144 HD
ATOM     25  H   UNL     1       5.315  -4.184   0.931  0.00  0.00    +0.144 HD
ENDBRANCH   4  23
TORSDOF 4
