REMARK  Name = ZINC39521012
REMARK  8 active torsions:
REMARK  status: ('A' for Active; 'I' for Inactive)
REMARK    1  A    between atoms: C_1  and  C_2
REMARK    2  A    between atoms: C_2  and  O_3
REMARK    3  A    between atoms: O_3  and  C_4
REMARK    4  A    between atoms: N_10  and  C_11
REMARK    5  A    between atoms: C_11  and  C_12
REMARK    6  A    between atoms: C_21  and  S_24
REMARK    7  A    between atoms: S_24  and  O_27
REMARK    8  A    between atoms: O_27  and  C_28
REMARK                            x       y       z     vdW  Elec       q    Type
REMARK                         _______ _______ _______ _____ _____    ______ ____
ROOT
ATOM      1  C   UNL     1       1.387  -1.964  -1.071  0.00  0.00    +0.067 C 
ATOM      2  C   UNL     1       2.254  -2.476  -2.224  0.00  0.00    +0.012 C 
ATOM      3  C   UNL     1       2.360  -4.001  -2.136  0.00  0.00    -0.001 C 
ATOM      4  C   UNL     1       2.929  -4.386  -0.767  0.00  0.00    -0.012 C 
ATOM      5  C   UNL     1       2.038  -3.803   0.332  0.00  0.00    -0.060 C 
ATOM      6  N   UNL     1       1.998  -2.340   0.209  0.00  0.00    +0.403 N 
ATOM      7  C   UNL     1       0.622  -4.366   0.193  0.00  0.00    -0.012 C 
ATOM      8  C   UNL     1       0.665  -5.890   0.321  0.00  0.00    +0.001 C 
ATOM      9  C   UNL     1       1.233  -6.271   1.690  0.00  0.00    +0.030 C 
ATOM     10  C   UNL     1       2.648  -5.708   1.830  0.00  0.00    +0.170 C 
ATOM     11  C   UNL     1       2.605  -4.184   1.702  0.00  0.00    +0.018 C 
ATOM     12  H   UNL     1       2.938  -1.974   0.253  0.00  0.00    -0.077 HD
ENDROOT
BRANCH  10  13
ATOM     13  S   UNL     1       3.322  -6.159   3.452  0.00  0.00    +0.123 S 
ATOM     14  O   UNL     1       4.694  -5.800   3.530  0.00  0.00    -0.136 OA
ATOM     15  O   UNL     1       2.415  -5.784   4.480  0.00  0.00    -0.136 OA
BRANCH  13  16
ATOM     16  O   UNL     1       3.318  -7.681   3.467  0.00  0.00    -0.346 OA
BRANCH  16  17
ATOM     17  C   UNL     1       4.300  -8.244   2.715  0.00  0.00    +0.156 A 
ATOM     18  C   UNL     1       4.070  -8.534   1.378  0.00  0.00    +0.048 A 
ATOM     19  C   UNL     1       5.070  -9.106   0.615  0.00  0.00    +0.004 A 
ATOM     20  C   UNL     1       6.298  -9.389   1.183  0.00  0.00    +0.000 A 
ATOM     21  C   UNL     1       6.529  -9.101   2.516  0.00  0.00    +0.004 A 
ATOM     22  C   UNL     1       5.535  -8.524   3.281  0.00  0.00    +0.048 A 
ENDBRANCH  16  17
ENDBRANCH  13  16
ENDBRANCH  10  13
BRANCH   1  23
ATOM     23  O   UNL     1       1.285  -0.540  -1.149  0.00  0.00    -0.395 OA
BRANCH  23  25
ATOM     24  C   UNL     1       2.295   1.612  -1.583  0.00  0.00    +0.034 C 
ATOM     25  C   UNL     1       2.538   0.124  -1.321  0.00  0.00    +0.154 C 
ENDBRANCH  23  25
ENDBRANCH   1  23
BRANCH   6  26
ATOM     26  C   UNL     1       1.206  -1.780   1.312  0.00  0.00    -0.039 C 
BRANCH  26  27
ATOM     27  C   UNL     1       1.376  -0.282   1.342  0.00  0.00    -0.064 A 
ATOM     28  C   UNL     1       2.579   0.268   1.744  0.00  0.00    +0.002 A 
ATOM     29  C   UNL     1       2.735   1.642   1.772  0.00  0.00    +0.000 A 
ATOM     30  C   UNL     1       1.689   2.464   1.397  0.00  0.00    +0.000 A 
ATOM     31  C   UNL     1       0.486   1.913   0.995  0.00  0.00    +0.000 A 
ATOM     32  C   UNL     1       0.331   0.540   0.963  0.00  0.00    +0.002 A 
ENDBRANCH  26  27
ENDBRANCH   6  26
TORSDOF 7
