REMARK  Name = ZINC12784468
REMARK  9 active torsions:
REMARK  status: ('A' for Active; 'I' for Inactive)
REMARK    1  A    between atoms: C_1  and  C_2
REMARK    2  A    between atoms: C_7  and  C_8
REMARK    3  A    between atoms: C_9  and  C_10
REMARK    4  A    between atoms: N_12  and  C_13
REMARK    5  A    between atoms: N_12  and  C_20
REMARK    6  A    between atoms: C_13  and  C_14
REMARK    7  A    between atoms: C_21  and  N_36
REMARK    8  A    between atoms: N_22  and  C_29
REMARK    9  A    between atoms: C_29  and  C_30
REMARK                            x       y       z     vdW  Elec       q    Type
REMARK                         _______ _______ _______ _____ _____    ______ ____
ROOT
ATOM      1  C   UNL     1       3.599  -2.165  -2.005  0.00  0.00    +0.244 C 
ATOM      2  O   UNL     1       3.836  -2.380  -3.180  0.00  0.00    -0.270 OA
ATOM      3  N   UNL     1       4.066  -1.047  -1.417  0.00  0.00    -0.256 N 
ENDROOT
BRANCH   3   4
ATOM      4  C   UNL     1       4.930  -0.186  -2.125  0.00  0.00    +0.140 A 
ATOM      5  C   UNL     1       6.234  -0.005  -1.713  0.00  0.00    +0.128 A 
ATOM      6  N   UNL     1       7.054   0.837  -2.428  0.00  0.00    -0.276 N 
ATOM      7  C   UNL     1       6.586   1.486  -3.510  0.00  0.00    +0.331 A 
ATOM      8  O   UNL     1       7.325   2.230  -4.125  0.00  0.00    -0.246 OA
ATOM      9  N   UNL     1       5.316   1.326  -3.923  0.00  0.00    -0.273 N 
ATOM     10  H   UNL     1       4.994   1.820  -4.731  0.00  0.00    +0.173 HD
ATOM     11  C   UNL     1       4.474   0.509  -3.262  0.00  0.00    +0.277 A 
ATOM     12  O   UNL     1       3.325   0.371  -3.645  0.00  0.00    -0.266 OA
BRANCH   5  13
ATOM     13  N   UNL     1       6.711  -0.663  -0.604  0.00  0.00    -0.343 N 
ATOM     14  H   UNL     1       6.153  -1.313  -0.149  0.00  0.00    +0.144 HD
ATOM     15  H   UNL     1       7.605  -0.477  -0.277  0.00  0.00    +0.144 HD
ENDBRANCH   5  13
BRANCH   6  16
ATOM     16  C   UNL     1       8.443   1.034  -2.005  0.00  0.00    +0.163 C 
BRANCH  16  17
ATOM     17  C   UNL     1       8.514   2.185  -1.035  0.00  0.00    -0.028 A 
ATOM     18  C   UNL     1       8.723   3.470  -1.501  0.00  0.00    +0.005 A 
ATOM     19  C   UNL     1       8.784   4.526  -0.612  0.00  0.00    +0.000 A 
ATOM     20  C   UNL     1       8.647   4.297   0.744  0.00  0.00    +0.000 A 
ATOM     21  C   UNL     1       8.443   3.012   1.211  0.00  0.00    +0.000 A 
ATOM     22  C   UNL     1       8.377   1.956   0.321  0.00  0.00    +0.005 A 
ENDBRANCH  16  17
ENDBRANCH   6  16
ENDBRANCH   3   4
BRANCH   1  24
ATOM     23  C   UNL     1       2.337  -4.241  -1.820  0.00  0.00    +0.013 C 
ATOM     24  C   UNL     1       2.805  -3.122  -1.232  0.00  0.00    +0.068 C 
BRANCH  23  31
ATOM     25  C   UNL     1       1.332  -6.631  -3.106  0.00  0.00    +0.044 C 
ATOM     26  C   UNL     1       1.048  -6.362  -1.651  0.00  0.00    -0.043 A 
ATOM     27  C   UNL     1       0.306  -7.262  -0.914  0.00  0.00    +0.004 A 
ATOM     28  C   UNL     1       0.039  -7.014   0.421  0.00  0.00    +0.000 A 
ATOM     29  C   UNL     1       0.517  -5.866   1.029  0.00  0.00    +0.001 A 
ATOM     30  C   UNL     1       1.265  -4.960   0.307  0.00  0.00    +0.008 A 
ATOM     31  C   UNL     1       1.540  -5.204  -1.042  0.00  0.00    -0.022 A 
ENDBRANCH  23  31
ENDBRANCH   1  24
BRANCH   3  32
ATOM     32  C   UNL     1       3.678  -0.725  -0.041  0.00  0.00    +0.149 C 
BRANCH  32  33
ATOM     33  C   UNL     1       2.371   0.024  -0.050  0.00  0.00    -0.030 A 
ATOM     34  C   UNL     1       1.176  -0.671  -0.078  0.00  0.00    +0.005 A 
ATOM     35  C   UNL     1      -0.023   0.017  -0.087  0.00  0.00    +0.000 A 
ATOM     36  C   UNL     1      -0.028   1.399  -0.067  0.00  0.00    +0.000 A 
ATOM     37  C   UNL     1       1.167   2.094  -0.038  0.00  0.00    +0.000 A 
ATOM     38  C   UNL     1       2.366   1.406  -0.030  0.00  0.00    +0.005 A 
ENDBRANCH  32  33
ENDBRANCH   3  32
TORSDOF 8
