REMARK  Name = ZINC65256315
REMARK  3 active torsions:
REMARK  status: ('A' for Active; 'I' for Inactive)
REMARK    1  A    between atoms: C_4  and  C_7
REMARK    2  A    between atoms: C_18  and  C_20
REMARK    3  A    between atoms: N_25  and  C_28
REMARK                            x       y       z     vdW  Elec       q    Type
REMARK                         _______ _______ _______ _____ _____    ______ ____
ROOT
ATOM      1  C   UNL     1       4.022  -0.339   0.253  0.00  0.00    -0.023 C 
ATOM      2  C   UNL     1       4.198  -0.900  -1.162  0.00  0.00    +0.095 C 
ATOM      3  N   UNL     1       5.390  -1.762  -1.178  0.00  0.00    -0.318 N 
ATOM      4  C   UNL     1       5.509  -2.799  -0.141  0.00  0.00    +0.087 C 
ATOM      5  C   UNL     1       5.272  -2.148   1.226  0.00  0.00    -0.062 C 
ATOM      6  N   UNL     1       3.982  -1.447   1.216  0.00  0.00    +0.386 N 
ATOM      7  C   UNL     1       6.375  -1.602  -2.145  0.00  0.00    +0.122 A 
ATOM      8  C   UNL     1       6.232  -0.613  -3.118  0.00  0.00    +0.044 A 
ATOM      9  C   UNL     1       7.217  -0.460  -4.076  0.00  0.00    +0.006 A 
ATOM     10  C   UNL     1       8.320  -1.302  -4.036  0.00  0.00    +0.033 A 
ATOM     11  C   UNL     1       8.401  -2.268  -3.038  0.00  0.00    +0.128 A 
ATOM     12  N   UNL     1       7.439  -2.384  -2.129  0.00  0.00    -0.227 NA
ATOM     13  H   UNL     1       3.791  -1.083   2.137  0.00  0.00    -0.085 HD
ATOM     14  H   UNL     1       3.252  -2.092   0.954  0.00  0.00    -0.085 HD
ENDROOT
BRANCH  11  15
ATOM     15  C   UNL     1       9.573  -3.172  -2.986  0.00  0.00    +0.265 C 
ATOM     16  O   UNL     1      10.540  -2.955  -3.690  0.00  0.00    -0.268 OA
ATOM     17  N   UNL     1       9.568  -4.235  -2.158  0.00  0.00    -0.293 N 
ATOM     18  C   UNL     1       8.346  -4.613  -1.434  0.00  0.00    +0.127 C 
ATOM     19  C   UNL     1       8.023  -6.079  -1.750  0.00  0.00    +0.124 C 
ATOM     20  N   UNL     1       9.239  -6.880  -1.555  0.00  0.00    -0.327 N 
ATOM     21  C   UNL     1      10.461  -6.502  -2.278  0.00  0.00    +0.124 C 
ATOM     22  C   UNL     1      10.783  -5.040  -1.966  0.00  0.00    +0.127 C 
BRANCH  20  23
ATOM     23  C   UNL     1       9.234  -7.982  -0.696  0.00  0.00    +0.030 A 
ATOM     24  C   UNL     1       8.110  -8.262   0.070  0.00  0.00    +0.023 A 
ATOM     25  C   UNL     1       8.108  -9.352   0.918  0.00  0.00    +0.002 A 
ATOM     26  C   UNL     1       9.223 -10.165   1.005  0.00  0.00    +0.000 A 
ATOM     27  C   UNL     1      10.344  -9.889   0.243  0.00  0.00    +0.002 A 
ATOM     28  C   UNL     1      10.351  -8.803  -0.611  0.00  0.00    +0.023 A 
ENDBRANCH  20  23
ENDBRANCH  11  15
BRANCH   1  32
ATOM     29  C   UNL     1       0.372   1.869   0.465  0.00  0.00    +0.000 A 
ATOM     30  C   UNL     1       1.575   2.534   0.315  0.00  0.00    +0.000 A 
ATOM     31  C   UNL     1       2.756   1.820   0.246  0.00  0.00    +0.002 A 
ATOM     32  C   UNL     1       2.735   0.440   0.328  0.00  0.00    -0.060 A 
ATOM     33  C   UNL     1       1.532  -0.225   0.479  0.00  0.00    +0.002 A 
ATOM     34  C   UNL     1       0.351   0.489   0.546  0.00  0.00    +0.000 A 
ENDBRANCH   1  32
TORSDOF 3
