REMARK  Name = ZINC02361245
REMARK  5 active torsions:
REMARK  status: ('A' for Active; 'I' for Inactive)
REMARK    1  A    between atoms: C_1  and  N_43
REMARK    2  A    between atoms: C_12  and  C_15
REMARK    3  A    between atoms: C_16  and  O_25
REMARK    4  A    between atoms: C_17  and  O_23
REMARK    5  A    between atoms: O_23  and  C_24
REMARK                            x       y       z     vdW  Elec       q    Type
REMARK                         _______ _______ _______ _____ _____    ______ ____
ROOT
ATOM      1  C   UNL     1      -0.432   4.171   8.297  0.00  0.00    -0.096 C 
ATOM      2  C   UNL     1       1.119   4.867   6.573  0.00  0.00    -0.074 C 
ATOM      3  C   UNL     1       1.778   4.410   5.268  0.00  0.00    +0.018 C 
ATOM      4  C   UNL     1       0.691   4.277   4.207  0.00  0.00    -0.027 A 
ATOM      5  C   UNL     1      -0.609   4.197   4.578  0.00  0.00    -0.021 A 
ATOM      6  S   UNL     1      -1.509   4.059   3.058  0.00  0.00    -0.080 S 
ATOM      7  C   UNL     1      -0.193   4.109   1.962  0.00  0.00    +0.080 A 
ATOM      8  C   UNL     1       0.943   4.227   2.778  0.00  0.00    +0.068 A 
ATOM      9  C   UNL     1       2.263   4.283   2.109  0.00  0.00    +0.248 C 
ATOM     10  O   UNL     1       3.284   4.495   2.738  0.00  0.00    -0.270 OA
ATOM     11  N   UNL     1       2.288   4.089   0.776  0.00  0.00    -0.289 N 
ATOM     12  C   UNL     1       1.147   3.597   0.010  0.00  0.00    +0.195 C 
ATOM     13  N   UNL     1      -0.127   4.057   0.594  0.00  0.00    -0.316 N 
ATOM     14  C   UNL     1      -1.138   4.222   5.977  0.00  0.00    -0.036 C 
ATOM     15  H   UNL     1       3.109   4.286   0.299  0.00  0.00    +0.151 HD
ATOM     16  H   UNL     1      -0.880   4.310   0.037  0.00  0.00    +0.149 HD
ATOM     17  N   UNL     1      -0.004   3.964   6.897  0.00  0.00    +0.381 N 
ATOM     18  H   UNL     1       0.305   2.992   6.783  0.00  0.00    -0.082 HD
ENDROOT
BRANCH  12  19
ATOM     19  C   UNL     1       1.170   2.090   0.002  0.00  0.00    +0.051 A 
ATOM     20  C   UNL     1       2.320   1.413   0.377  0.00  0.00    +0.166 A 
ATOM     21  C   UNL     1       2.339   0.022   0.368  0.00  0.00    +0.163 A 
ATOM     22  C   UNL     1       1.208  -0.682  -0.015  0.00  0.00    +0.065 A 
ATOM     23  C   UNL     1       0.063  -0.001  -0.388  0.00  0.00    +0.036 A 
ATOM     24  C   UNL     1       0.044   1.383  -0.379  0.00  0.00    +0.042 A 
ATOM     25 BR   UNL     1      -1.521   2.308  -0.898  0.00  0.00    -0.049 Br
ATOM     26 BR   UNL     1      -1.479  -0.963  -0.910  0.00  0.00    -0.049 Br
BRANCH  21  27
ATOM     27  O   UNL     1       3.465  -0.646   0.735  0.00  0.00    -0.491 OA
ATOM     28  C   UNL     1       3.412  -2.074   0.703  0.00  0.00    +0.277 C 
ENDBRANCH  21  27
BRANCH  20  29
ATOM     29  O   UNL     1       3.428   2.107   0.751  0.00  0.00    -0.503 OA
ATOM     30  H   UNL     1       4.026   2.317   0.021  0.00  0.00    +0.292 HD
ENDBRANCH  20  29
ENDBRANCH  12  19
TORSDOF 3
