REMARK  Name = ZINC10876407
REMARK  10 active torsions:
REMARK  status: ('A' for Active; 'I' for Inactive)
REMARK    1  A    between atoms: C_1  and  C_2
REMARK    2  A    between atoms: C_3  and  C_32
REMARK    3  A    between atoms: N_9  and  C_29
REMARK    4  A    between atoms: C_10  and  S_12
REMARK    5  A    between atoms: S_12  and  C_13
REMARK    6  A    between atoms: C_13  and  C_14
REMARK    7  A    between atoms: N_19  and  C_20
REMARK    8  A    between atoms: C_26  and  C_28
REMARK    9  A    between atoms: C_29  and  C_30
REMARK   10  A    between atoms: C_29  and  C_31
REMARK                            x       y       z     vdW  Elec       q    Type
REMARK                         _______ _______ _______ _____ _____    ______ ____
ROOT
ATOM      1  S   UNL     1       1.286  -2.537   0.590  0.00  0.00    -0.078 S 
ENDROOT
BRANCH   1  11
ATOM      2  C   UNL     1       1.804   4.341  -0.353  0.00  0.00    +0.045 C 
ATOM      3  C   UNL     1       0.708   3.356  -0.037  0.00  0.00    -0.026 A 
ATOM      4  C   UNL     1      -0.554   3.777   0.135  0.00  0.00    -0.008 A 
ATOM      5  S   UNL     1      -1.450   2.274   0.473  0.00  0.00    -0.073 S 
ATOM      6  C   UNL     1      -0.102   1.123   0.383  0.00  0.00    +0.117 A 
ATOM      7  C   UNL     1       1.006   1.940   0.086  0.00  0.00    +0.075 A 
ATOM      8  C   UNL     1       2.259   1.263  -0.053  0.00  0.00    +0.263 A 
ATOM      9  O   UNL     1       3.273   1.888  -0.311  0.00  0.00    -0.267 OA
ATOM     10  N   UNL     1       2.303  -0.073   0.105  0.00  0.00    -0.285 N 
ATOM     11  C   UNL     1       1.177  -0.789   0.393  0.00  0.00    +0.173 A 
ATOM     12  N   UNL     1       0.011  -0.192   0.526  0.00  0.00    -0.216 NA
ATOM     13  C   UNL     1      -1.087   5.184   0.056  0.00  0.00    +0.052 C 
BRANCH  10  14
ATOM     14  C   UNL     1       3.583  -0.771  -0.035  0.00  0.00    +0.087 C 
ATOM     15  C   UNL     1       4.156  -0.510  -1.430  0.00  0.00    +0.031 C 
ATOM     16  C   UNL     1       4.562  -0.259   1.023  0.00  0.00    +0.031 C 
ENDBRANCH  10  14
ENDBRANCH   1  11
BRANCH   1  17
ATOM     17  C   UNL     1      -0.446  -2.921   0.946  0.00  0.00    +0.173 C 
BRANCH  17  18
ATOM     18  C   UNL     1      -0.598  -4.406   1.157  0.00  0.00    +0.231 C 
ATOM     19  O   UNL     1       0.369  -5.132   1.075  0.00  0.00    -0.274 OA
ATOM     20  N   UNL     1      -1.810  -4.926   1.436  0.00  0.00    -0.239 N 
ATOM     21  C   UNL     1      -1.946  -6.254   1.625  0.00  0.00    +0.306 C 
ATOM     22  O   UNL     1      -0.976  -6.982   1.543  0.00  0.00    -0.252 OA
ATOM     23  N   UNL     1      -3.157  -6.774   1.904  0.00  0.00    -0.296 N 
ATOM     24  H   UNL     1      -2.584  -4.345   1.502  0.00  0.00    +0.159 HD
ATOM     25  H   UNL     1      -3.931  -6.193   1.970  0.00  0.00    +0.151 HD
BRANCH  23  26
ATOM     26  C   UNL     1      -3.305  -8.217   2.109  0.00  0.00    +0.077 C 
ATOM     27  C   UNL     1      -3.482  -8.909   0.756  0.00  0.00    +0.022 C 
ATOM     28  C   UNL     1      -4.732  -8.362   0.064  0.00  0.00    +0.002 C 
ATOM     29  C   UNL     1      -5.959  -8.630   0.939  0.00  0.00    +0.000 C 
ATOM     30  C   UNL     1      -5.781  -7.938   2.292  0.00  0.00    +0.005 C 
ATOM     31  C   UNL     1      -4.531  -8.485   2.984  0.00  0.00    +0.006 C 
ATOM     32  C   UNL     1      -4.353  -7.793   4.337  0.00  0.00    +0.009 C 
ENDBRANCH  23  26
ENDBRANCH  17  18
ENDBRANCH   1  17
TORSDOF 5
