REMARK  Name = ZINC40703414
REMARK  7 active torsions:
REMARK  status: ('A' for Active; 'I' for Inactive)
REMARK    1  A    between atoms: C_1  and  C_2
REMARK    2  A    between atoms: C_7  and  N_8
REMARK    3  A    between atoms: C_10  and  N_25
REMARK    4  A    between atoms: C_11  and  O_15
REMARK    5  A    between atoms: O_15  and  C_16
REMARK    6  A    between atoms: C_18  and  C_24
REMARK    7  A    between atoms: C_20  and  C_22
REMARK                            x       y       z     vdW  Elec       q    Type
REMARK                         _______ _______ _______ _____ _____    ______ ____
ROOT
ATOM      1  N   UNL     1      -0.436  -0.064   2.400  0.00  0.00    -0.298 N 
ATOM      2  C   UNL     1      -0.527  -0.744   3.610  0.00  0.00    +0.151 A 
ATOM      3  C   UNL     1      -0.386  -0.060   4.820  0.00  0.00    +0.128 A 
ATOM      4  C   UNL     1      -0.487  -0.789   6.004  0.00  0.00    +0.246 A 
ATOM      5  N   UNL     1      -0.712  -2.098   5.938  0.00  0.00    -0.199 NA
ATOM      6  C   UNL     1      -0.839  -2.706   4.776  0.00  0.00    +0.227 A 
ATOM      7  N   UNL     1      -0.755  -2.054   3.633  0.00  0.00    -0.218 NA
ATOM      8  H   UNL     1      -0.365   0.903   2.391  0.00  0.00    +0.154 HD
ENDROOT
BRANCH   1  15
ATOM      9  C   UNL     1      -1.439   1.240   0.079  0.00  0.00    +0.046 C 
ATOM     10  C   UNL     1      -0.927  -0.177   0.039  0.00  0.00    -0.028 A 
ATOM     11  C   UNL     1      -0.931  -0.880  -1.150  0.00  0.00    +0.025 A 
ATOM     12  C   UNL     1      -0.461  -2.181  -1.187  0.00  0.00    +0.041 A 
ATOM     13  C   UNL     1       0.014  -2.782  -0.034  0.00  0.00    +0.022 A 
ATOM     14  C   UNL     1       0.020  -2.084   1.157  0.00  0.00    +0.025 A 
ATOM     15  C   UNL     1      -0.446  -0.776   1.197  0.00  0.00    +0.035 A 
ATOM     16 CL   UNL     1      -0.468  -3.062  -2.683  0.00  0.00    -0.084 Cl
ENDBRANCH   1  15
BRANCH   3  17
ATOM     17  N   UNL     1      -0.149   1.323   4.844  0.00  0.00    -0.351 N 
ATOM     18  H   UNL     1      -0.081   1.818   4.012  0.00  0.00    +0.143 HD
ATOM     19  H   UNL     1      -0.053   1.785   5.691  0.00  0.00    +0.143 HD
ENDBRANCH   3  17
BRANCH   4  20
ATOM     20  O   UNL     1      -0.357  -0.173   7.205  0.00  0.00    -0.436 OA
BRANCH  20  21
ATOM     21  C   UNL     1      -0.329  -0.949   8.321  0.00  0.00    +0.131 A 
ATOM     22  C   UNL     1       0.821  -1.652   8.649  0.00  0.00    +0.051 A 
ATOM     23  C   UNL     1       0.848  -2.440   9.783  0.00  0.00    -0.028 A 
ATOM     24  C   UNL     1      -0.271  -2.528  10.592  0.00  0.00    +0.047 A 
ATOM     25  C   UNL     1      -1.419  -1.827  10.267  0.00  0.00    -0.028 A 
ATOM     26  C   UNL     1      -1.448  -1.034   9.136  0.00  0.00    +0.051 A 
ATOM     27  C   UNL     1      -2.637  -1.926  11.149  0.00  0.00    +0.045 C 
ATOM     28 CL   UNL     1      -0.235  -3.519  12.017  0.00  0.00    -0.083 Cl
ATOM     29  C   UNL     1       2.097  -3.204  10.139  0.00  0.00    +0.045 C 
ENDBRANCH  20  21
ENDBRANCH   4  20
TORSDOF 4
