REMARK  Name = ZINC15145089
REMARK  7 active torsions:
REMARK  status: ('A' for Active; 'I' for Inactive)
REMARK    1  A    between atoms: C_6  and  O_27
REMARK    2  A    between atoms: C_7  and  C_11
REMARK    3  A    between atoms: N_13  and  N_14
REMARK    4  A    between atoms: C_15  and  C_16
REMARK    5  A    between atoms: C_19  and  O_22
REMARK    6  A    between atoms: O_22  and  C_23
REMARK    7  A    between atoms: C_23  and  C_24
REMARK                            x       y       z     vdW  Elec       q    Type
REMARK                         _______ _______ _______ _____ _____    ______ ____
ROOT
ATOM      1  C   UNL     1      -3.721   2.070   0.050  0.00  0.00    +0.267 C 
ATOM      2  O   UNL     1      -4.758   1.435   0.057  0.00  0.00    -0.268 OA
ATOM      3  N   UNL     1      -3.754   3.417   0.057  0.00  0.00    -0.203 N 
ATOM      4  H   UNL     1      -2.926   3.923   0.051  0.00  0.00    +0.178 HD
ENDROOT
BRANCH   1  11
ATOM      5  C   UNL     1       2.376   1.436  -0.013  0.00  0.00    +0.001 A 
ATOM      6  C   UNL     1       2.394   0.042  -0.021  0.00  0.00    +0.001 A 
ATOM      7  C   UNL     1       1.238  -0.675  -0.013  0.00  0.00    +0.008 A 
ATOM      8  C   UNL     1       0.002  -0.004   0.002  0.00  0.00    -0.014 A 
ATOM      9  C   UNL     1      -1.208  -0.718   0.010  0.00  0.00    +0.054 A 
ATOM     10  C   UNL     1      -2.395  -0.047   0.026  0.00  0.00    +0.130 A 
ATOM     11  C   UNL     1      -2.425   1.364   0.033  0.00  0.00    +0.080 A 
ATOM     12  C   UNL     1      -1.245   2.091   0.031  0.00  0.00    +0.025 A 
ATOM     13  C   UNL     1      -0.017   1.415   0.010  0.00  0.00    -0.017 A 
ATOM     14  C   UNL     1       1.200   2.121   0.002  0.00  0.00    +0.008 A 
BRANCH  10  15
ATOM     15  O   UNL     1      -3.560  -0.744   0.033  0.00  0.00    -0.506 OA
ATOM     16  H   UNL     1      -3.889  -0.950   0.919  0.00  0.00    +0.292 HD
ENDBRANCH  10  15
ENDBRANCH   1  11
BRANCH   3  17
ATOM     17  N   UNL     1      -4.984   4.087   0.073  0.00  0.00    -0.187 NA
ATOM     18  C   UNL     1      -5.017   5.385   0.080  0.00  0.00    +0.138 C 
BRANCH  18  19
ATOM     19  C   UNL     1      -6.311   6.090   0.096  0.00  0.00    -0.005 A 
ATOM     20  C   UNL     1      -7.505   5.363   0.099  0.00  0.00    +0.013 A 
ATOM     21  C   UNL     1      -8.713   6.026   0.120  0.00  0.00    +0.046 A 
ATOM     22  C   UNL     1      -8.745   7.415   0.127  0.00  0.00    +0.121 A 
ATOM     23  C   UNL     1      -7.561   8.141   0.119  0.00  0.00    +0.046 A 
ATOM     24  C   UNL     1      -6.348   7.487   0.103  0.00  0.00    +0.013 A 
BRANCH  22  25
ATOM     25  O   UNL     1      -9.938   8.065   0.142  0.00  0.00    -0.483 OA
BRANCH  25  26
ATOM     26  C   UNL     1     -11.117   7.257   0.149  0.00  0.00    +0.324 C 
BRANCH  26  27
ATOM     27  C   UNL     1     -12.334   8.145   0.165  0.00  0.00    +0.248 C 
ATOM     28  O   UNL     1     -12.205   9.351   0.169  0.00  0.00    -0.272 OA
ATOM     29  N   UNL     1     -13.566   7.599   0.174  0.00  0.00    -0.327 N 
ATOM     30  H   UNL     1     -13.669   6.634   0.171  0.00  0.00    +0.145 HD
ATOM     31  H   UNL     1     -14.350   8.170   0.184  0.00  0.00    +0.145 HD
ENDBRANCH  26  27
ENDBRANCH  25  26
ENDBRANCH  22  25
ENDBRANCH  18  19
ENDBRANCH   3  17
TORSDOF 7
