REMARK  Name = ZINC08929426
REMARK  12 active torsions:
REMARK  status: ('A' for Active; 'I' for Inactive)
REMARK    1  A    between atoms: C_1  and  C_2
REMARK    2  A    between atoms: C_2  and  N_3
REMARK    3  A    between atoms: C_7  and  C_9
REMARK    4  A    between atoms: C_9  and  C_11
REMARK    5  A    between atoms: C_9  and  S_12
REMARK    6  A    between atoms: S_12  and  C_13
REMARK    7  A    between atoms: C_16  and  C_23
REMARK    8  A    between atoms: N_17  and  C_18
REMARK    9  A    between atoms: C_26  and  C_29
REMARK   10  A    between atoms: C_29  and  C_30
REMARK   11  A    between atoms: C_29  and  C_31
REMARK   12  A    between atoms: C_29  and  C_32
REMARK                            x       y       z     vdW  Elec       q    Type
REMARK                         _______ _______ _______ _____ _____    ______ ____
ROOT
ATOM      1  C   UNL     1      -2.469   0.942   1.183  0.00  0.00    +0.193 A 
ATOM      2  N   UNL     1      -2.639  -0.179   0.517  0.00  0.00    -0.122 NA
ATOM      3  N   UNL     1      -3.780  -0.695   0.804  0.00  0.00    -0.128 NA
ATOM      4  C   UNL     1      -4.413   0.069   1.664  0.00  0.00    +0.165 A 
ATOM      5  N   UNL     1      -3.593   1.140   1.933  0.00  0.00    -0.299 N 
ENDROOT
BRANCH   4   6
ATOM      6  C   UNL     1      -5.755  -0.177   2.235  0.00  0.00    +0.019 A 
ATOM      7  C   UNL     1      -6.054   0.252   3.529  0.00  0.00    +0.012 A 
ATOM      8  C   UNL     1      -7.309   0.023   4.055  0.00  0.00    +0.005 A 
ATOM      9  C   UNL     1      -8.267  -0.637   3.306  0.00  0.00    -0.042 A 
ATOM     10  C   UNL     1      -7.974  -1.069   2.024  0.00  0.00    +0.005 A 
ATOM     11  C   UNL     1      -6.725  -0.843   1.485  0.00  0.00    +0.012 A 
BRANCH   9  12
ATOM     12  C   UNL     1      -9.634  -0.889   3.888  0.00  0.00    -0.013 C 
ATOM     13  C   UNL     1      -9.900  -2.395   3.933  0.00  0.00    +0.015 C 
ATOM     14  C   UNL     1      -9.696  -0.317   5.306  0.00  0.00    +0.015 C 
ATOM     15  C   UNL     1     -10.692  -0.209   3.017  0.00  0.00    +0.015 C 
ENDBRANCH   9  12
ENDBRANCH   4   6
BRANCH   5  16
ATOM     16  C   UNL     1      -3.869   2.260   2.836  0.00  0.00    +0.091 C 
ATOM     17  C   UNL     1      -3.678   3.598   2.092  0.00  0.00    +0.025 C 
ATOM     18  C   UNL     1      -3.052   4.537   3.154  0.00  0.00    +0.002 C 
ATOM     19  C   UNL     1      -2.096   3.594   3.925  0.00  0.00    +0.002 C 
ATOM     20  C   UNL     1      -2.864   2.258   4.002  0.00  0.00    +0.025 C 
ENDBRANCH   5  16
BRANCH   1  21
ATOM     21  S   UNL     1      -1.058   1.994   1.116  0.00  0.00    -0.073 S 
BRANCH  21  22
ATOM     22  C   UNL     1      -0.036   1.076  -0.061  0.00  0.00    +0.137 C 
ATOM     23  C   UNL     1      -0.725   1.055  -1.427  0.00  0.00    +0.029 C 
BRANCH  22  28
ATOM     24  N   UNL     1       4.617   0.961  -1.265  0.00  0.00    -0.299 N 
ATOM     25  C   UNL     1       3.564   1.651  -0.782  0.00  0.00    +0.306 C 
ATOM     26  O   UNL     1       3.700   2.812  -0.448  0.00  0.00    -0.252 OA
ATOM     27  N   UNL     1       2.361   1.054  -0.670  0.00  0.00    -0.239 N 
ATOM     28  C   UNL     1       1.309   1.744  -0.187  0.00  0.00    +0.233 C 
ATOM     29  O   UNL     1       1.444   2.901   0.146  0.00  0.00    -0.274 OA
ATOM     30  H   UNL     1       4.508   0.035  -1.532  0.00  0.00    +0.150 HD
ATOM     31  H   UNL     1       2.253   0.127  -0.937  0.00  0.00    +0.159 HD
BRANCH  24  33
ATOM     32  C   UNL     1       6.937   0.615  -1.957  0.00  0.00    +0.024 C 
ATOM     33  C   UNL     1       5.924   1.610  -1.387  0.00  0.00    +0.102 C 
ENDBRANCH  24  33
ENDBRANCH  22  28
ENDBRANCH  21  22
ENDBRANCH   1  21
TORSDOF 7
