REMARK  Name = ZINC39663777
REMARK  13 active torsions:
REMARK  status: ('A' for Active; 'I' for Inactive)
REMARK    1  A    between atoms: C_1  and  C_2
REMARK    2  A    between atoms: C_2  and  C_4
REMARK    3  A    between atoms: C_2  and  O_34
REMARK    4  A    between atoms: C_8  and  C_17
REMARK    5  A    between atoms: N_19  and  C_20
REMARK    6  A    between atoms: C_20  and  C_21
REMARK    7  A    between atoms: C_21  and  C_23
REMARK    8  A    between atoms: C_21  and  N_31
REMARK    9  A    between atoms: C_26  and  O_29
REMARK   10  A    between atoms: O_29  and  C_30
REMARK   11  A    between atoms: N_31  and  C_32
REMARK   12  A    between atoms: N_31  and  C_33
REMARK   13  A    between atoms: O_34  and  C_35
REMARK                            x       y       z     vdW  Elec       q    Type
REMARK                         _______ _______ _______ _____ _____    ______ ____
ROOT
ATOM      1  C   UNL     1       2.208  -0.751   1.549  0.00  0.00    +0.256 C 
ATOM      2  O   UNL     1       1.584  -1.255   2.459  0.00  0.00    -0.272 OA
ATOM      3  N   UNL     1       3.514  -0.456   1.710  0.00  0.00    -0.297 N 
ATOM      4  C   UNL     1       4.455   0.081   0.699  0.00  0.00    +0.121 C 
ATOM      5  C   UNL     1       5.319   1.101   1.473  0.00  0.00    +0.100 C 
ATOM      6  C   UNL     1       5.236   0.652   2.941  0.00  0.00    -0.004 C 
ATOM      7  C   UNL     1       4.330  -0.588   2.940  0.00  0.00    +0.115 C 
ATOM      8  C   UNL     1       4.614   1.752   3.796  0.00  0.00    -0.010 C 
ATOM      9  C   UNL     1       4.594   1.304   5.260  0.00  0.00    -0.082 C 
ATOM     10  N   UNL     1       5.965   1.026   5.707  0.00  0.00    +0.379 N 
ATOM     11  C   UNL     1       6.523  -0.095   4.941  0.00  0.00    -0.082 C 
ATOM     12  C   UNL     1       6.624   0.293   3.464  0.00  0.00    -0.010 C 
ATOM     13  H   UNL     1       6.536   1.845   5.566  0.00  0.00    -0.086 HD
ATOM     14  H   UNL     1       5.956   0.790   6.688  0.00  0.00    -0.086 HD
ENDROOT
BRANCH   5  15
ATOM     15  C   UNL     1       4.759   2.491   1.314  0.00  0.00    +0.218 C 
ATOM     16  O   UNL     1       3.559   2.665   1.317  0.00  0.00    -0.275 OA
ATOM     17  N   UNL     1       5.591   3.541   1.169  0.00  0.00    -0.316 N 
ATOM     18  H   UNL     1       6.551   3.402   1.166  0.00  0.00    +0.149 HD
BRANCH  17  19
ATOM     19  C   UNL     1       5.047   4.892   1.015  0.00  0.00    +0.093 C 
BRANCH  19  20
ATOM     20  C   UNL     1       6.187   5.873   0.736  0.00  0.00    -0.021 C 
BRANCH  20  21
ATOM     21  C   UNL     1       6.838   5.526  -0.578  0.00  0.00    -0.059 A 
ATOM     22  C   UNL     1       6.255   5.928  -1.765  0.00  0.00    +0.005 A 
ATOM     23  C   UNL     1       6.849   5.611  -2.971  0.00  0.00    +0.046 A 
ATOM     24  C   UNL     1       8.033   4.889  -2.990  0.00  0.00    +0.120 A 
ATOM     25  C   UNL     1       8.617   4.487  -1.798  0.00  0.00    +0.046 A 
ATOM     26  C   UNL     1       8.021   4.811  -0.594  0.00  0.00    +0.005 A 
BRANCH  24  27
ATOM     27  O   UNL     1       8.620   4.575  -4.175  0.00  0.00    -0.495 OA
ATOM     28  C   UNL     1       9.838   3.829  -4.119  0.00  0.00    +0.277 C 
ENDBRANCH  24  27
ENDBRANCH  20  21
BRANCH  20  29
ATOM     29  N   UNL     1       5.652   7.240   0.672  0.00  0.00    +0.382 N 
ATOM     30  C   UNL     1       5.035   7.585   1.960  0.00  0.00    -0.096 C 
ATOM     31  C   UNL     1       6.744   8.180   0.385  0.00  0.00    -0.096 C 
ATOM     32  H   UNL     1       4.959   7.296  -0.059  0.00  0.00    -0.082 HD
ENDBRANCH  20  29
ENDBRANCH  19  20
ENDBRANCH  17  19
ENDBRANCH   5  15
BRANCH   1  34
ATOM     33  C   UNL     1       1.387   1.058   0.065  0.00  0.00    +0.062 C 
ATOM     34  C   UNL     1       1.525  -0.456   0.239  0.00  0.00    +0.256 C 
BRANCH  34  35
ATOM     35  O   UNL     1       0.229  -1.057   0.232  0.00  0.00    -0.480 OA
BRANCH  35  36
ATOM     36  C   UNL     1      -0.307  -1.355  -0.981  0.00  0.00    +0.122 A 
ATOM     37  C   UNL     1       0.351  -0.978  -2.143  0.00  0.00    +0.045 A 
ATOM     38  C   UNL     1      -0.195  -1.283  -3.374  0.00  0.00    +0.004 A 
ATOM     39  C   UNL     1      -1.397  -1.962  -3.450  0.00  0.00    +0.000 A 
ATOM     40  C   UNL     1      -2.055  -2.339  -2.294  0.00  0.00    +0.004 A 
ATOM     41  C   UNL     1      -1.510  -2.042  -1.060  0.00  0.00    +0.045 A 
ENDBRANCH  35  36
ENDBRANCH  34  35
ENDBRANCH   1  34
TORSDOF 9
