REMARK  Name = ZINC04150830
REMARK  4 active torsions:
REMARK  status: ('A' for Active; 'I' for Inactive)
REMARK    1  A    between atoms: C_4  and  C_7
REMARK    2  A    between atoms: C_13  and  C_15
REMARK    3  A    between atoms: N_17  and  N_18
REMARK    4  A    between atoms: C_19  and  C_20
REMARK                            x       y       z     vdW  Elec       q    Type
REMARK                         _______ _______ _______ _____ _____    ______ ____
ROOT
ATOM      1  C   UNL     1      -4.452   1.084   0.229  0.00  0.00    +0.245 C 
ATOM      2  O   UNL     1      -4.238   1.749  -0.763  0.00  0.00    -0.273 OA
ATOM      3  N   UNL     1      -4.676   1.691   1.411  0.00  0.00    -0.206 N 
ATOM      4  H   UNL     1      -4.848   1.160   2.205  0.00  0.00    +0.177 HD
ENDROOT
BRANCH   1  10
ATOM      5  C   UNL     1      -5.893  -0.930  -0.169  0.00  0.00    +0.057 C 
ATOM      6  C   UNL     1      -5.859  -1.045  -1.709  0.00  0.00    +0.113 C 
ATOM      7  N   UNL     1      -4.446  -1.237  -2.057  0.00  0.00    -0.314 N 
ATOM      8  C   UNL     1      -3.641  -0.888  -1.039  0.00  0.00    +0.226 C 
ATOM      9  O   UNL     1      -2.430  -0.941  -1.061  0.00  0.00    -0.275 OA
ATOM     10  C   UNL     1      -4.466  -0.420   0.140  0.00  0.00    +0.171 C 
ATOM     11  H   UNL     1      -4.134  -1.572  -2.912  0.00  0.00    +0.149 HD
BRANCH   5  15
ATOM     12  C   UNL     1      -8.834   1.901   1.088  0.00  0.00    +0.000 A 
ATOM     13  C   UNL     1      -8.708   0.695   1.751  0.00  0.00    +0.000 A 
ATOM     14  C   UNL     1      -7.756  -0.222   1.344  0.00  0.00    +0.004 A 
ATOM     15  C   UNL     1      -6.931   0.069   0.274  0.00  0.00    -0.042 A 
ATOM     16  C   UNL     1      -7.053   1.278  -0.385  0.00  0.00    +0.004 A 
ATOM     17  C   UNL     1      -8.008   2.192   0.019  0.00  0.00    +0.000 A 
ENDBRANCH   5  15
ENDBRANCH   1  10
BRANCH   3  18
ATOM     18  N   UNL     1      -4.663   3.090   1.495  0.00  0.00    -0.188 NA
ATOM     19  C   UNL     1      -4.760   3.672   2.650  0.00  0.00    +0.138 C 
BRANCH  19  20
ATOM     20  C   UNL     1      -4.340   2.961   3.872  0.00  0.00    -0.004 A 
ATOM     21  C   UNL     1      -3.570   1.798   3.777  0.00  0.00    +0.011 A 
ATOM     22  C   UNL     1      -3.185   1.135   4.923  0.00  0.00    +0.022 A 
ATOM     23  C   UNL     1      -3.551   1.623   6.166  0.00  0.00    +0.059 A 
ATOM     24  C   UNL     1      -4.310   2.778   6.268  0.00  0.00    +0.060 A 
ATOM     25  C   UNL     1      -4.706   3.449   5.128  0.00  0.00    +0.031 A 
ATOM     26 CL   UNL     1      -4.763   3.382   7.831  0.00  0.00    -0.082 Cl
ATOM     27 CL   UNL     1      -3.055   0.785   7.604  0.00  0.00    -0.082 Cl
ENDBRANCH  19  20
ENDBRANCH   3  18
TORSDOF 4
