REMARK  Name = ZINC22698904
REMARK  7 active torsions:
REMARK  status: ('A' for Active; 'I' for Inactive)
REMARK    1  A    between atoms: C_1  and  N_2
REMARK    2  A    between atoms: C_4  and  C_11
REMARK    3  A    between atoms: N_13  and  N_14
REMARK    4  A    between atoms: C_15  and  C_17
REMARK    5  A    between atoms: C_22  and  N_23
REMARK    6  A    between atoms: N_23  and  S_24
REMARK    7  A    between atoms: S_24  and  C_27
REMARK                            x       y       z     vdW  Elec       q    Type
REMARK                         _______ _______ _______ _____ _____    ______ ____
ROOT
ATOM      1  N   UNL     1       0.316  -1.813  -5.544  0.00  0.00    -0.230 N 
ATOM      2  C   UNL     1       0.581  -2.175  -4.273  0.00  0.00    +0.262 C 
ATOM      3  O   UNL     1      -0.325  -2.511  -3.535  0.00  0.00    -0.269 OA
ATOM      4  H   UNL     1       1.135  -1.509  -6.212  0.00  0.00    +0.173 HD
ENDROOT
BRANCH   2   5
ATOM      5  C   UNL     1       1.969  -2.162  -3.778  0.00  0.00    +0.060 A 
ATOM      6  C   UNL     1       3.014  -1.776  -4.622  0.00  0.00    +0.015 A 
ATOM      7  C   UNL     1       4.309  -1.766  -4.153  0.00  0.00    +0.001 A 
ATOM      8  C   UNL     1       4.583  -2.137  -2.846  0.00  0.00    +0.002 A 
ATOM      9  C   UNL     1       3.562  -2.515  -1.998  0.00  0.00    +0.025 A 
ATOM     10  C   UNL     1       2.250  -2.537  -2.455  0.00  0.00    +0.060 A 
BRANCH  10  11
ATOM     11  N   UNL     1       1.222  -2.923  -1.605  0.00  0.00    -0.216 N 
ATOM     12  H   UNL     1       0.368  -3.494  -2.000  0.00  0.00    +0.174 HD
BRANCH  11  13
ATOM     13  S   UNL     1       1.281  -2.525   0.001  0.00  0.00    +0.072 S 
ATOM     14  O   UNL     1       2.533  -2.989   0.488  0.00  0.00    -0.150 OA
ATOM     15  O   UNL     1       0.044  -2.936   0.567  0.00  0.00    -0.150 OA
BRANCH  13  16
ATOM     16  C   UNL     1       1.322  -0.766   0.101  0.00  0.00    +0.109 A 
ATOM     17  C   UNL     1       0.141  -0.052   0.177  0.00  0.00    +0.031 A 
ATOM     18  C   UNL     1       0.172   1.328   0.257  0.00  0.00    +0.040 A 
ATOM     19  C   UNL     1       1.385   1.994   0.258  0.00  0.00    +0.124 A 
ATOM     20  C   UNL     1       2.567   1.277   0.181  0.00  0.00    +0.040 A 
ATOM     21  C   UNL     1       2.534  -0.103   0.102  0.00  0.00    +0.031 A 
ATOM     22  F   UNL     1       1.417   3.342   0.335  0.00  0.00    -0.205 F 
ENDBRANCH  13  16
ENDBRANCH  11  13
ENDBRANCH  10  11
ENDBRANCH   2   5
BRANCH   1  25
ATOM     23  C   UNL     1      -1.269  -1.464  -7.287  0.00  0.00    +0.262 C 
ATOM     24  O   UNL     1      -0.362  -1.127  -8.025  0.00  0.00    -0.269 OA
ATOM     25  N   UNL     1      -1.004  -1.825  -6.015  0.00  0.00    -0.230 N 
ATOM     26  H   UNL     1      -1.823  -2.130  -5.348  0.00  0.00    +0.173 HD
BRANCH  23  30
ATOM     27  C   UNL     1      -6.233  -2.008  -7.442  0.00  0.00    +0.149 C 
ATOM     28  N   UNL     1      -4.862  -1.713  -7.867  0.00  0.00    -0.349 N 
ATOM     29  C   UNL     1      -3.767  -1.827  -7.077  0.00  0.00    +0.099 A 
ATOM     30  C   UNL     1      -2.652  -1.476  -7.780  0.00  0.00    +0.063 A 
ATOM     31  C   UNL     1      -3.110  -1.107  -9.132  0.00  0.00    +0.012 A 
ATOM     32  C   UNL     1      -4.504  -1.281  -9.127  0.00  0.00    +0.050 A 
ATOM     33  C   UNL     1      -5.229  -1.010 -10.282  0.00  0.00    +0.026 A 
ATOM     34  C   UNL     1      -4.578  -0.581 -11.419  0.00  0.00    +0.002 A 
ATOM     35  C   UNL     1      -3.201  -0.416 -11.424  0.00  0.00    +0.001 A 
ATOM     36  C   UNL     1      -2.465  -0.678 -10.289  0.00  0.00    +0.011 A 
ENDBRANCH  23  30
ENDBRANCH   1  25
TORSDOF 6
