REMARK  Name = ZINC12183791
REMARK  8 active torsions:
REMARK  status: ('A' for Active; 'I' for Inactive)
REMARK    1  A    between atoms: N_9  and  C_10
REMARK    2  A    between atoms: C_10  and  C_11
REMARK    3  A    between atoms: C_11  and  C_12
REMARK    4  A    between atoms: C_12  and  N_13
REMARK    5  A    between atoms: C_14  and  C_16
REMARK    6  A    between atoms: C_16  and  O_17
REMARK    7  A    between atoms: O_17  and  C_18
REMARK    8  A    between atoms: N_27  and  C_30
REMARK                            x       y       z     vdW  Elec       q    Type
REMARK                         _______ _______ _______ _____ _____    ______ ____
ROOT
ATOM      1  C   UNL     1       1.043  -0.717  -0.991  0.00  0.00    +0.235 A 
ATOM      2  C   UNL     1       2.256  -0.031  -1.008  0.00  0.00    +0.072 A 
ATOM      3  C   UNL     1       2.225   1.337  -1.218  0.00  0.00    +0.051 A 
ATOM      4  C   UNL     1       0.982   1.943  -1.399  0.00  0.00    +0.144 A 
ATOM      5  N   UNL     1      -0.119   1.209  -1.366  0.00  0.00    -0.131 NA
ATOM      6  N   UNL     1      -0.089  -0.059  -1.172  0.00  0.00    -0.110 NA
ATOM      7  N   UNL     1       0.899   3.317  -1.614  0.00  0.00    -0.311 N 
ATOM      8  C   UNL     1       1.547   4.061  -0.525  0.00  0.00    +0.125 C 
ATOM      9  C   UNL     1       1.505   5.558  -0.837  0.00  0.00    +0.125 C 
ATOM     10  N   UNL     1       0.107   5.982  -1.002  0.00  0.00    -0.314 N 
ATOM     11  C   UNL     1      -0.541   5.239  -2.091  0.00  0.00    +0.125 C 
ATOM     12  C   UNL     1      -0.498   3.741  -1.779  0.00  0.00    +0.125 C 
ENDROOT
BRANCH  10  13
ATOM     13  C   UNL     1       0.025   7.353  -1.216  0.00  0.00    +0.099 A 
ATOM     14  C   UNL     1       0.583   8.231  -0.292  0.00  0.00    +0.042 A 
ATOM     15  C   UNL     1       0.493   9.592  -0.518  0.00  0.00    +0.005 A 
ATOM     16  C   UNL     1      -0.153  10.033  -1.665  0.00  0.00    +0.018 A 
ATOM     17  C   UNL     1      -0.684   9.106  -2.540  0.00  0.00    +0.084 A 
ATOM     18  N   UNL     1      -0.609   7.761  -2.353  0.00  0.00    -0.350 N 
ATOM     19  H   UNL     1      -1.006   7.094  -3.026  0.00  0.00    +0.166 HD
ENDBRANCH  10  13
BRANCH   1  20
ATOM     20  O   UNL     1       1.024  -2.060  -0.788  0.00  0.00    -0.466 OA
BRANCH  20  21
ATOM     21  C   UNL     1      -0.256  -2.697  -0.782  0.00  0.00    +0.326 C 
BRANCH  21  23
ATOM     22  N   UNL     1      -1.157  -4.982  -0.498  0.00  0.00    -0.312 N 
ATOM     23  C   UNL     1      -0.080  -4.174  -0.545  0.00  0.00    +0.251 C 
ATOM     24  O   UNL     1       1.032  -4.636  -0.395  0.00  0.00    -0.272 OA
ATOM     25  H   UNL     1      -2.046  -4.613  -0.618  0.00  0.00    +0.149 HD
BRANCH  22  26
ATOM     26  C   UNL     1      -0.986  -6.419  -0.268  0.00  0.00    +0.106 C 
BRANCH  26  27
ATOM     27  C   UNL     1      -2.356  -7.101  -0.261  0.00  0.00    +0.037 C 
BRANCH  27  28
ATOM     28  C   UNL     1      -2.177  -8.601  -0.020  0.00  0.00    +0.106 C 
BRANCH  28  37
ATOM     29  C   UNL     1      -6.118  -7.450   2.808  0.00  0.00    +0.000 A 
ATOM     30  C   UNL     1      -4.797  -7.562   3.201  0.00  0.00    +0.002 A 
ATOM     31  C   UNL     1      -3.868  -8.139   2.362  0.00  0.00    +0.023 A 
ATOM     32  C   UNL     1      -4.255  -8.616   1.110  0.00  0.00    +0.033 A 
ATOM     33  C   UNL     1      -5.584  -8.495   0.722  0.00  0.00    -0.025 A 
ATOM     34  C   UNL     1      -6.509  -7.918   1.566  0.00  0.00    +0.005 A 
ATOM     35  C   UNL     1      -5.719  -9.080  -0.670  0.00  0.00    +0.056 C 
ATOM     36  C   UNL     1      -4.253  -9.149  -1.157  0.00  0.00    +0.110 C 
ATOM     37  N   UNL     1      -3.495  -9.237   0.110  0.00  0.00    -0.329 N 
ENDBRANCH  28  37
ENDBRANCH  27  28
ENDBRANCH  26  27
ENDBRANCH  22  26
ENDBRANCH  21  23
ENDBRANCH  20  21
ENDBRANCH   1  20
TORSDOF 8
