REMARK  Name = ZINC09306524
REMARK  13 active torsions:
REMARK  status: ('A' for Active; 'I' for Inactive)
REMARK    1  A    between atoms: C_1  and  C_2
REMARK    2  A    between atoms: C_3  and  C_15
REMARK    3  A    between atoms: C_9  and  O_14
REMARK    4  A    between atoms: C_11  and  O_13
REMARK    5  A    between atoms: C_15  and  C_16
REMARK    6  A    between atoms: N_18  and  C_19
REMARK    7  A    between atoms: C_19  and  C_20
REMARK    8  A    between atoms: C_20  and  C_22
REMARK    9  A    between atoms: C_20  and  C_29
REMARK   10  A    between atoms: C_22  and  C_23
REMARK   11  A    between atoms: N_25  and  C_26
REMARK   12  A    between atoms: C_26  and  C_27
REMARK   13  A    between atoms: C_26  and  C_28
REMARK                            x       y       z     vdW  Elec       q    Type
REMARK                         _______ _______ _______ _____ _____    ______ ____
ROOT
ATOM      1  C   UNL     1       5.268   4.613  -1.340  0.00  0.00    +0.218 C 
ATOM      2  O   UNL     1       4.608   4.226  -2.282  0.00  0.00    -0.275 OA
ATOM      3  N   UNL     1       6.390   5.329  -1.552  0.00  0.00    -0.314 N 
ATOM      4  H   UNL     1       6.918   5.638  -0.800  0.00  0.00    +0.149 HD
ENDROOT
BRANCH   1   5
ATOM      5  C   UNL     1       4.833   4.293   0.067  0.00  0.00    +0.138 C 
BRANCH   5   8
ATOM      6  C   UNL     1       4.938   1.416  -0.038  0.00  0.00    +0.045 C 
ATOM      7  C   UNL     1       3.612   2.132  -0.021  0.00  0.00    -0.026 A 
ATOM      8  C   UNL     1       3.559   3.489   0.028  0.00  0.00    +0.049 A 
ATOM      9  C   UNL     1       2.311   4.143   0.043  0.00  0.00    +0.341 A 
ATOM     10  O   UNL     1       2.272   5.359   0.088  0.00  0.00    -0.245 OA
ATOM     11  O   UNL     1       1.163   3.445   0.009  0.00  0.00    -0.422 OA
ATOM     12  C   UNL     1       1.172   2.094  -0.041  0.00  0.00    +0.146 A 
ATOM     13  C   UNL     1       2.397   1.401  -0.058  0.00  0.00    +0.062 A 
ATOM     14  C   UNL     1       2.405  -0.004  -0.110  0.00  0.00    +0.131 A 
ATOM     15  C   UNL     1       1.209  -0.693  -0.144  0.00  0.00    +0.091 A 
ATOM     16  C   UNL     1       0.002  -0.001  -0.128  0.00  0.00    +0.124 A 
ATOM     17  C   UNL     1      -0.017   1.384  -0.076  0.00  0.00    +0.092 A 
BRANCH  16  18
ATOM     18  O   UNL     1      -1.168  -0.689  -0.162  0.00  0.00    -0.507 OA
ATOM     19  H   UNL     1      -1.500  -0.856  -1.054  0.00  0.00    +0.292 HD
ENDBRANCH  16  18
BRANCH  14  20
ATOM     20  O   UNL     1       3.582  -0.679  -0.126  0.00  0.00    -0.506 OA
ATOM     21  H   UNL     1       3.930  -0.842  -1.014  0.00  0.00    +0.292 HD
ENDBRANCH  14  20
ENDBRANCH   5   8
ENDBRANCH   1   5
BRANCH   3  22
ATOM     22  C   UNL     1       6.812   5.640  -2.920  0.00  0.00    +0.112 C 
BRANCH  22  23
ATOM     23  C   UNL     1       8.106   6.457  -2.881  0.00  0.00    +0.045 C 
BRANCH  23  24
ATOM     24  C   UNL     1       9.214   5.614  -2.303  0.00  0.00    -0.042 A 
ATOM     25  C   UNL     1       9.578   4.433  -2.922  0.00  0.00    +0.005 A 
ATOM     26  C   UNL     1      10.598   3.663  -2.395  0.00  0.00    +0.020 A 
ATOM     27  C   UNL     1      11.247   4.069  -1.243  0.00  0.00    +0.041 A 
ATOM     28  C   UNL     1      10.879   5.249  -0.622  0.00  0.00    +0.020 A 
ATOM     29  C   UNL     1       9.863   6.021  -1.152  0.00  0.00    +0.005 A 
ATOM     30 CL   UNL     1      12.524   3.099  -0.578  0.00  0.00    -0.084 Cl
ENDBRANCH  23  24
BRANCH  23  31
ATOM     31  C   UNL     1       8.480   6.888  -4.301  0.00  0.00    +0.105 C 
BRANCH  31  32
ATOM     32  C   UNL     1       9.684   7.793  -4.250  0.00  0.00    +0.214 C 
ATOM     33  O   UNL     1      10.192   8.066  -3.183  0.00  0.00    -0.276 OA
ATOM     34  N   UNL     1      10.195   8.299  -5.389  0.00  0.00    -0.313 N 
ATOM     35  H   UNL     1       9.788   8.080  -6.242  0.00  0.00    +0.149 HD
BRANCH  34  36
ATOM     36  C   UNL     1      11.365   9.179  -5.340  0.00  0.00    +0.067 C 
ATOM     37  C   UNL     1      12.109   9.114  -6.676  0.00  0.00    +0.027 C 
ATOM     38  C   UNL     1      10.911  10.617  -5.079  0.00  0.00    +0.027 C 
ENDBRANCH  34  36
ENDBRANCH  31  32
ENDBRANCH  23  31
ENDBRANCH  22  23
ENDBRANCH   3  22
TORSDOF 10
