REMARK  Name = ZINC58367381
REMARK  5 active torsions:
REMARK  status: ('A' for Active; 'I' for Inactive)
REMARK    1  A    between atoms: C_8  and  O_27
REMARK    2  A    between atoms: C_10  and  N_12
REMARK    3  A    between atoms: N_12  and  C_13
REMARK    4  A    between atoms: C_16  and  C_22
REMARK    5  A    between atoms: C_18  and  N_19
REMARK                            x       y       z     vdW  Elec       q    Type
REMARK                         _______ _______ _______ _____ _____    ______ ____
ROOT
ATOM      1  C   UNL     1       5.325  -0.306   1.665  0.00  0.00    +0.060 A 
ATOM      2  C   UNL     1       5.815   0.644   0.779  0.00  0.00    +0.045 A 
ATOM      3  C   UNL     1       6.581   1.694   1.248  0.00  0.00    +0.054 A 
ATOM      4  C   UNL     1       6.860   1.799   2.600  0.00  0.00    +0.075 A 
ATOM      5  C   UNL     1       6.374   0.855   3.484  0.00  0.00    +0.048 A 
ATOM      6  C   UNL     1       5.603  -0.194   3.022  0.00  0.00    +0.148 A 
ATOM      7 CL   UNL     1       7.194   2.883   0.141  0.00  0.00    -0.083 Cl
ENDROOT
BRANCH   4   8
ATOM      8  C   UNL     1       7.696   2.945   3.108  0.00  0.00    +0.419 C 
ATOM      9  F   UNL     1       7.840   2.837   4.496  0.00  0.00    -0.166 F 
ATOM     10  F   UNL     1       8.957   2.906   2.504  0.00  0.00    -0.166 F 
ATOM     11  F   UNL     1       7.067   4.155   2.797  0.00  0.00    -0.166 F 
ENDBRANCH   4   8
BRANCH   6  12
ATOM     12  N   UNL     1       5.077  -1.202   3.971  0.00  0.00    +0.058 N 
ATOM     13  O   UNL     1       3.972  -1.665   3.810  0.00  0.00    -0.126 OA
ATOM     14  O   UNL     1       5.753  -1.561   4.907  0.00  0.00    -0.126 OA
ENDBRANCH   6  12
BRANCH   1  15
ATOM     15  N   UNL     1       4.551  -1.369   1.195  0.00  0.00    -0.333 N 
ATOM     16  H   UNL     1       4.282  -2.078   1.800  0.00  0.00    +0.147 HD
BRANCH  15  25
ATOM     17  C   UNL     1       0.303   0.346  -0.791  0.00  0.00    +0.000 A 
ATOM     18  C   UNL     1       1.371   1.220  -0.699  0.00  0.00    +0.000 A 
ATOM     19  C   UNL     1       2.648   0.729  -0.511  0.00  0.00    +0.006 A 
ATOM     20  C   UNL     1       2.864  -0.635  -0.415  0.00  0.00    -0.022 A 
ATOM     21  C   UNL     1       1.797  -1.509  -0.507  0.00  0.00    -0.040 A 
ATOM     22  C   UNL     1       0.516  -1.015  -0.695  0.00  0.00    +0.004 A 
ATOM     23  C   UNL     1       2.289  -2.934  -0.373  0.00  0.00    +0.069 C 
ATOM     24  C   UNL     1       3.809  -2.862  -0.627  0.00  0.00    +0.143 C 
ATOM     25  C   UNL     1       4.146  -1.414  -0.212  0.00  0.00    +0.130 C 
BRANCH  24  26
ATOM     26  O   UNL     1       4.506  -3.804   0.191  0.00  0.00    -0.389 OA
ATOM     27  H   UNL     1       4.263  -4.725   0.024  0.00  0.00    +0.210 HD
ENDBRANCH  24  26
ENDBRANCH  15  25
ENDBRANCH   1  15
TORSDOF 5
