REMARK  Name = ZINC39464533
REMARK  8 active torsions:
REMARK  status: ('A' for Active; 'I' for Inactive)
REMARK    1  A    between atoms: C_1  and  C_2
REMARK    2  A    between atoms: C_2  and  C_3
REMARK    3  A    between atoms: C_2  and  S_4
REMARK    4  A    between atoms: S_4  and  C_7
REMARK    5  A    between atoms: C_12  and  C_13
REMARK    6  A    between atoms: C_18  and  O_19
REMARK    7  A    between atoms: P_24  and  C_30
REMARK    8  A    between atoms: C_35  and  O_36
REMARK                            x       y       z     vdW  Elec       q    Type
REMARK                         _______ _______ _______ _____ _____    ______ ____
ROOT
ATOM      1  C   UNL     1      -1.420  -2.382   0.065  0.00  0.00    +0.097 A 
ATOM      2  C   UNL     1      -1.945  -3.133   1.095  0.00  0.00    +0.031 A 
ATOM      3  C   UNL     1      -1.932  -4.519   1.032  0.00  0.00    -0.039 A 
ATOM      4  C   UNL     1      -1.393  -5.159  -0.064  0.00  0.00    -0.023 A 
ATOM      5  C   UNL     1      -0.864  -4.412  -1.105  0.00  0.00    +0.016 A 
ATOM      6  C   UNL     1      -0.879  -3.021  -1.049  0.00  0.00    +0.011 A 
ATOM      7  C   UNL     1      -1.355  -6.660  -0.176  0.00  0.00    +0.129 C 
ATOM      8  C   UNL     1      -1.739  -7.065  -1.602  0.00  0.00    +0.194 C 
ATOM      9  O   UNL     1      -1.586  -8.492  -1.734  0.00  0.00    -0.311 OA
ATOM     10  P   UNL     1      -2.268  -9.448  -0.609  0.00  0.00    +0.318 P 
ATOM     11  O   UNL     1      -3.708  -9.631  -0.898  0.00  0.00    -0.266 OA
ATOM     12  N   UNL     1      -2.071  -8.653   0.828  0.00  0.00    -0.175 NA
ATOM     13  N   UNL     1      -2.256  -7.286   0.791  0.00  0.00    -0.225 NA
ATOM     14  C   UNL     1      -2.045  -6.734   2.138  0.00  0.00    +0.108 C 
ATOM     15  C   UNL     1      -2.521  -5.294   2.184  0.00  0.00    +0.052 C 
ATOM     16  H   UNL     1      -1.847  -9.126   1.645  0.00  0.00    +0.151 HD
ENDROOT
BRANCH   6  17
ATOM     17  C   UNL     1      -0.318  -2.224  -2.167  0.00  0.00    +0.025 A 
ATOM     18  C   UNL     1      -1.167  -1.597  -3.075  0.00  0.00    +0.012 A 
ATOM     19  C   UNL     1      -0.640  -0.856  -4.113  0.00  0.00    +0.001 A 
ATOM     20  C   UNL     1       0.731  -0.735  -4.257  0.00  0.00    +0.004 A 
ATOM     21  C   UNL     1       1.583  -1.354  -3.362  0.00  0.00    +0.046 A 
ATOM     22  C   UNL     1       1.067  -2.096  -2.311  0.00  0.00    +0.125 A 
BRANCH  22  23
ATOM     23  O   UNL     1       1.903  -2.699  -1.427  0.00  0.00    -0.506 OA
ATOM     24  H   UNL     1       2.160  -3.597  -1.679  0.00  0.00    +0.292 HD
ENDBRANCH  22  23
ENDBRANCH   6  17
BRANCH  10  25
ATOM     25  C   UNL     1      -1.429 -11.055  -0.560  0.00  0.00    +0.094 A 
ATOM     26  C   UNL     1      -0.351 -11.248   0.282  0.00  0.00    +0.018 A 
ATOM     27  C   UNL     1       0.289 -12.473   0.320  0.00  0.00    +0.001 A 
ATOM     28  C   UNL     1      -0.149 -13.508  -0.485  0.00  0.00    +0.004 A 
ATOM     29  C   UNL     1      -1.226 -13.321  -1.329  0.00  0.00    +0.046 A 
ATOM     30  C   UNL     1      -1.873 -12.095  -1.365  0.00  0.00    +0.131 A 
BRANCH  30  31
ATOM     31  O   UNL     1      -2.937 -11.910  -2.190  0.00  0.00    -0.506 OA
ATOM     32  H   UNL     1      -2.700 -11.591  -3.071  0.00  0.00    +0.292 HD
ENDBRANCH  30  31
ENDBRANCH  10  25
BRANCH   1  33
ATOM     33  S   UNL     1      -1.439  -0.622   0.153  0.00  0.00    -0.000 S 
ATOM     34  O   UNL     1      -2.077  -0.328   1.388  0.00  0.00    -0.169 OA
ATOM     35  O   UNL     1      -2.015  -0.204  -1.077  0.00  0.00    -0.169 OA
BRANCH  33  37
ATOM     36  C   UNL     1       0.411   1.373   0.424  0.00  0.00    +0.032 C 
ATOM     37  C   UNL     1       0.308  -0.139   0.221  0.00  0.00    +0.130 C 
ATOM     38  C   UNL     1       0.991  -0.859   1.385  0.00  0.00    +0.032 C 
ENDBRANCH  33  37
ENDBRANCH   1  33
TORSDOF 6
