REMARK  Name = ZINC59876492
REMARK  9 active torsions:
REMARK  status: ('A' for Active; 'I' for Inactive)
REMARK    1  A    between atoms: C_3  and  C_8
REMARK    2  A    between atoms: C_8  and  C_10
REMARK    3  A    between atoms: C_8  and  N_30
REMARK    4  A    between atoms: C_10  and  N_11
REMARK    5  A    between atoms: C_12  and  C_14
REMARK    6  A    between atoms: C_14  and  C_15
REMARK    7  A    between atoms: C_15  and  C_16
REMARK    8  A    between atoms: C_16  and  C_17
REMARK    9  A    between atoms: C_17  and  C_18
REMARK                            x       y       z     vdW  Elec       q    Type
REMARK                         _______ _______ _______ _____ _____    ______ ____
ROOT
ATOM      1  N   UNL     1       5.544   2.946   1.341  0.00  0.00    -0.317 N 
ATOM      2  C   UNL     1       6.237   3.129   2.483  0.00  0.00    +0.213 C 
ATOM      3  O   UNL     1       5.733   2.849   3.550  0.00  0.00    -0.276 OA
ATOM      4  H   UNL     1       5.947   3.170   0.488  0.00  0.00    +0.149 HD
ENDROOT
BRANCH   1   5
ATOM      5  C   UNL     1       4.183   2.407   1.389  0.00  0.00    +0.093 C 
BRANCH   5   6
ATOM      6  C   UNL     1       3.579   2.421  -0.016  0.00  0.00    -0.020 C 
BRANCH   6   9
ATOM      7  C   UNL     1       4.201   5.709  -1.764  0.00  0.00    +0.002 A 
ATOM      8  C   UNL     1       4.348   4.402  -1.338  0.00  0.00    +0.002 A 
ATOM      9  C   UNL     1       3.418   3.846  -0.480  0.00  0.00    -0.058 A 
ATOM     10  C   UNL     1       2.341   4.596  -0.047  0.00  0.00    +0.022 A 
ATOM     11  C   UNL     1       2.193   5.904  -0.473  0.00  0.00    +0.041 A 
ATOM     12  C   UNL     1       3.125   6.460  -1.332  0.00  0.00    +0.020 A 
ATOM     13 CL   UNL     1       0.840   6.847   0.070  0.00  0.00    -0.084 Cl
ENDBRANCH   6   9
BRANCH   6  14
ATOM     14  N   UNL     1       2.265   1.763   0.009  0.00  0.00    +0.385 N 
ATOM     15  C   UNL     1       1.670   1.756  -1.352  0.00  0.00    -0.078 C 
ATOM     16  C   UNL     1       0.644   0.597  -1.284  0.00  0.00    -0.020 C 
ATOM     17  C   UNL     1       1.366  -0.453  -0.409  0.00  0.00    -0.020 C 
ATOM     18  C   UNL     1       2.413   0.342   0.392  0.00  0.00    -0.078 C 
ATOM     19  H   UNL     1       1.651   2.236   0.655  0.00  0.00    -0.081 HD
ENDBRANCH   6  14
ENDBRANCH   5   6
ENDBRANCH   1   5
BRANCH   2  20
ATOM     20  C   UNL     1       7.638   3.683   2.433  0.00  0.00    +0.096 C 
BRANCH  20  21
ATOM     21  C   UNL     1       8.194   3.791   3.854  0.00  0.00    +0.009 C 
BRANCH  21  22
ATOM     22  C   UNL     1       9.616   4.354   3.804  0.00  0.00    +0.002 C 
BRANCH  22  23
ATOM     23  C   UNL     1      10.172   4.462   5.225  0.00  0.00    +0.016 C 
BRANCH  23  24
ATOM     24  C   UNL     1      11.594   5.024   5.175  0.00  0.00    +0.069 C 
ATOM     25  C   UNL     1      12.176   5.189   6.595  0.00  0.00    +0.108 C 
ATOM     26  C   UNL     1      13.651   4.794   6.706  0.00  0.00    +0.105 C 
ATOM     27  C   UNL     1      14.262   4.301   5.377  0.00  0.00    +0.093 C 
ATOM     28  S   UNL     1      12.765   3.801   4.440  0.00  0.00    -0.154 S 
ATOM     29  N   UNL     1      13.653   3.682   7.669  0.00  0.00    -0.294 N 
ATOM     30  C   UNL     1      12.395   3.449   8.068  0.00  0.00    +0.300 C 
ATOM     31  O   UNL     1      12.103   2.580   8.867  0.00  0.00    -0.253 OA
ATOM     32  N   UNL     1      11.495   4.254   7.505  0.00  0.00    -0.294 N 
ATOM     33  H   UNL     1      14.437   3.196   7.966  0.00  0.00    +0.151 HD
ATOM     34  H   UNL     1      10.541   4.226   7.673  0.00  0.00    +0.151 HD
ENDBRANCH  23  24
ENDBRANCH  22  23
ENDBRANCH  21  22
ENDBRANCH  20  21
ENDBRANCH   2  20
TORSDOF 9
