REMARK  Name = ZINC08801649
REMARK  7 active torsions:
REMARK  status: ('A' for Active; 'I' for Inactive)
REMARK    1  A    between atoms: C_1  and  N_2
REMARK    2  A    between atoms: C_9  and  C_11
REMARK    3  A    between atoms: C_11  and  C_13
REMARK    4  A    between atoms: C_11  and  N_63
REMARK    5  A    between atoms: C_13  and  N_14
REMARK    6  A    between atoms: N_14  and  S_15
REMARK    7  A    between atoms: S_15  and  C_18
REMARK                            x       y       z     vdW  Elec       q    Type
REMARK                         _______ _______ _______ _____ _____    ______ ____
ROOT
ATOM      1  C   UNL     1      -3.482   6.321  -1.603  0.00  0.00    -0.022 C 
ENDROOT
BRANCH   1  10
ATOM      2  C   UNL     1       0.904   1.841  -0.007  0.00  0.00    +0.129 C 
ATOM      3  N   UNL     1      -0.189   1.744  -0.983  0.00  0.00    -0.332 N 
ATOM      4  C   UNL     1       0.338   1.586  -2.356  0.00  0.00    +0.109 C 
ATOM      5  C   UNL     1      -0.739   2.282  -3.219  0.00  0.00    +0.056 C 
ATOM      6  C   UNL     1      -1.363   3.267  -2.250  0.00  0.00    -0.025 A 
ATOM      7  C   UNL     1      -0.992   2.894  -0.963  0.00  0.00    +0.033 A 
ATOM      8  C   UNL     1      -1.436   3.655   0.117  0.00  0.00    +0.023 A 
ATOM      9  C   UNL     1      -2.236   4.758  -0.095  0.00  0.00    +0.004 A 
ATOM     10  C   UNL     1      -2.604   5.117  -1.378  0.00  0.00    -0.059 A 
ATOM     11  C   UNL     1      -2.166   4.369  -2.455  0.00  0.00    +0.007 A 
ENDBRANCH   1  10
BRANCH   1  17
ATOM     12  C   UNL     1      -5.805   6.861  -1.187  0.00  0.00    -0.078 C 
ATOM     13  C   UNL     1      -6.941   6.723  -0.171  0.00  0.00    -0.019 C 
ATOM     14  C   UNL     1      -6.580   7.494   1.101  0.00  0.00    -0.004 C 
ATOM     15  C   UNL     1      -5.258   6.956   1.656  0.00  0.00    -0.019 C 
ATOM     16  C   UNL     1      -4.170   7.088   0.588  0.00  0.00    -0.078 C 
ATOM     17  N   UNL     1      -4.568   6.303  -0.601  0.00  0.00    +0.385 N 
ATOM     18  H   UNL     1      -4.742   5.332  -0.316  0.00  0.00    -0.081 HD
ENDBRANCH   1  17
BRANCH   1  19
ATOM     19  C   UNL     1      -2.647   7.595  -1.462  0.00  0.00    +0.095 C 
BRANCH  19  20
ATOM     20  N   UNL     1      -3.502   8.766  -1.672  0.00  0.00    -0.191 NA
ATOM     21  H   UNL     1      -4.362   8.666  -2.108  0.00  0.00    +0.148 HD
BRANCH  20  22
ATOM     22  S   UNL     1      -2.998  10.261  -1.167  0.00  0.00    +0.059 S 
ATOM     23  O   UNL     1      -4.017  11.179  -1.538  0.00  0.00    -0.153 OA
ATOM     24  O   UNL     1      -2.562  10.109   0.177  0.00  0.00    -0.153 OA
BRANCH  22  25
ATOM     25  C   UNL     1      -1.573  10.679  -2.115  0.00  0.00    +0.113 A 
ATOM     26  C   UNL     1      -0.368  10.841  -1.504  0.00  0.00    +0.029 A 
ATOM     27  C   UNL     1       0.770  11.171  -2.237  0.00  0.00    +0.003 A 
ATOM     28  C   UNL     1       0.709  11.342  -3.587  0.00  0.00    +0.008 A 
ATOM     29  C   UNL     1      -0.518  11.183  -4.253  0.00  0.00    -0.016 A 
ATOM     30  C   UNL     1      -1.675  10.841  -3.507  0.00  0.00    +0.008 A 
ATOM     31  C   UNL     1      -2.902  10.687  -4.173  0.00  0.00    +0.010 A 
ATOM     32  C   UNL     1      -2.963  10.858  -5.522  0.00  0.00    +0.001 A 
ATOM     33  C   UNL     1      -1.826  11.189  -6.255  0.00  0.00    +0.001 A 
ATOM     34  C   UNL     1      -0.621  11.351  -5.644  0.00  0.00    +0.008 A 
ENDBRANCH  22  25
ENDBRANCH  20  22
ENDBRANCH  19  20
ENDBRANCH   1  19
TORSDOF 6
