REMARK  Name = ZINC01188128
REMARK  6 active torsions:
REMARK  status: ('A' for Active; 'I' for Inactive)
REMARK    1  A    between atoms: C_1  and  C_2
REMARK    2  A    between atoms: C_5  and  C_8
REMARK    3  A    between atoms: C_9  and  C_10
REMARK    4  A    between atoms: N_12  and  C_13
REMARK    5  A    between atoms: C_14  and  C_22
REMARK    6  A    between atoms: N_24  and  C_25
REMARK                            x       y       z     vdW  Elec       q    Type
REMARK                         _______ _______ _______ _____ _____    ______ ____
ROOT
ATOM      1  C   UNL     1      -2.520   4.082   0.036  0.00  0.00    +0.085 A 
ATOM      2  C   UNL     1      -2.742   5.453   0.050  0.00  0.00    +0.069 A 
ATOM      3  C   UNL     1      -4.121   5.910   0.054  0.00  0.00    -0.023 A 
ATOM      4  C   UNL     1      -5.052   4.930   0.054  0.00  0.00    -0.004 A 
ATOM      5  S   UNL     1      -4.123   3.423   0.041  0.00  0.00    -0.077 S 
ATOM      6  C   UNL     1      -6.540   5.098   0.063  0.00  0.00    +0.043 C 
ATOM      7  C   UNL     1      -6.861   6.549   0.451  0.00  0.00    +0.005 C 
ATOM      8  C   UNL     1      -5.986   7.488  -0.385  0.00  0.00    +0.005 C 
ATOM      9  C   UNL     1      -4.528   7.378   0.064  0.00  0.00    +0.037 C 
ENDROOT
BRANCH   2  10
ATOM     10  C   UNL     1      -1.626   6.404   0.058  0.00  0.00    +0.246 C 
ATOM     11  O   UNL     1      -1.166   6.809  -0.993  0.00  0.00    -0.270 OA
ATOM     12  N   UNL     1      -1.111   6.829   1.228  0.00  0.00    -0.314 N 
ATOM     13  C   UNL     1       0.004   7.779   1.235  0.00  0.00    +0.128 C 
ATOM     14  H   UNL     1      -1.478   6.505   2.066  0.00  0.00    +0.149 HD
ENDBRANCH   2  10
BRANCH   1  17
ATOM     15  C   UNL     1      -1.293   2.059   0.019  0.00  0.00    +0.241 C 
ATOM     16  O   UNL     1      -2.339   1.436   0.021  0.00  0.00    -0.270 OA
ATOM     17  N   UNL     1      -1.312   3.406   0.027  0.00  0.00    -0.276 N 
ATOM     18  H   UNL     1      -0.478   3.903   0.025  0.00  0.00    +0.156 HD
BRANCH  15  20
ATOM     19  C   UNL     1       0.002  -0.004   0.002  0.00  0.00    +0.013 C 
ATOM     20  C   UNL     1      -0.016   1.344   0.009  0.00  0.00    +0.068 C 
BRANCH  19  25
ATOM     21  C   UNL     1       5.019  -2.811  -0.062  0.00  0.00    +0.044 C 
ATOM     22  C   UNL     1       3.704  -2.075  -0.045  0.00  0.00    -0.050 A 
ATOM     23  C   UNL     1       2.517  -2.787  -0.037  0.00  0.00    +0.004 A 
ATOM     24  C   UNL     1       1.310  -2.121  -0.022  0.00  0.00    +0.008 A 
ATOM     25  C   UNL     1       1.287  -0.723  -0.014  0.00  0.00    -0.025 A 
ATOM     26  C   UNL     1       2.490  -0.011  -0.028  0.00  0.00    +0.008 A 
ATOM     27  C   UNL     1       3.689  -0.691  -0.037  0.00  0.00    +0.004 A 
ENDBRANCH  19  25
ENDBRANCH  15  20
ENDBRANCH   1  17
TORSDOF 4
