REMARK  Name = ZINC02411580
REMARK  10 active torsions:
REMARK  status: ('A' for Active; 'I' for Inactive)
REMARK    1  A    between atoms: C_1  and  C_2
REMARK    2  A    between atoms: C_2  and  C_3
REMARK    3  A    between atoms: C_3  and  O_4
REMARK    4  A    between atoms: O_4  and  C_5
REMARK    5  A    between atoms: C_5  and  C_7
REMARK    6  A    between atoms: N_18  and  C_21
REMARK    7  A    between atoms: C_19  and  N_20
REMARK    8  A    between atoms: C_24  and  O_27
REMARK    9  A    between atoms: O_27  and  C_28
REMARK   10  A    between atoms: C_28  and  C_29
REMARK                            x       y       z     vdW  Elec       q    Type
REMARK                         _______ _______ _______ _____ _____    ______ ____
ROOT
ATOM      1  C   UNL     1      11.030  -3.990  -2.809  0.00  0.00    +0.126 A 
ATOM      2  C   UNL     1      10.506  -5.226  -2.202  0.00  0.00    +0.125 A 
ATOM      3  C   UNL     1       9.129  -4.914  -1.812  0.00  0.00    +0.167 A 
ATOM      4  N   UNL     1       8.392  -5.844  -1.243  0.00  0.00    -0.225 NA
ATOM      5  C   UNL     1       8.909  -7.057  -1.012  0.00  0.00    +0.092 A 
ATOM      6  C   UNL     1       8.130  -8.055  -0.396  0.00  0.00    +0.030 A 
ATOM      7  C   UNL     1       8.664  -9.285  -0.168  0.00  0.00    +0.002 A 
ATOM      8  C   UNL     1       9.976  -9.577  -0.534  0.00  0.00    +0.002 A 
ATOM      9  C   UNL     1      10.760  -8.639  -1.131  0.00  0.00    +0.030 A 
ATOM     10  C   UNL     1      10.243  -7.354  -1.385  0.00  0.00    +0.090 A 
ATOM     11  N   UNL     1      11.005  -6.424  -1.972  0.00  0.00    -0.241 NA
ATOM     12  N   UNL     1       8.891  -3.604  -2.180  0.00  0.00    -0.280 N 
ATOM     13  C   UNL     1       9.997  -3.058  -2.759  0.00  0.00    +0.119 A 
ENDROOT
BRANCH  12  14
ATOM     14  C   UNL     1       7.679  -2.927  -1.980  0.00  0.00    +0.050 A 
ATOM     15  C   UNL     1       6.930  -2.507  -3.071  0.00  0.00    +0.030 A 
ATOM     16  C   UNL     1       5.737  -1.840  -2.874  0.00  0.00    +0.047 A 
ATOM     17  C   UNL     1       5.288  -1.589  -1.586  0.00  0.00    +0.121 A 
ATOM     18  C   UNL     1       6.039  -2.003  -0.495  0.00  0.00    +0.047 A 
ATOM     19  C   UNL     1       7.229  -2.675  -0.692  0.00  0.00    +0.030 A 
BRANCH  17  20
ATOM     20  O   UNL     1       4.113  -0.932  -1.392  0.00  0.00    -0.487 OA
BRANCH  20  21
ATOM     21  C   UNL     1       3.711  -0.707  -0.039  0.00  0.00    +0.264 C 
BRANCH  21  22
ATOM     22  C   UNL     1       2.396   0.029  -0.022  0.00  0.00    -0.010 A 
ATOM     23  C   UNL     1       1.208  -0.679  -0.014  0.00  0.00    +0.007 A 
ATOM     24  C   UNL     1       0.002  -0.004   0.002  0.00  0.00    +0.000 A 
ATOM     25  C   UNL     1      -0.017   1.378   0.010  0.00  0.00    +0.000 A 
ATOM     26  C   UNL     1       1.171   2.086   0.002  0.00  0.00    +0.000 A 
ATOM     27  C   UNL     1       2.377   1.411  -0.014  0.00  0.00    +0.007 A 
ENDBRANCH  21  22
ENDBRANCH  20  21
ENDBRANCH  17  20
ENDBRANCH  12  14
BRANCH  13  28
ATOM     28  N   UNL     1      10.081  -1.773  -3.226  0.00  0.00    -0.343 N 
ATOM     29  H   UNL     1       9.316  -1.180  -3.155  0.00  0.00    +0.144 HD
ATOM     30  H   UNL     1      10.905  -1.455  -3.627  0.00  0.00    +0.144 HD
ENDBRANCH  13  28
BRANCH   1  31
ATOM     31  C   UNL     1      12.327  -3.790  -3.339  0.00  0.00    +0.345 C 
ATOM     32  O   UNL     1      13.222  -3.382  -2.621  0.00  0.00    -0.245 OA
BRANCH  31  33
ATOM     33  O   UNL     1      12.573  -4.051  -4.640  0.00  0.00    -0.461 OA
BRANCH  33  34
ATOM     34  C   UNL     1      13.904  -3.826  -5.106  0.00  0.00    +0.232 C 
BRANCH  34  36
ATOM     35  C   UNL     1      15.415  -3.935  -7.094  0.00  0.00    +0.007 C 
ATOM     36  C   UNL     1      13.989  -4.175  -6.594  0.00  0.00    +0.038 C 
ENDBRANCH  34  36
ENDBRANCH  33  34
ENDBRANCH  31  33
ENDBRANCH   1  31
TORSDOF 9
