REMARK  Name = ZINC02438199
REMARK  6 active torsions:
REMARK  status: ('A' for Active; 'I' for Inactive)
REMARK    1  A    between atoms: C_1  and  C_2
REMARK    2  A    between atoms: C_7  and  C_12
REMARK    3  A    between atoms: C_13  and  C_14
REMARK    4  A    between atoms: C_13  and  C_16
REMARK    5  A    between atoms: N_18  and  C_19
REMARK    6  A    between atoms: C_20  and  C_28
REMARK                            x       y       z     vdW  Elec       q    Type
REMARK                         _______ _______ _______ _____ _____    ______ ____
ROOT
ATOM      1  C   UNL     1      -1.592   3.262   7.090  0.00  0.00    +0.259 C 
ATOM      2  O   UNL     1      -0.502   2.904   7.495  0.00  0.00    -0.269 OA
ATOM      3  N   UNL     1      -2.454   3.873   7.926  0.00  0.00    -0.275 N 
ATOM      4  H   UNL     1      -3.323   4.159   7.603  0.00  0.00    +0.156 HD
ENDROOT
BRANCH   3   5
ATOM      5  C   UNL     1      -2.100   4.092   9.248  0.00  0.00    +0.085 A 
ATOM      6  C   UNL     1      -2.844   4.698  10.251  0.00  0.00    +0.068 A 
ATOM      7  C   UNL     1      -2.236   4.804  11.566  0.00  0.00    -0.023 A 
ATOM      8  C   UNL     1      -0.990   4.292  11.667  0.00  0.00    -0.004 A 
ATOM      9  S   UNL     1      -0.624   3.670  10.051  0.00  0.00    -0.077 S 
ATOM     10  C   UNL     1      -0.123   4.260  12.888  0.00  0.00    +0.043 C 
ATOM     11  C   UNL     1      -0.708   5.232  13.923  0.00  0.00    +0.005 C 
ATOM     12  C   UNL     1      -2.214   4.978  14.042  0.00  0.00    +0.005 C 
ATOM     13  C   UNL     1      -2.922   5.441  12.768  0.00  0.00    +0.037 C 
BRANCH   6  14
ATOM     14  C   UNL     1      -4.193   5.211   9.993  0.00  0.00    +0.244 C 
ATOM     15  O   UNL     1      -5.159   4.488  10.150  0.00  0.00    -0.270 OA
ATOM     16  N   UNL     1      -4.363   6.483   9.582  0.00  0.00    -0.325 N 
ATOM     17  H   UNL     1      -3.593   7.060   9.458  0.00  0.00    +0.145 HD
ATOM     18  H   UNL     1      -5.255   6.823   9.412  0.00  0.00    +0.145 HD
ENDBRANCH   6  14
ENDBRANCH   3   5
BRANCH   1  20
ATOM     19  C   UNL     1      -1.086   2.405   4.832  0.00  0.00    +0.032 C 
ATOM     20  C   UNL     1      -1.968   3.029   5.687  0.00  0.00    +0.114 C 
BRANCH  19  26
ATOM     21  C   UNL     1      -3.851  -1.306   0.191  0.00  0.00    +0.052 C 
ATOM     22  C   UNL     1      -4.142   0.192   0.078  0.00  0.00    +0.175 C 
ATOM     23  C   UNL     1      -4.559   0.774   1.450  0.00  0.00    +0.083 C 
ATOM     24  C   UNL     1      -3.231   1.258   2.001  0.00  0.00    -0.002 A 
ATOM     25  C   UNL     1      -2.840   1.611   3.257  0.00  0.00    +0.015 A 
ATOM     26  C   UNL     1      -1.518   2.022   3.486  0.00  0.00    -0.023 A 
ATOM     27  C   UNL     1      -0.615   2.063   2.414  0.00  0.00    +0.011 A 
ATOM     28  C   UNL     1      -1.022   1.708   1.159  0.00  0.00    +0.046 A 
ATOM     29  C   UNL     1      -2.339   1.303   0.931  0.00  0.00    +0.124 A 
ATOM     30  O   UNL     1      -2.942   0.922  -0.227  0.00  0.00    -0.488 OA
ENDBRANCH  19  26
BRANCH  20  31
ATOM     31  C   UNL     1      -3.251   3.451   5.210  0.00  0.00    +0.104 C 
ATOM     32  N   UNL     1      -4.268   3.786   4.832  0.00  0.00    -0.191 NA
ENDBRANCH  20  31
ENDBRANCH   1  20
TORSDOF 5
