REMARK  Name = ZINC66814739
REMARK  5 active torsions:
REMARK  status: ('A' for Active; 'I' for Inactive)
REMARK    1  A    between atoms: C_1  and  C_2
REMARK    2  A    between atoms: C_5  and  C_7
REMARK    3  A    between atoms: C_11  and  N_13
REMARK    4  A    between atoms: N_13  and  S_14
REMARK    5  A    between atoms: S_14  and  C_17
REMARK                            x       y       z     vdW  Elec       q    Type
REMARK                         _______ _______ _______ _____ _____    ______ ____
ROOT
ATOM      1  S   UNL     1       1.887  -8.101   0.954  0.00  0.00    +0.072 S 
ATOM      2  O   UNL     1       1.109  -9.269   0.732  0.00  0.00    -0.150 OA
ATOM      3  O   UNL     1       3.299  -8.083   0.794  0.00  0.00    -0.150 OA
ENDROOT
BRANCH   1   4
ATOM      4  C   UNL     1       1.561  -7.586   2.607  0.00  0.00    +0.109 A 
ATOM      5  C   UNL     1       2.485  -6.809   3.283  0.00  0.00    +0.030 A 
ATOM      6  C   UNL     1       2.233  -6.404   4.579  0.00  0.00    +0.025 A 
ATOM      7  C   UNL     1       1.050  -6.777   5.203  0.00  0.00    +0.037 A 
ATOM      8  C   UNL     1       0.125  -7.557   4.522  0.00  0.00    -0.024 A 
ATOM      9  C   UNL     1       0.380  -7.955   3.225  0.00  0.00    +0.034 A 
ATOM     10  C   UNL     1      -1.159  -7.961   5.200  0.00  0.00    +0.046 C 
ATOM     11  C   UNL     1      -0.904  -8.173   6.692  0.00  0.00    +0.101 C 
ATOM     12  C   UNL     1      -0.141  -7.004   7.253  0.00  0.00    +0.218 C 
ATOM     13  O   UNL     1      -0.366  -6.628   8.384  0.00  0.00    -0.275 OA
ATOM     14  N   UNL     1       0.788  -6.370   6.515  0.00  0.00    -0.285 N 
ATOM     15  H   UNL     1       1.280  -5.625   6.895  0.00  0.00    +0.155 HD
ENDBRANCH   1   4
BRANCH   1  16
ATOM     16  N   UNL     1       1.282  -6.931  -0.051  0.00  0.00    -0.216 N 
ATOM     17  H   UNL     1       0.545  -7.137  -0.646  0.00  0.00    +0.174 HD
BRANCH  16  22
ATOM     18  C   UNL     1       1.562  -3.258  -0.022  0.00  0.00    +0.039 A 
ATOM     19  C   UNL     1       2.950  -3.105  -0.021  0.00  0.00    +0.013 A 
ATOM     20  C   UNL     1       3.766  -4.218  -0.030  0.00  0.00    +0.003 A 
ATOM     21  C   UNL     1       3.215  -5.485  -0.040  0.00  0.00    +0.024 A 
ATOM     22  C   UNL     1       1.835  -5.648  -0.041  0.00  0.00    +0.049 A 
ATOM     23  C   UNL     1       1.006  -4.536  -0.027  0.00  0.00    +0.037 A 
BRANCH  18  28
ATOM     24  C   UNL     1      -0.018   1.503   0.010  0.00  0.00    +0.088 C 
ATOM     25  C   UNL     1       0.002  -0.004   0.002  0.00  0.00    +0.123 A 
ATOM     26  C   UNL     1      -1.071  -0.816   0.003  0.00  0.00    +0.156 A 
ATOM     27  N   UNL     1      -0.627  -2.083  -0.006  0.00  0.00    -0.217 NA
ATOM     28  C   UNL     1       0.685  -2.068  -0.012  0.00  0.00    +0.227 A 
ATOM     29  O   UNL     1       1.098  -0.788  -0.013  0.00  0.00    -0.441 OA
ENDBRANCH  18  28
ENDBRANCH  16  22
ENDBRANCH   1  16
TORSDOF 4
