REMARK  Name = ZINC09775740
REMARK  14 active torsions:
REMARK  status: ('A' for Active; 'I' for Inactive)
REMARK    1  A    between atoms: C_1  and  C_2
REMARK    2  A    between atoms: C_3  and  C_34
REMARK    3  A    between atoms: N_9  and  C_12
REMARK    4  A    between atoms: C_12  and  C_13
REMARK    5  A    between atoms: N_15  and  C_16
REMARK    6  A    between atoms: C_16  and  C_17
REMARK    7  A    between atoms: C_17  and  C_18
REMARK    8  A    between atoms: C_18  and  C_19
REMARK    9  A    between atoms: N_21  and  C_22
REMARK   10  A    between atoms: C_22  and  C_23
REMARK   11  A    between atoms: C_23  and  C_24
REMARK   12  A    between atoms: C_24  and  N_70
REMARK   13  A    between atoms: C_26  and  C_33
REMARK   14  A    between atoms: C_29  and  C_32
REMARK                            x       y       z     vdW  Elec       q    Type
REMARK                         _______ _______ _______ _____ _____    ______ ____
ROOT
ATOM      1  C   UNL     1      -4.412  -0.077   3.071  0.00  0.00    +0.104 C 
ENDROOT
BRANCH   1   4
ATOM      2  C   UNL     1      -2.864   0.864   1.441  0.00  0.00    +0.233 C 
ATOM      3  O   UNL     1      -2.184   1.264   2.362  0.00  0.00    -0.274 OA
ATOM      4  N   UNL     1      -4.000   0.181   1.689  0.00  0.00    -0.314 N 
ATOM      5  H   UNL     1      -4.544  -0.139   0.952  0.00  0.00    +0.149 HD
BRANCH   2   6
ATOM      6  C   UNL     1      -2.440   1.130   0.020  0.00  0.00    +0.221 C 
BRANCH   6  15
ATOM      7  C   UNL     1       2.869   0.001  -0.024  0.00  0.00    +0.045 C 
ATOM      8  C   UNL     1       2.579   1.479  -0.015  0.00  0.00    -0.026 A 
ATOM      9  C   UNL     1       3.585   2.369  -0.020  0.00  0.00    -0.008 A 
ATOM     10  S   UNL     1       2.746   3.942  -0.004  0.00  0.00    -0.073 S 
ATOM     11  C   UNL     1       1.070   3.359   0.009  0.00  0.00    +0.116 A 
ATOM     12  C   UNL     1       1.210   1.959   0.001  0.00  0.00    +0.075 A 
ATOM     13  C   UNL     1      -0.015   1.215   0.009  0.00  0.00    +0.263 A 
ATOM     14  O   UNL     1       0.002  -0.004   0.002  0.00  0.00    -0.267 OA
ATOM     15  N   UNL     1      -1.183   1.883   0.018  0.00  0.00    -0.290 N 
ATOM     16  C   UNL     1      -1.221   3.240   0.030  0.00  0.00    +0.203 A 
ATOM     17  N   UNL     1      -0.122   3.947   0.024  0.00  0.00    -0.230 NA
ATOM     18  C   UNL     1       5.068   2.101  -0.036  0.00  0.00    +0.052 C 
ENDBRANCH   6  15
ENDBRANCH   2   6
ENDBRANCH   1   4
BRANCH   1  19
ATOM     19  C   UNL     1      -5.725  -0.863   3.073  0.00  0.00    +0.028 C 
BRANCH  19  20
ATOM     20  C   UNL     1      -6.155  -1.133   4.516  0.00  0.00    +0.097 C 
BRANCH  20  21
ATOM     21  C   UNL     1      -7.448  -1.908   4.518  0.00  0.00    +0.213 C 
ATOM     22  O   UNL     1      -7.973  -2.214   3.468  0.00  0.00    -0.276 OA
ATOM     23  N   UNL     1      -8.021  -2.260   5.686  0.00  0.00    -0.315 N 
ATOM     24  H   UNL     1      -7.601  -2.016   6.525  0.00  0.00    +0.149 HD
BRANCH  23  25
ATOM     25  C   UNL     1      -9.277  -3.013   5.687  0.00  0.00    +0.102 C 
BRANCH  25  26
ATOM     26  C   UNL     1      -9.708  -3.283   7.130  0.00  0.00    +0.000 C 
BRANCH  26  27
ATOM     27  C   UNL     1     -11.021  -4.069   7.132  0.00  0.00    -0.077 C 
BRANCH  27  35
ATOM     28  C   UNL     1     -10.484  -5.223   9.192  0.00  0.00    -0.076 C 
ATOM     29  C   UNL     1     -10.865  -5.354  10.669  0.00  0.00    -0.031 C 
ATOM     30  C   UNL     1     -12.286  -5.913  10.777  0.00  0.00    +0.003 C 
ATOM     31  C   UNL     1     -13.249  -4.989  10.025  0.00  0.00    -0.031 C 
ATOM     32  C   UNL     1     -12.799  -4.869   8.567  0.00  0.00    -0.076 C 
ATOM     33  C   UNL     1     -14.662  -5.573  10.077  0.00  0.00    +0.005 C 
ATOM     34  C   UNL     1     -10.806  -3.978  11.335  0.00  0.00    +0.005 C 
ATOM     35  N   UNL     1     -11.434  -4.302   8.532  0.00  0.00    +0.380 N 
ATOM     36  H   UNL     1     -11.432  -3.406   9.033  0.00  0.00    -0.082 HD
ENDBRANCH  27  35
ENDBRANCH  26  27
ENDBRANCH  25  26
ENDBRANCH  23  25
ENDBRANCH  20  21
ENDBRANCH  19  20
ENDBRANCH   1  19
TORSDOF 10
