REMARK  Name = ZINC65408005
REMARK  8 active torsions:
REMARK  status: ('A' for Active; 'I' for Inactive)
REMARK    1  A    between atoms: C_1  and  C_2
REMARK    2  A    between atoms: C_4  and  C_17
REMARK    3  A    between atoms: C_6  and  C_16
REMARK    4  A    between atoms: N_8  and  C_10
REMARK    5  A    between atoms: C_17  and  C_18
REMARK    6  A    between atoms: N_20  and  C_21
REMARK    7  A    between atoms: C_21  and  C_22
REMARK    8  A    between atoms: C_22  and  C_23
REMARK                            x       y       z     vdW  Elec       q    Type
REMARK                         _______ _______ _______ _____ _____    ______ ____
ROOT
ATOM      1  C   UNL     1      -1.871   0.521  -1.996  0.00  0.00    +0.213 C 
ATOM      2  O   UNL     1      -1.610   1.549  -1.407  0.00  0.00    -0.276 OA
ATOM      3  N   UNL     1      -2.189   0.557  -3.305  0.00  0.00    -0.315 N 
ATOM      4  H   UNL     1      -2.397  -0.265  -3.776  0.00  0.00    +0.149 HD
ENDROOT
BRANCH   1   5
ATOM      5  C   UNL     1      -1.838  -0.795  -1.264  0.00  0.00    +0.102 C 
BRANCH   5   8
ATOM      6  C   UNL     1       0.078  -2.247   1.040  0.00  0.00    +0.026 C 
ATOM      7  C   UNL     1      -1.406  -1.877   0.996  0.00  0.00    +0.075 C 
ATOM      8  C   UNL     1      -1.623  -0.543   0.230  0.00  0.00    +0.038 C 
ATOM      9  C   UNL     1      -2.918  -0.021   0.899  0.00  0.00    +0.093 C 
ATOM     10  N   UNL     1      -3.010  -0.736   2.183  0.00  0.00    -0.264 N 
ATOM     11  N   UNL     1      -1.908  -1.534   2.352  0.00  0.00    -0.237 NA
ATOM     12  C   UNL     1      -2.820   1.487   1.136  0.00  0.00    +0.030 C 
ATOM     13  H   UNL     1      -1.199  -1.062   2.892  0.00  0.00    +0.145 HD
BRANCH  10  14
ATOM     14  C   UNL     1      -4.063  -0.618   3.093  0.00  0.00    +0.045 A 
ATOM     15  C   UNL     1      -5.135   0.220   2.813  0.00  0.00    +0.024 A 
ATOM     16  C   UNL     1      -6.175   0.334   3.714  0.00  0.00    +0.002 A 
ATOM     17  C   UNL     1      -6.150  -0.385   4.895  0.00  0.00    +0.000 A 
ATOM     18  C   UNL     1      -5.084  -1.221   5.177  0.00  0.00    +0.002 A 
ATOM     19  C   UNL     1      -4.044  -1.343   4.277  0.00  0.00    +0.024 A 
ENDBRANCH  10  14
ENDBRANCH   5   8
ENDBRANCH   1   5
BRANCH   3  20
ATOM     20  C   UNL     1      -2.221   1.837  -4.016  0.00  0.00    +0.110 C 
BRANCH  20  21
ATOM     21  C   UNL     1      -2.607   1.599  -5.477  0.00  0.00    +0.074 C 
BRANCH  21  22
ATOM     22  C   UNL     1      -2.640   2.916  -6.209  0.00  0.00    +0.041 A 
ATOM     23  C   UNL     1      -1.589   3.535  -6.778  0.00  0.00    -0.004 A 
ATOM     24  C   UNL     1      -2.049   4.733  -7.352  0.00  0.00    +0.066 A 
ATOM     25  N   UNL     1      -3.329   4.823  -7.136  0.00  0.00    -0.178 NA
ATOM     26  N   UNL     1      -3.732   3.686  -6.419  0.00  0.00    -0.281 N 
ATOM     27  H   UNL     1      -4.634   3.488  -6.124  0.00  0.00    +0.189 HD
ATOM     28  C   UNL     1      -1.152   5.706  -8.078  0.00  0.00    +0.057 C 
ATOM     29  C   UNL     1       0.302   5.383  -7.712  0.00  0.00    +0.007 C 
ATOM     30  C   UNL     1       0.567   3.889  -7.917  0.00  0.00    +0.005 C 
ATOM     31  C   UNL     1      -0.151   3.082  -6.829  0.00  0.00    +0.039 C 
ENDBRANCH  21  22
ENDBRANCH  20  21
ENDBRANCH   3  20
TORSDOF 6
