REMARK  Name = ZINC36660366
REMARK  11 active torsions:
REMARK  status: ('A' for Active; 'I' for Inactive)
REMARK    1  A    between atoms: C_1  and  C_2
REMARK    2  A    between atoms: C_4  and  C_36
REMARK    3  A    between atoms: N_11  and  C_12
REMARK    4  A    between atoms: C_12  and  C_13
REMARK    5  A    between atoms: C_13  and  C_14
REMARK    6  A    between atoms: C_14  and  N_15
REMARK    7  A    between atoms: N_15  and  C_16
REMARK    8  A    between atoms: N_15  and  C_17
REMARK    9  A    between atoms: C_18  and  C_20
REMARK   10  A    between atoms: N_25  and  S_26
REMARK   11  A    between atoms: S_26  and  C_29
REMARK                            x       y       z     vdW  Elec       q    Type
REMARK                         _______ _______ _______ _____ _____    ______ ____
ROOT
ATOM      1  C   UNL     1       0.146   1.731   1.706  0.00  0.00    +0.044 C 
ATOM      2  C   UNL     1       0.249   0.248   1.455  0.00  0.00    -0.048 A 
ATOM      3  C   UNL     1       0.449  -0.208   0.160  0.00  0.00    +0.008 A 
ATOM      4  C   UNL     1       0.543  -1.567  -0.072  0.00  0.00    -0.034 A 
ATOM      5  C   UNL     1       0.437  -2.443   0.979  0.00  0.00    +0.044 A 
ATOM      6  C   UNL     1       0.233  -2.015   2.311  0.00  0.00    +0.081 A 
ATOM      7  C   UNL     1       0.147  -0.618   2.512  0.00  0.00    +0.032 A 
ATOM      8  N   UNL     1       0.150  -2.997   3.235  0.00  0.00    -0.224 NA
ATOM      9  C   UNL     1       0.251  -4.268   2.924  0.00  0.00    +0.168 A 
ATOM     10  S   UNL     1       0.493  -4.210   1.155  0.00  0.00    -0.052 S 
ATOM     11  N   UNL     1       0.186  -5.374   3.757  0.00  0.00    -0.249 N 
ATOM     12  C   UNL     1       0.315  -6.613   3.243  0.00  0.00    +0.240 C 
ATOM     13  O   UNL     1       0.579  -6.758   2.068  0.00  0.00    -0.273 OA
ATOM     14  C   UNL     1       0.759  -2.085  -1.471  0.00  0.00    +0.045 C 
ENDROOT
BRANCH  12  15
ATOM     15  C   UNL     1       0.129  -7.819   4.127  0.00  0.00    +0.166 C 
ATOM     16  C   UNL     1       1.483  -8.232   4.742  0.00  0.00    +0.031 C 
ATOM     17  C   UNL     1       1.419  -9.781   4.716  0.00  0.00    +0.019 C 
ATOM     18  C   UNL     1       0.646 -10.038   3.398  0.00  0.00    +0.110 C 
ATOM     19  N   UNL     1      -0.356  -8.954   3.329  0.00  0.00    -0.165 NA
BRANCH  19  20
ATOM     20  S   UNL     1      -1.785  -9.007   2.495  0.00  0.00    +0.062 S 
ATOM     21  O   UNL     1      -2.196 -10.367   2.480  0.00  0.00    -0.153 OA
ATOM     22  O   UNL     1      -2.601  -7.970   3.021  0.00  0.00    -0.153 OA
BRANCH  20  23
ATOM     23  C   UNL     1      -1.430  -8.570   0.825  0.00  0.00    +0.106 A 
ATOM     24  C   UNL     1      -1.587  -7.263   0.405  0.00  0.00    +0.031 A 
ATOM     25  C   UNL     1      -1.308  -6.918  -0.904  0.00  0.00    +0.040 A 
ATOM     26  C   UNL     1      -0.872  -7.884  -1.795  0.00  0.00    +0.124 A 
ATOM     27  C   UNL     1      -0.715  -9.194  -1.373  0.00  0.00    +0.040 A 
ATOM     28  C   UNL     1      -0.989  -9.534  -0.062  0.00  0.00    +0.031 A 
ATOM     29  F   UNL     1      -0.599  -7.549  -3.075  0.00  0.00    -0.205 F 
ENDBRANCH  20  23
ENDBRANCH  19  20
ENDBRANCH  12  15
BRANCH  11  30
ATOM     30  C   UNL     1      -0.021  -5.196   5.196  0.00  0.00    +0.114 C 
BRANCH  30  31
ATOM     31  C   UNL     1      -1.521  -5.145   5.493  0.00  0.00    +0.001 C 
BRANCH  31  32
ATOM     32  C   UNL     1      -1.738  -4.959   6.996  0.00  0.00    -0.078 C 
BRANCH  32  33
ATOM     33  N   UNL     1      -3.178  -4.910   7.281  0.00  0.00    +0.376 N 
ATOM     34  C   UNL     1      -3.388  -4.852   8.733  0.00  0.00    -0.097 C 
ATOM     35  C   UNL     1      -3.761  -3.716   6.653  0.00  0.00    -0.097 C 
ATOM     36  H   UNL     1      -3.623  -5.736   6.909  0.00  0.00    -0.083 HD
ENDBRANCH  32  33
ENDBRANCH  31  32
ENDBRANCH  30  31
ENDBRANCH  11  30
TORSDOF 7
