REMARK  Name = ZINC63279859
REMARK  8 active torsions:
REMARK  status: ('A' for Active; 'I' for Inactive)
REMARK    1  A    between atoms: C_1  and  C_2
REMARK    2  A    between atoms: C_2  and  C_4
REMARK    3  A    between atoms: C_2  and  N_19
REMARK    4  A    between atoms: N_6  and  C_7
REMARK    5  A    between atoms: C_7  and  C_8
REMARK    6  A    between atoms: C_8  and  C_9
REMARK    7  A    between atoms: C_20  and  C_22
REMARK    8  A    between atoms: C_22  and  C_23
REMARK                            x       y       z     vdW  Elec       q    Type
REMARK                         _______ _______ _______ _____ _____    ______ ____
ROOT
ATOM      1  C   UNL     1      -0.019   1.526   0.010  0.00  0.00    +0.038 C 
ATOM      2  C   UNL     1       0.002  -0.004   0.002  0.00  0.00    +0.156 C 
ENDROOT
BRANCH   2   3
ATOM      3  C   UNL     1       0.707  -0.490  -1.238  0.00  0.00    +0.233 C 
ATOM      4  O   UNL     1       1.704  -1.174  -1.140  0.00  0.00    -0.274 OA
ATOM      5  N   UNL     1       0.231  -0.164  -2.456  0.00  0.00    -0.313 N 
ATOM      6  H   UNL     1      -0.566   0.383  -2.534  0.00  0.00    +0.149 HD
BRANCH   5   7
ATOM      7  C   UNL     1       0.917  -0.637  -3.661  0.00  0.00    +0.108 C 
BRANCH   7   8
ATOM      8  C   UNL     1       0.177  -0.130  -4.901  0.00  0.00    +0.052 C 
BRANCH   8   9
ATOM      9  C   UNL     1       0.882  -0.616  -6.141  0.00  0.00    -0.040 C 
ATOM     10  C   UNL     1       0.586  -1.719  -6.865  0.00  0.00    +0.000 A 
ATOM     11  C   UNL     1      -0.442  -2.756  -6.721  0.00  0.00    +0.030 A 
ATOM     12  C   UNL     1      -0.491  -3.763  -7.625  0.00  0.00    +0.042 A 
ATOM     13  C   UNL     1       0.415  -3.838  -8.693  0.00  0.00    +0.022 A 
ATOM     14  C   UNL     1       1.387  -2.922  -8.891  0.00  0.00    +0.027 A 
ATOM     15  C   UNL     1       1.529  -1.821  -8.001  0.00  0.00    +0.043 A 
ATOM     16  N   UNL     1       2.376  -0.820  -7.980  0.00  0.00    -0.380 N 
ATOM     17  C   UNL     1       2.060   0.035  -6.830  0.00  0.00    +0.144 C 
ATOM     18 CL   UNL     1      -1.705  -4.992  -7.457  0.00  0.00    -0.084 Cl
ATOM     19  H   UNL     1       3.089  -0.668  -8.620  0.00  0.00    +0.160 HD
ENDBRANCH   8   9
ENDBRANCH   7   8
ENDBRANCH   5   7
ENDBRANCH   2   3
BRANCH   2  20
ATOM     20  N   UNL     1       0.711  -0.489   1.189  0.00  0.00    -0.304 N 
ATOM     21  C   UNL     1       0.051  -0.633   2.355  0.00  0.00    +0.216 C 
ATOM     22  O   UNL     1      -1.129  -0.361   2.423  0.00  0.00    -0.276 OA
ATOM     23  H   UNL     1       1.654  -0.707   1.135  0.00  0.00    +0.149 HD
BRANCH  21  24
ATOM     24  C   UNL     1       0.780  -1.133   3.576  0.00  0.00    +0.126 C 
BRANCH  24  25
ATOM     25  C   UNL     1      -0.191  -1.204   4.756  0.00  0.00    +0.136 C 
ATOM     26  C   UNL     1       0.613  -1.495   6.002  0.00  0.00    -0.011 A 
ATOM     27  C   UNL     1       1.632  -0.684   6.429  0.00  0.00    +0.006 A 
ATOM     28  C   UNL     1       2.328  -1.012   7.583  0.00  0.00    +0.000 A 
ATOM     29  C   UNL     1       2.000  -2.149   8.301  0.00  0.00    +0.001 A 
ATOM     30  C   UNL     1       0.975  -2.973   7.878  0.00  0.00    +0.013 A 
ATOM     31  C   UNL     1       0.272  -2.649   6.721  0.00  0.00    +0.045 A 
ATOM     32  C   UNL     1      -0.834  -3.482   6.213  0.00  0.00    +0.283 C 
ATOM     33  O   UNL     1      -1.151  -4.488   6.816  0.00  0.00    -0.267 OA
ATOM     34  N   UNL     1      -1.494  -3.145   5.094  0.00  0.00    -0.105 NA
ATOM     35  N   UNL     1      -1.258  -2.153   4.407  0.00  0.00    -0.306 N 
ATOM     36  H   UNL     1      -1.791  -1.993   3.613  0.00  0.00    +0.181 HD
ENDBRANCH  24  25
ENDBRANCH  21  24
ENDBRANCH   2  20
TORSDOF 7
