REMARK  Name = ZINC47534374
REMARK  4 active torsions:
REMARK  status: ('A' for Active; 'I' for Inactive)
REMARK    1  A    between atoms: C_1  and  C_2
REMARK    2  A    between atoms: C_2  and  C_4
REMARK    3  A    between atoms: C_2  and  N_16
REMARK    4  A    between atoms: C_17  and  C_19
REMARK                            x       y       z     vdW  Elec       q    Type
REMARK                         _______ _______ _______ _____ _____    ______ ____
ROOT
ATOM      1  N   UNL     1       0.711  -0.489   1.189  0.00  0.00    -0.305 N 
ATOM      2  C   UNL     1       2.054  -0.600   1.174  0.00  0.00    +0.245 C 
ATOM      3  O   UNL     1       2.678  -0.297   0.175  0.00  0.00    -0.270 OA
ATOM      4  H   UNL     1       0.213  -0.731   1.986  0.00  0.00    +0.150 HD
ENDROOT
BRANCH   2   5
ATOM      5  C   UNL     1       2.767  -1.088   2.369  0.00  0.00    +0.039 A 
ATOM      6  C   UNL     1       2.048  -1.442   3.514  0.00  0.00    +0.014 A 
ATOM      7  C   UNL     1       2.717  -1.900   4.628  0.00  0.00    +0.017 A 
ATOM      8  C   UNL     1       4.101  -2.009   4.612  0.00  0.00    +0.030 A 
ATOM      9  C   UNL     1       4.834  -1.655   3.473  0.00  0.00    +0.048 A 
ATOM     10  C   UNL     1       4.159  -1.202   2.351  0.00  0.00    +0.037 A 
ATOM     11  N   UNL     1       6.223  -1.748   3.444  0.00  0.00    -0.284 N 
ATOM     12  C   UNL     1       6.978  -2.510   4.231  0.00  0.00    +0.227 C 
ATOM     13  O   UNL     1       8.180  -2.485   4.070  0.00  0.00    -0.275 OA
ATOM     14  C   UNL     1       6.424  -3.401   5.308  0.00  0.00    +0.170 C 
ATOM     15  S   UNL     1       4.962  -2.600   6.035  0.00  0.00    -0.114 S 
ATOM     16  H   UNL     1       6.685  -1.205   2.786  0.00  0.00    +0.155 HD
ENDBRANCH   2   5
BRANCH   1  18
ATOM     17  C   UNL     1      -0.019   1.526   0.010  0.00  0.00    +0.033 C 
ATOM     18  C   UNL     1       0.002  -0.004   0.002  0.00  0.00    +0.100 C 
BRANCH  18  19
ATOM     19  C   UNL     1      -1.412  -0.526   0.013  0.00  0.00    -0.025 A 
ATOM     20  C   UNL     1      -2.121  -0.570   1.201  0.00  0.00    +0.007 A 
ATOM     21  C   UNL     1      -3.417  -1.046   1.221  0.00  0.00    +0.028 A 
ATOM     22  C   UNL     1      -4.011  -1.482   0.046  0.00  0.00    +0.067 A 
ATOM     23  C   UNL     1      -3.295  -1.438  -1.153  0.00  0.00    +0.067 A 
ATOM     24  C   UNL     1      -1.996  -0.953  -1.164  0.00  0.00    +0.033 A 
ATOM     25  N   UNL     1      -4.139  -1.932  -2.144  0.00  0.00    -0.306 N 
ATOM     26  H   UNL     1      -3.918  -2.023  -3.084  0.00  0.00    +0.170 HD
ATOM     27  C   UNL     1      -5.314  -2.262  -1.575  0.00  0.00    +0.325 A 
ATOM     28  O   UNL     1      -6.272  -2.725  -2.165  0.00  0.00    -0.247 OA
ATOM     29  N   UNL     1      -5.267  -2.002  -0.255  0.00  0.00    -0.306 N 
ATOM     30  H   UNL     1      -5.986  -2.151   0.379  0.00  0.00    +0.170 HD
ENDBRANCH  18  19
ENDBRANCH   1  18
TORSDOF 3
