REMARK  Name = ZINC22829203
REMARK  4 active torsions:
REMARK  status: ('A' for Active; 'I' for Inactive)
REMARK    1  A    between atoms: C_4  and  N_22
REMARK    2  A    between atoms: C_5  and  N_7
REMARK    3  A    between atoms: C_8  and  C_10
REMARK    4  A    between atoms: C_10  and  N_11
REMARK                            x       y       z     vdW  Elec       q    Type
REMARK                         _______ _______ _______ _____ _____    ______ ____
ROOT
ATOM      1  N   UNL     1       1.139   2.191  -0.014  0.00  0.00    -0.283 N 
ATOM      2  C   UNL     1       0.138   1.497   0.562  0.00  0.00    +0.235 C 
ATOM      3  O   UNL     1      -0.774   2.084   1.105  0.00  0.00    -0.274 OA
ATOM      4  H   UNL     1       2.011   1.661  -0.426  0.00  0.00    +0.155 HD
ENDROOT
BRANCH   1   9
ATOM      5  C   UNL     1      -0.230   5.604  -0.142  0.00  0.00    +0.002 A 
ATOM      6  C   UNL     1       0.928   6.353  -0.239  0.00  0.00    +0.002 A 
ATOM      7  C   UNL     1       2.160   5.727  -0.263  0.00  0.00    +0.025 A 
ATOM      8  C   UNL     1       2.237   4.344  -0.183  0.00  0.00    +0.051 A 
ATOM      9  C   UNL     1       1.068   3.589  -0.090  0.00  0.00    +0.055 A 
ATOM     10  C   UNL     1      -0.163   4.226  -0.067  0.00  0.00    +0.025 A 
BRANCH   8  11
ATOM     11  N   UNL     1       3.483   3.709  -0.201  0.00  0.00    -0.328 N 
ATOM     12  C   UNL     1       4.195   3.900   1.082  0.00  0.00    +0.105 C 
ATOM     13  C   UNL     1       5.637   3.474   1.019  0.00  0.00    +0.019 C 
ATOM     14  C   UNL     1       6.497   4.708   0.678  0.00  0.00    +0.002 C 
ATOM     15  C   UNL     1       6.450   5.038  -0.742  0.00  0.00    +0.002 C 
ATOM     16  C   UNL     1       5.021   5.380  -1.213  0.00  0.00    +0.019 C 
ATOM     17  C   UNL     1       4.259   4.097  -1.401  0.00  0.00    +0.105 C 
ENDBRANCH   8  11
ENDBRANCH   1   9
BRANCH   2  18
ATOM     18  C   UNL     1       0.150  -0.010   0.529  0.00  0.00    +0.214 C 
BRANCH  18  19
ATOM     19  N   UNL     1      -1.036  -0.523   1.218  0.00  0.00    -0.215 N 
ATOM     20  C   UNL     1      -2.218  -0.772   0.613  0.00  0.00    +0.247 C 
ATOM     21  O   UNL     1      -2.491  -0.620  -0.558  0.00  0.00    -0.273 OA
ATOM     22  C   UNL     1      -3.125  -1.279   1.706  0.00  0.00    +0.113 C 
ATOM     23  C   UNL     1      -3.622  -2.697   1.395  0.00  0.00    +0.035 C 
ATOM     24  C   UNL     1      -5.066  -2.720   1.960  0.00  0.00    +0.003 C 
ATOM     25  C   UNL     1      -5.584  -1.296   1.639  0.00  0.00    +0.003 C 
ATOM     26  C   UNL     1      -4.357  -0.385   1.865  0.00  0.00    +0.035 C 
ATOM     27  N   UNL     1      -2.293  -1.262   2.910  0.00  0.00    -0.285 N 
ATOM     28  C   UNL     1      -1.083  -0.809   2.526  0.00  0.00    +0.310 C 
ATOM     29  O   UNL     1      -0.140  -0.673   3.281  0.00  0.00    -0.252 OA
ATOM     30  H   UNL     1      -2.714  -1.585   3.874  0.00  0.00    +0.151 HD
ENDBRANCH  18  19
ENDBRANCH   2  18
TORSDOF 4
