REMARK  Name = ZINC39908677
REMARK  4 active torsions:
REMARK  status: ('A' for Active; 'I' for Inactive)
REMARK    1  A    between atoms: N_10  and  C_11
REMARK    2  A    between atoms: C_11  and  C_13
REMARK    3  A    between atoms: C_11  and  N_17
REMARK    4  A    between atoms: C_18  and  C_20
REMARK                            x       y       z     vdW  Elec       q    Type
REMARK                         _______ _______ _______ _____ _____    ______ ____
ROOT
ATOM      1  C   UNL     1      -0.017   1.366   0.010  0.00  0.00    +0.002 A 
ATOM      2  C   UNL     1       1.156   2.107   0.002  0.00  0.00    +0.001 A 
ATOM      3  C   UNL     1       2.373   1.449  -0.013  0.00  0.00    +0.017 A 
ATOM      4  C   UNL     1       2.401   0.077  -0.020  0.00  0.00    +0.041 A 
ATOM      5  C   UNL     1       1.227  -0.710  -0.013  0.00  0.00    +0.080 A 
ATOM      6  C   UNL     1       0.002  -0.004   0.002  0.00  0.00    +0.029 A 
ATOM      7  N   UNL     1       1.419  -2.047  -0.023  0.00  0.00    -0.225 NA
ATOM      8  C   UNL     1       2.616  -2.588  -0.037  0.00  0.00    +0.161 A 
ATOM      9  S   UNL     1       3.682  -1.153  -0.040  0.00  0.00    -0.052 S 
ATOM     10  N   UNL     1       2.963  -3.924  -0.048  0.00  0.00    -0.302 N 
ATOM     11  H   UNL     1       2.271  -4.604  -0.045  0.00  0.00    +0.150 HD
ENDROOT
BRANCH  10  12
ATOM     12  C   UNL     1       4.375  -4.314  -0.064  0.00  0.00    +0.211 C 
BRANCH  12  13
ATOM     13  C   UNL     1       4.584  -5.428  -1.093  0.00  0.00    +0.225 C 
ATOM     14 CL   UNL     1       4.106  -4.834  -2.727  0.00  0.00    -0.080 Cl
ATOM     15 CL   UNL     1       6.322  -5.908  -1.112  0.00  0.00    -0.080 Cl
ATOM     16 CL   UNL     1       3.572  -6.852  -0.651  0.00  0.00    -0.080 Cl
ENDBRANCH  12  13
BRANCH  12  17
ATOM     17  N   UNL     1       4.763  -4.796   1.264  0.00  0.00    -0.293 N 
ATOM     18  C   UNL     1       5.515  -4.021   2.069  0.00  0.00    +0.229 C 
ATOM     19  O   UNL     1       5.870  -2.923   1.694  0.00  0.00    -0.274 OA
ATOM     20  H   UNL     1       4.479  -5.674   1.563  0.00  0.00    +0.151 HD
BRANCH  18  21
ATOM     21  C   UNL     1       5.915  -4.516   3.435  0.00  0.00    +0.204 C 
ATOM     22 CL   UNL     1       6.909  -3.261   4.263  0.00  0.00    -0.116 Cl
ENDBRANCH  18  21
ENDBRANCH  12  17
ENDBRANCH  10  12
TORSDOF 4
