REMARK  Name = ZINC12483882
REMARK  9 active torsions:
REMARK  status: ('A' for Active; 'I' for Inactive)
REMARK    1  A    between atoms: C_1  and  O_2
REMARK    2  A    between atoms: O_2  and  C_3
REMARK    3  A    between atoms: C_8  and  N_9
REMARK    4  A    between atoms: N_12  and  C_15
REMARK    5  A    between atoms: C_17  and  O_37
REMARK    6  A    between atoms: C_19  and  N_28
REMARK    7  A    between atoms: N_28  and  C_29
REMARK    8  A    between atoms: C_29  and  C_30
REMARK    9  A    between atoms: C_35  and  O_36
REMARK                            x       y       z     vdW  Elec       q    Type
REMARK                         _______ _______ _______ _____ _____    ______ ____
ROOT
ATOM      1  C   UNL     1      -5.391   6.871   0.054  0.00  0.00    +0.140 C 
ATOM      2  C   UNL     1      -5.594   7.586  -1.286  0.00  0.00    +0.125 C 
ATOM      3  C   UNL     1      -4.570   8.720  -1.415  0.00  0.00    -0.009 C 
ATOM      4  C   UNL     1      -4.647   9.594  -0.153  0.00  0.00    +0.136 C 
ATOM      5  C   UNL     1      -6.141   9.863   0.143  0.00  0.00    +0.193 C 
ATOM      6  O   UNL     1      -6.549   8.785   1.004  0.00  0.00    -0.347 OA
ATOM      7  C   UNL     1      -5.376   7.918   1.178  0.00  0.00    +0.270 C 
ATOM      8  O   UNL     1      -4.229   8.770   0.964  0.00  0.00    -0.346 OA
ENDROOT
BRANCH   1  12
ATOM      9  N   UNL     1      -2.449   3.841   0.165  0.00  0.00    -0.325 N 
ATOM     10  C   UNL     1      -2.683   4.527  -1.114  0.00  0.00    +0.120 C 
ATOM     11  C   UNL     1      -4.057   5.200  -1.085  0.00  0.00    +0.104 C 
ATOM     12  N   UNL     1      -4.112   6.148   0.037  0.00  0.00    -0.290 NA
ATOM     13  C   UNL     1      -3.878   5.462   1.315  0.00  0.00    +0.104 C 
ATOM     14  C   UNL     1      -2.504   4.789   1.286  0.00  0.00    +0.120 C 
BRANCH   9  20
ATOM     15  C   UNL     1      -1.212   1.763   0.253  0.00  0.00    +0.141 A 
ATOM     16  C   UNL     1      -0.003   1.088   0.243  0.00  0.00    +0.047 A 
ATOM     17  C   UNL     1       1.181   1.791   0.118  0.00  0.00    +0.004 A 
ATOM     18  C   UNL     1       1.163   3.169   0.009  0.00  0.00    +0.002 A 
ATOM     19  C   UNL     1      -0.039   3.851   0.024  0.00  0.00    +0.027 A 
ATOM     20  C   UNL     1      -1.231   3.152   0.149  0.00  0.00    +0.072 A 
BRANCH  15  22
ATOM     21  C   UNL     1      -2.281  -0.349   0.479  0.00  0.00    +0.277 C 
ATOM     22  O   UNL     1      -2.378   1.073   0.370  0.00  0.00    -0.493 OA
ENDBRANCH  15  22
ENDBRANCH   9  20
ENDBRANCH   1  12
BRANCH   3  23
ATOM     23  N   UNL     1      -3.221   8.153  -1.542  0.00  0.00    +0.387 N 
ATOM     24  H   UNL     1      -2.813   7.951  -0.541  0.00  0.00    -0.085 HD
ATOM     25  H   UNL     1      -3.269   7.216  -2.115  0.00  0.00    -0.085 HD
BRANCH  23  26
ATOM     26  C   UNL     1      -2.322   9.085  -2.237  0.00  0.00    -0.042 C 
BRANCH  26  27
ATOM     27  C   UNL     1      -0.950   8.471  -2.348  0.00  0.00    -0.023 A 
ATOM     28  C   UNL     1       0.048   8.845  -1.468  0.00  0.00    +0.005 A 
ATOM     29  C   UNL     1       1.305   8.279  -1.567  0.00  0.00    +0.000 A 
ATOM     30  C   UNL     1       1.570   7.345  -2.551  0.00  0.00    +0.004 A 
ATOM     31  C   UNL     1       0.578   6.972  -3.436  0.00  0.00    +0.045 A 
ATOM     32  C   UNL     1      -0.687   7.535  -3.336  0.00  0.00    +0.118 A 
BRANCH  32  33
ATOM     33  O   UNL     1      -1.665   7.169  -4.205  0.00  0.00    -0.507 OA
ATOM     34  H   UNL     1      -1.455   6.426  -4.989  0.00  0.00    +0.292 HD
ENDBRANCH  32  33
ENDBRANCH  26  27
ENDBRANCH  23  26
ENDBRANCH   3  23
BRANCH   2  35
ATOM     35  O   UNL     1      -6.916   8.127  -1.343  0.00  0.00    -0.392 OA
ATOM     36  H   UNL     1      -7.246   8.679  -2.235  0.00  0.00    +0.210 HD
ENDBRANCH   2  35
TORSDOF 8
