REMARK  Name = ZINC36660301
REMARK  10 active torsions:
REMARK  status: ('A' for Active; 'I' for Inactive)
REMARK    1  A    between atoms: C_1  and  C_2
REMARK    2  A    between atoms: C_5  and  S_8
REMARK    3  A    between atoms: S_8  and  N_11
REMARK    4  A    between atoms: C_15  and  C_17
REMARK    5  A    between atoms: N_19  and  C_20
REMARK    6  A    between atoms: C_20  and  C_21
REMARK    7  A    between atoms: C_21  and  C_22
REMARK    8  A    between atoms: C_22  and  N_23
REMARK    9  A    between atoms: N_23  and  C_24
REMARK   10  A    between atoms: N_23  and  C_25
REMARK                            x       y       z     vdW  Elec       q    Type
REMARK                         _______ _______ _______ _____ _____    ______ ____
ROOT
ATOM      1  C   UNL     1       2.696  -4.129   1.822  0.00  0.00    +0.240 C 
ATOM      2  O   UNL     1       2.045  -3.122   1.640  0.00  0.00    -0.273 OA
ATOM      3  N   UNL     1       3.546  -4.202   2.866  0.00  0.00    -0.249 N 
ATOM      4  C   UNL     1       3.759  -3.091   3.666  0.00  0.00    +0.168 A 
ATOM      5  N   UNL     1       4.543  -2.966   4.710  0.00  0.00    -0.221 NA
ATOM      6  C   UNL     1       4.654  -1.810   5.402  0.00  0.00    +0.116 A 
ATOM      7  C   UNL     1       5.456  -1.546   6.538  0.00  0.00    +0.152 A 
ATOM      8  C   UNL     1       5.452  -0.306   7.126  0.00  0.00    +0.079 A 
ATOM      9  C   UNL     1       4.666   0.728   6.632  0.00  0.00    +0.127 A 
ATOM     10  C   UNL     1       3.870   0.503   5.522  0.00  0.00    +0.055 A 
ATOM     11  C   UNL     1       3.869  -0.736   4.928  0.00  0.00    +0.046 A 
ATOM     12  S   UNL     1       3.043  -1.459   3.531  0.00  0.00    -0.052 S 
ATOM     13  F   UNL     1       4.679   1.940   7.228  0.00  0.00    -0.205 F 
ATOM     14  F   UNL     1       6.234  -2.525   7.049  0.00  0.00    -0.203 F 
ENDROOT
BRANCH   1  19
ATOM     15  N   UNL     1       1.233  -5.266   0.239  0.00  0.00    -0.165 NA
ATOM     16  C   UNL     1       1.419  -5.174  -1.220  0.00  0.00    +0.110 C 
ATOM     17  C   UNL     1       2.822  -4.545  -1.403  0.00  0.00    +0.019 C 
ATOM     18  C   UNL     1       3.612  -5.202  -0.240  0.00  0.00    +0.031 C 
ATOM     19  C   UNL     1       2.556  -5.298   0.881  0.00  0.00    +0.166 C 
BRANCH  15  20
ATOM     20  S   UNL     1      -0.223  -5.319   1.026  0.00  0.00    +0.062 S 
ATOM     21  O   UNL     1       0.040  -5.810   2.333  0.00  0.00    -0.153 OA
ATOM     22  O   UNL     1      -1.138  -5.954   0.143  0.00  0.00    -0.153 OA
BRANCH  20  27
ATOM     23  C   UNL     1      -2.115   0.374   1.669  0.00  0.00    +0.044 C 
ATOM     24  C   UNL     1      -1.642  -1.048   1.508  0.00  0.00    -0.050 A 
ATOM     25  C   UNL     1      -1.891  -1.730   0.332  0.00  0.00    +0.005 A 
ATOM     26  C   UNL     1      -1.457  -3.034   0.184  0.00  0.00    +0.029 A 
ATOM     27  C   UNL     1      -0.775  -3.656   1.213  0.00  0.00    +0.106 A 
ATOM     28  C   UNL     1      -0.525  -2.974   2.389  0.00  0.00    +0.029 A 
ATOM     29  C   UNL     1      -0.955  -1.668   2.535  0.00  0.00    +0.005 A 
ENDBRANCH  20  27
ENDBRANCH  15  20
ENDBRANCH   1  19
BRANCH   3  30
ATOM     30  C   UNL     1       4.243  -5.458   3.156  0.00  0.00    +0.114 C 
BRANCH  30  31
ATOM     31  C   UNL     1       5.610  -5.452   2.469  0.00  0.00    +0.001 C 
BRANCH  31  32
ATOM     32  C   UNL     1       6.289  -6.808   2.673  0.00  0.00    -0.078 C 
BRANCH  32  33
ATOM     33  N   UNL     1       7.602  -6.802   2.014  0.00  0.00    +0.376 N 
ATOM     34  C   UNL     1       8.304  -8.058   2.309  0.00  0.00    -0.097 C 
ATOM     35  C   UNL     1       7.420  -6.673   0.562  0.00  0.00    -0.097 C 
ATOM     36  H   UNL     1       8.146  -6.024   2.355  0.00  0.00    -0.083 HD
ENDBRANCH  32  33
ENDBRANCH  31  32
ENDBRANCH  30  31
ENDBRANCH   3  30
TORSDOF 7
