REMARK  Name = ZINC53045287
REMARK  5 active torsions:
REMARK  status: ('A' for Active; 'I' for Inactive)
REMARK    1  A    between atoms: C_5  and  N_8
REMARK    2  A    between atoms: C_6  and  N_7
REMARK    3  A    between atoms: N_8  and  C_9
REMARK    4  A    between atoms: C_9  and  C_14
REMARK    5  A    between atoms: C_14  and  O_15
REMARK                            x       y       z     vdW  Elec       q    Type
REMARK                         _______ _______ _______ _____ _____    ______ ____
ROOT
ATOM      1  C   UNL     1      -0.256   1.190   0.398  0.00  0.00    +0.040 A 
ATOM      2  C   UNL     1       0.895   1.975   0.304  0.00  0.00    +0.067 A 
ATOM      3  C   UNL     1       2.157   1.366   0.115  0.00  0.00    +0.080 A 
ATOM      4  C   UNL     1       2.243  -0.022   0.022  0.00  0.00    +0.053 A 
ATOM      5  C   UNL     1       1.096  -0.789   0.116  0.00  0.00    +0.051 A 
ATOM      6  C   UNL     1      -0.154  -0.183   0.305  0.00  0.00    +0.047 A 
ATOM      7  N   UNL     1       3.260   2.153   0.026  0.00  0.00    -0.237 NA
ATOM      8  C   UNL     1       3.182   3.446   0.112  0.00  0.00    +0.199 A 
ATOM      9  N   UNL     1       2.011   4.113   0.294  0.00  0.00    -0.313 N 
ATOM     10  H   UNL     1       2.014   5.081   0.351  0.00  0.00    +0.170 HD
ATOM     11  C   UNL     1       0.842   3.439   0.397  0.00  0.00    +0.259 A 
ATOM     12  O   UNL     1      -0.213   4.024   0.560  0.00  0.00    -0.267 OA
ENDROOT
BRANCH   6  13
ATOM     13  N   UNL     1      -1.305  -0.975   0.399  0.00  0.00    -0.357 N 
ATOM     14  H   UNL     1      -2.171  -0.558   0.529  0.00  0.00    +0.142 HD
ATOM     15  H   UNL     1      -1.236  -1.940   0.334  0.00  0.00    +0.142 HD
ENDBRANCH   6  13
BRANCH   5  16
ATOM     16  N   UNL     1       1.184  -2.177   0.022  0.00  0.00    -0.335 N 
ATOM     17  H   UNL     1       0.380  -2.718   0.071  0.00  0.00    +0.147 HD
BRANCH  16  18
ATOM     18  C   UNL     1       2.489  -2.819  -0.149  0.00  0.00    +0.055 C 
ATOM     19  C   UNL     1       2.307  -4.331  -0.393  0.00  0.00    +0.028 C 
ATOM     20  C   UNL     1       2.337  -4.474  -1.935  0.00  0.00    +0.002 C 
ATOM     21  C   UNL     1       3.416  -3.444  -2.352  0.00  0.00    +0.002 C 
ATOM     22  C   UNL     1       3.194  -2.255  -1.395  0.00  0.00    +0.028 C 
BRANCH  18  23
ATOM     23  C   UNL     1       3.354  -2.587   1.092  0.00  0.00    +0.181 C 
BRANCH  23  24
ATOM     24  O   UNL     1       2.702  -3.141   2.237  0.00  0.00    -0.393 OA
ATOM     25  H   UNL     1       3.194  -3.031   3.062  0.00  0.00    +0.209 HD
ENDBRANCH  23  24
ENDBRANCH  18  23
ENDBRANCH  16  18
ENDBRANCH   5  16
TORSDOF 5
