REMARK  Name = ZINC17270455
REMARK  9 active torsions:
REMARK  status: ('A' for Active; 'I' for Inactive)
REMARK    1  A    between atoms: C_1  and  C_2
REMARK    2  A    between atoms: C_2  and  O_3
REMARK    3  A    between atoms: O_3  and  C_4
REMARK    4  A    between atoms: C_7  and  C_10
REMARK    5  A    between atoms: N_12  and  N_13
REMARK    6  A    between atoms: C_14  and  C_16
REMARK    7  A    between atoms: C_19  and  N_22
REMARK    8  A    between atoms: N_22  and  S_23
REMARK    9  A    between atoms: S_23  and  C_26
REMARK                            x       y       z     vdW  Elec       q    Type
REMARK                         _______ _______ _______ _____ _____    ______ ____
ROOT
ATOM      1  C   UNL     1       2.446  -1.636   2.646  0.00  0.00    +0.038 A 
ATOM      2  C   UNL     1       1.251  -2.247   2.256  0.00  0.00    +0.015 A 
ATOM      3  C   UNL     1       0.456  -1.655   1.301  0.00  0.00    +0.025 A 
ATOM      4  C   UNL     1       0.842  -0.449   0.723  0.00  0.00    +0.048 A 
ATOM      5  C   UNL     1       2.034   0.160   1.105  0.00  0.00    +0.025 A 
ATOM      6  C   UNL     1       2.830  -0.424   2.063  0.00  0.00    +0.015 A 
ENDROOT
BRANCH   1   8
ATOM      7  N   UNL     1       4.452  -1.677   4.044  0.00  0.00    -0.230 N 
ATOM      8  C   UNL     1       3.300  -2.267   3.670  0.00  0.00    +0.260 C 
ATOM      9  O   UNL     1       2.964  -3.321   4.176  0.00  0.00    -0.269 OA
ATOM     10  H   UNL     1       4.720  -0.837   3.641  0.00  0.00    +0.173 HD
BRANCH   7  13
ATOM     11  C   UNL     1       6.415  -1.686   5.391  0.00  0.00    +0.260 C 
ATOM     12  O   UNL     1       6.750  -0.633   4.885  0.00  0.00    -0.269 OA
ATOM     13  N   UNL     1       5.262  -2.277   5.017  0.00  0.00    -0.230 N 
ATOM     14  H   UNL     1       4.995  -3.117   5.420  0.00  0.00    +0.173 HD
BRANCH  11  18
ATOM     15  C   UNL     1       8.872  -3.504   8.339  0.00  0.00    +0.121 A 
ATOM     16  C   UNL     1       9.258  -2.300   7.762  0.00  0.00    +0.046 A 
ATOM     17  C   UNL     1       8.464  -1.708   6.806  0.00  0.00    +0.016 A 
ATOM     18  C   UNL     1       7.269  -2.318   6.416  0.00  0.00    +0.038 A 
ATOM     19  C   UNL     1       6.882  -3.526   7.003  0.00  0.00    +0.016 A 
ATOM     20  C   UNL     1       7.684  -4.115   7.954  0.00  0.00    +0.046 A 
BRANCH  15  21
ATOM     21  O   UNL     1       9.657  -4.085   9.281  0.00  0.00    -0.492 OA
BRANCH  21  23
ATOM     22  C   UNL     1      10.210  -5.821  10.870  0.00  0.00    +0.048 C 
ATOM     23  C   UNL     1       9.201  -5.322   9.834  0.00  0.00    +0.225 C 
ENDBRANCH  21  23
ENDBRANCH  15  21
ENDBRANCH  11  18
ENDBRANCH   7  13
ENDBRANCH   1   8
BRANCH   4  24
ATOM     24  N   UNL     1       0.037   0.147  -0.242  0.00  0.00    -0.216 N 
ATOM     25  H   UNL     1       0.293   0.111  -1.177  0.00  0.00    +0.174 HD
BRANCH  24  26
ATOM     26  S   UNL     1      -1.359   0.918   0.205  0.00  0.00    +0.072 S 
ATOM     27  O   UNL     1      -1.920   1.463  -0.981  0.00  0.00    -0.150 OA
ATOM     28  O   UNL     1      -2.071   0.017   1.041  0.00  0.00    -0.150 OA
BRANCH  26  29
ATOM     29  C   UNL     1      -0.898   2.285   1.217  0.00  0.00    +0.111 A 
ATOM     30  C   UNL     1      -0.902   2.158   2.594  0.00  0.00    +0.032 A 
ATOM     31  C   UNL     1      -0.536   3.227   3.390  0.00  0.00    +0.043 A 
ATOM     32  C   UNL     1      -0.174   4.430   2.809  0.00  0.00    +0.159 A 
ATOM     33  C   UNL     1      -0.174   4.559   1.428  0.00  0.00    +0.160 A 
ATOM     34  C   UNL     1      -0.537   3.485   0.634  0.00  0.00    +0.070 A 
ATOM     35  F   UNL     1       0.179   5.732   0.859  0.00  0.00    -0.202 F 
ATOM     36  F   UNL     1       0.180   5.477   3.586  0.00  0.00    -0.202 F 
ENDBRANCH  26  29
ENDBRANCH  24  26
ENDBRANCH   4  24
TORSDOF 8
