REMARK  Name = ZINC55104476
REMARK  10 active torsions:
REMARK  status: ('A' for Active; 'I' for Inactive)
REMARK    1  A    between atoms: C_1  and  C_2
REMARK    2  A    between atoms: C_2  and  O_29
REMARK    3  A    between atoms: C_6  and  O_10
REMARK    4  A    between atoms: C_11  and  C_22
REMARK    5  A    between atoms: C_13  and  C_15
REMARK    6  A    between atoms: C_15  and  O_17
REMARK    7  A    between atoms: O_17  and  C_18
REMARK    8  A    between atoms: C_18  and  C_19
REMARK    9  A    between atoms: C_18  and  C_20
REMARK   10  A    between atoms: C_18  and  C_21
REMARK                            x       y       z     vdW  Elec       q    Type
REMARK                         _______ _______ _______ _____ _____    ______ ____
ROOT
ATOM      1  C   UNL     1      -0.071   2.082   0.411  0.00  0.00    +0.042 C 
ATOM      2  C   UNL     1      -0.176   0.591   0.083  0.00  0.00    +0.082 C 
ATOM      3  C   UNL     1      -1.648   0.161   0.126  0.00  0.00    +0.090 C 
ATOM      4  C   UNL     1      -1.706  -1.344   0.048  0.00  0.00    +0.046 A 
ATOM      5  C   UNL     1      -0.646  -2.159   0.277  0.00  0.00    +0.044 A 
ATOM      6  C   UNL     1      -1.074  -3.479   0.111  0.00  0.00    +0.235 A 
ATOM      7  N   UNL     1      -2.348  -3.455  -0.205  0.00  0.00    -0.136 NA
ATOM      8  H   UNL     1      -3.659  -1.803  -0.458  0.00  0.00    +0.189 HD
ATOM      9  N   UNL     1      -2.764  -2.116  -0.249  0.00  0.00    -0.278 N 
ATOM     10  C   UNL     1       0.733  -1.672   0.646  0.00  0.00    +0.072 C 
ATOM     11  C   UNL     1       0.622  -0.215   1.112  0.00  0.00    +0.141 C 
ENDROOT
BRANCH  10  12
ATOM     12  C   UNL     1       1.290  -2.520   1.760  0.00  0.00    -0.039 A 
ATOM     13  C   UNL     1       2.646  -2.781   1.818  0.00  0.00    +0.005 A 
ATOM     14  C   UNL     1       3.158  -3.559   2.840  0.00  0.00    +0.015 A 
ATOM     15  C   UNL     1       2.312  -4.076   3.804  0.00  0.00    +0.018 A 
ATOM     16  C   UNL     1       0.955  -3.815   3.746  0.00  0.00    +0.015 A 
ATOM     17  C   UNL     1       0.445  -3.033   2.727  0.00  0.00    +0.005 A 
ATOM     18 BR   UNL     1       3.011  -5.141   5.202  0.00  0.00    -0.050 Br
ENDBRANCH  10  12
BRANCH   6  19
ATOM     19  O   UNL     1      -0.306  -4.593   0.253  0.00  0.00    -0.491 OA
ATOM     20  H   UNL     1      -0.297  -4.953   1.150  0.00  0.00    +0.294 HD
ENDBRANCH   6  19
BRANCH  11  21
ATOM     21  C   UNL     1      -0.081  -0.165   2.444  0.00  0.00    +0.314 C 
ATOM     22  O   UNL     1      -1.125  -0.753   2.598  0.00  0.00    -0.250 OA
BRANCH  21  23
ATOM     23  O   UNL     1       0.453   0.532   3.459  0.00  0.00    -0.459 OA
BRANCH  23  24
ATOM     24  C   UNL     1      -0.323   0.633   4.655  0.00  0.00    +0.105 C 
ATOM     25  C   UNL     1      -0.549  -0.764   5.236  0.00  0.00    +0.055 C 
ATOM     26  C   UNL     1       0.424   1.495   5.675  0.00  0.00    +0.055 C 
ATOM     27  C   UNL     1      -1.673   1.277   4.334  0.00  0.00    +0.055 C 
ENDBRANCH  23  24
ENDBRANCH  21  23
ENDBRANCH  11  21
BRANCH   2  28
ATOM     28  O   UNL     1       0.352   0.352  -1.223  0.00  0.00    -0.388 OA
ATOM     29  H   UNL     1      -0.106   0.832  -1.926  0.00  0.00    +0.210 HD
ENDBRANCH   2  28
TORSDOF 6
