REMARK  Name = ZINC03213192
REMARK  4 active torsions:
REMARK  status: ('A' for Active; 'I' for Inactive)
REMARK    1  A    between atoms: C_2  and  C_3
REMARK    2  A    between atoms: C_2  and  N_17
REMARK    3  A    between atoms: N_17  and  N_18
REMARK    4  A    between atoms: C_19  and  C_21
REMARK                            x       y       z     vdW  Elec       q    Type
REMARK                         _______ _______ _______ _____ _____    ______ ____
ROOT
ATOM      1  C   UNL     1       7.790  -3.029   1.568  0.00  0.00    +0.035 C 
ATOM      2  C   UNL     1       6.809  -3.931   1.634  0.00  0.00    +0.045 C 
ENDROOT
BRANCH   2   3
ATOM      3  C   UNL     1       5.435  -3.561   1.227  0.00  0.00    -0.001 A 
ATOM      4  C   UNL     1       4.410  -4.503   1.295  0.00  0.00    +0.011 A 
ATOM      5  C   UNL     1       3.131  -4.153   0.915  0.00  0.00    +0.017 A 
ATOM      6  C   UNL     1       2.859  -2.867   0.465  0.00  0.00    +0.034 A 
ATOM      7  C   UNL     1       3.878  -1.919   0.391  0.00  0.00    +0.046 A 
ATOM      8  C   UNL     1       5.165  -2.270   0.773  0.00  0.00    +0.034 A 
ATOM      9  N   UNL     1       3.644  -0.622  -0.060  0.00  0.00    -0.313 N 
ATOM     10  C   UNL     1       2.410   0.022  -0.027  0.00  0.00    +0.045 A 
ATOM     11  C   UNL     1       2.379   1.413  -0.016  0.00  0.00    +0.024 A 
ATOM     12  C   UNL     1       1.171   2.084   0.002  0.00  0.00    +0.002 A 
ATOM     13  C   UNL     1      -0.017   1.379   0.010  0.00  0.00    +0.001 A 
ATOM     14  C   UNL     1       0.002  -0.004   0.002  0.00  0.00    +0.017 A 
ATOM     15  C   UNL     1       1.211  -0.685  -0.014  0.00  0.00    +0.034 A 
ATOM     16  S   UNL     1       1.216  -2.446  -0.010  0.00  0.00    -0.086 S 
ATOM     17  H   UNL     1       4.397  -0.130  -0.424  0.00  0.00    +0.152 HD
ENDBRANCH   2   3
BRANCH   2  18
ATOM     18  N   UNL     1       7.079  -5.223   2.087  0.00  0.00    -0.264 N 
ATOM     19  H   UNL     1       6.366  -5.879   2.135  0.00  0.00    +0.170 HD
BRANCH  18  20
ATOM     20  N   UNL     1       8.380  -5.573   2.472  0.00  0.00    -0.233 N 
ATOM     21  C   UNL     1       8.640  -6.821   2.909  0.00  0.00    +0.273 C 
ATOM     22  O   UNL     1       7.749  -7.641   2.969  0.00  0.00    -0.270 OA
ATOM     23  H   UNL     1       9.093  -4.917   2.424  0.00  0.00    +0.173 HD
BRANCH  21  24
ATOM     24  C   UNL     1      10.039  -7.197   3.324  0.00  0.00    +0.297 C 
ATOM     25  C   UNL     1      10.443  -6.397   4.569  0.00  0.00    +0.283 C 
ATOM     26  O   UNL     1      11.768  -6.790   4.943  0.00  0.00    -0.484 OA
ATOM     27  C   UNL     1      12.027  -8.125   4.969  0.00  0.00    +0.162 A 
ATOM     28  C   UNL     1      13.144  -8.590   5.649  0.00  0.00    +0.049 A 
ATOM     29  C   UNL     1      13.423  -9.943   5.678  0.00  0.00    +0.004 A 
ATOM     30  C   UNL     1      12.592 -10.837   5.030  0.00  0.00    +0.004 A 
ATOM     31  C   UNL     1      11.478 -10.381   4.351  0.00  0.00    +0.049 A 
ATOM     32  C   UNL     1      11.190  -9.025   4.319  0.00  0.00    +0.163 A 
ATOM     33  O   UNL     1      10.088  -8.591   3.649  0.00  0.00    -0.472 OA
ENDBRANCH  21  24
ENDBRANCH  18  20
ENDBRANCH   2  18
TORSDOF 4
