REMARK  Name = ZINC39677817
REMARK  8 active torsions:
REMARK  status: ('A' for Active; 'I' for Inactive)
REMARK    1  A    between atoms: C_1  and  O_2
REMARK    2  A    between atoms: O_2  and  C_3
REMARK    3  A    between atoms: C_8  and  C_9
REMARK    4  A    between atoms: C_13  and  C_22
REMARK    5  A    between atoms: N_24  and  C_25
REMARK    6  A    between atoms: C_25  and  C_26
REMARK    7  A    between atoms: N_29  and  C_33
REMARK    8  A    between atoms: C_33  and  C_34
REMARK                            x       y       z     vdW  Elec       q    Type
REMARK                         _______ _______ _______ _____ _____    ______ ____
ROOT
ATOM      1  C   UNL     1       0.011  -2.902   0.239  0.00  0.00    +0.250 C 
ATOM      2  O   UNL     1      -0.448  -2.466   1.277  0.00  0.00    -0.270 OA
ATOM      3  N   UNL     1       0.001  -4.229   0.002  0.00  0.00    -0.296 N 
ATOM      4  C   UNL     1       0.604  -4.953  -1.142  0.00  0.00    +0.121 C 
ATOM      5  C   UNL     1       1.195  -6.239  -0.523  0.00  0.00    +0.100 C 
ATOM      6  C   UNL     1       0.389  -6.459   0.769  0.00  0.00    -0.004 C 
ATOM      7  C   UNL     1      -0.611  -5.295   0.832  0.00  0.00    +0.115 C 
ATOM      8  C   UNL     1       1.313  -6.419   1.982  0.00  0.00    -0.010 C 
ATOM      9  C   UNL     1       0.498  -6.697   3.248  0.00  0.00    -0.082 C 
ATOM     10  N   UNL     1      -0.144  -8.012   3.140  0.00  0.00    +0.379 N 
ATOM     11  C   UNL     1      -1.100  -8.013   2.027  0.00  0.00    -0.082 C 
ATOM     12  C   UNL     1      -0.353  -7.791   0.709  0.00  0.00    -0.010 C 
ATOM     13  H   UNL     1       0.561  -8.716   2.977  0.00  0.00    -0.086 HD
ATOM     14  H   UNL     1      -0.630  -8.219   4.000  0.00  0.00    -0.086 HD
ENDROOT
BRANCH   1  20
ATOM     15  C   UNL     1       1.242  -0.814  -0.350  0.00  0.00    +0.132 A 
ATOM     16  C   UNL     1       1.778   0.044  -1.299  0.00  0.00    +0.046 A 
ATOM     17  C   UNL     1       1.654  -0.247  -2.643  0.00  0.00    +0.004 A 
ATOM     18  C   UNL     1       0.995  -1.395  -3.054  0.00  0.00    +0.001 A 
ATOM     19  C   UNL     1       0.457  -2.258  -2.125  0.00  0.00    +0.017 A 
ATOM     20  C   UNL     1       0.580  -1.979  -0.762  0.00  0.00    +0.078 A 
BRANCH  15  22
ATOM     21  C   UNL     1       2.049   0.675   1.315  0.00  0.00    +0.277 C 
ATOM     22  O   UNL     1       1.362  -0.530   0.971  0.00  0.00    -0.494 OA
ENDBRANCH  15  22
ENDBRANCH   1  20
BRANCH   5  23
ATOM     23  C   UNL     1       2.655  -6.046  -0.206  0.00  0.00    +0.218 C 
ATOM     24  O   UNL     1       3.073  -4.945   0.083  0.00  0.00    -0.275 OA
ATOM     25  N   UNL     1       3.498  -7.097  -0.244  0.00  0.00    -0.313 N 
ATOM     26  H   UNL     1       3.164  -7.978  -0.475  0.00  0.00    +0.149 HD
BRANCH  25  27
ATOM     27  C   UNL     1       4.918  -6.910   0.064  0.00  0.00    +0.137 C 
BRANCH  27  28
ATOM     28  C   UNL     1       5.646  -8.250  -0.051  0.00  0.00    +0.149 C 
ATOM     29  C   UNL     1       7.130  -8.056   0.273  0.00  0.00    +0.118 C 
ATOM     30  N   UNL     1       7.809  -9.359   0.237  0.00  0.00    -0.293 NA
ATOM     31  C   UNL     1       7.201 -10.290   1.198  0.00  0.00    +0.113 C 
ATOM     32  C   UNL     1       5.717 -10.462   0.865  0.00  0.00    +0.175 C 
ATOM     33  O   UNL     1       5.079  -9.182   0.874  0.00  0.00    -0.372 OA
BRANCH  30  34
ATOM     34  C   UNL     1       9.249  -9.209   0.487  0.00  0.00    +0.119 C 
BRANCH  34  35
ATOM     35  C   UNL     1       9.947 -10.514   0.202  0.00  0.00    -0.033 A 
ATOM     36  C   UNL     1      10.099 -11.450   1.207  0.00  0.00    +0.005 A 
ATOM     37  C   UNL     1      10.739 -12.647   0.946  0.00  0.00    +0.000 A 
ATOM     38  C   UNL     1      11.226 -12.908  -0.321  0.00  0.00    +0.000 A 
ATOM     39  C   UNL     1      11.073 -11.972  -1.327  0.00  0.00    +0.000 A 
ATOM     40  C   UNL     1      10.429 -10.777  -1.067  0.00  0.00    +0.005 A 
ENDBRANCH  34  35
ENDBRANCH  30  34
ENDBRANCH  27  28
ENDBRANCH  25  27
ENDBRANCH   5  23
TORSDOF 7
