REMARK  Name = ZINC39689084
REMARK  8 active torsions:
REMARK  status: ('A' for Active; 'I' for Inactive)
REMARK    1  A    between atoms: C_1  and  C_2
REMARK    2  A    between atoms: C_2  and  C_3
REMARK    3  A    between atoms: C_3  and  C_4
REMARK    4  A    between atoms: C_4  and  C_5
REMARK    5  A    between atoms: C_9  and  C_18
REMARK    6  A    between atoms: N_20  and  C_21
REMARK    7  A    between atoms: C_21  and  C_22
REMARK    8  A    between atoms: N_25  and  C_28
REMARK                            x       y       z     vdW  Elec       q    Type
REMARK                         _______ _______ _______ _____ _____    ______ ____
ROOT
ATOM      1  C   UNL     1       1.554  -2.530  -2.627  0.00  0.00    +0.216 C 
ATOM      2  O   UNL     1       1.958  -1.756  -3.469  0.00  0.00    -0.276 OA
ATOM      3  N   UNL     1       1.645  -3.859  -2.835  0.00  0.00    -0.300 N 
ATOM      4  C   UNL     1       1.204  -4.951  -1.935  0.00  0.00    +0.121 C 
ATOM      5  C   UNL     1       0.599  -6.015  -2.880  0.00  0.00    +0.100 C 
ATOM      6  C   UNL     1       1.264  -5.753  -4.242  0.00  0.00    -0.004 C 
ATOM      7  C   UNL     1       2.202  -4.558  -4.018  0.00  0.00    +0.115 C 
ATOM      8  C   UNL     1       2.061  -6.976  -4.685  0.00  0.00    -0.010 C 
ATOM      9  C   UNL     1       2.664  -6.713  -6.067  0.00  0.00    -0.082 C 
ATOM     10  N   UNL     1       1.589  -6.431  -7.027  0.00  0.00    +0.379 N 
ATOM     11  C   UNL     1       0.887  -5.200  -6.643  0.00  0.00    -0.082 C 
ATOM     12  C   UNL     1       0.208  -5.399  -5.285  0.00  0.00    -0.010 C 
ATOM     13  H   UNL     1       1.984  -6.318  -7.948  0.00  0.00    -0.086 HD
ATOM     14  H   UNL     1       0.936  -7.200  -7.035  0.00  0.00    -0.086 HD
ENDROOT
BRANCH   5  15
ATOM     15  C   UNL     1       0.931  -7.401  -2.389  0.00  0.00    +0.218 C 
ATOM     16  O   UNL     1       1.963  -7.599  -1.785  0.00  0.00    -0.275 OA
ATOM     17  N   UNL     1       0.080  -8.419  -2.622  0.00  0.00    -0.315 N 
ATOM     18  H   UNL     1      -0.746  -8.260  -3.106  0.00  0.00    +0.149 HD
BRANCH  17  19
ATOM     19  C   UNL     1       0.402  -9.767  -2.145  0.00  0.00    +0.107 C 
BRANCH  19  20
ATOM     20  C   UNL     1      -0.721 -10.729  -2.538  0.00  0.00    +0.003 C 
ATOM     21  C   UNL     1      -2.006 -10.344  -1.800  0.00  0.00    -0.014 C 
ATOM     22  C   UNL     1      -3.103 -11.357  -2.136  0.00  0.00    -0.078 C 
ATOM     23  N   UNL     1      -2.680 -12.699  -1.719  0.00  0.00    +0.382 N 
ATOM     24  C   UNL     1      -1.488 -13.103  -2.475  0.00  0.00    -0.078 C 
ATOM     25  C   UNL     1      -0.329 -12.158  -2.152  0.00  0.00    -0.014 C 
ATOM     26  H   UNL     1      -2.465 -12.691  -0.733  0.00  0.00    -0.081 HD
BRANCH  23  27
ATOM     27  C   UNL     1      -3.766 -13.655  -1.972  0.00  0.00    -0.069 C 
ATOM     28  C   UNL     1      -5.000 -13.289  -1.122  0.00  0.00    -0.015 C 
ATOM     29  C   UNL     1      -5.592 -14.658  -0.702  0.00  0.00    -0.002 C 
ATOM     30  C   UNL     1      -4.326 -15.511  -0.441  0.00  0.00    -0.002 C 
ATOM     31  C   UNL     1      -3.337 -15.068  -1.539  0.00  0.00    -0.015 C 
ENDBRANCH  23  27
ENDBRANCH  19  20
ENDBRANCH  17  19
ENDBRANCH   5  15
BRANCH   1  32
ATOM     32  C   UNL     1       0.950  -2.007  -1.350  0.00  0.00    +0.096 C 
BRANCH  32  33
ATOM     33  C   UNL     1       0.967  -0.477  -1.367  0.00  0.00    +0.009 C 
BRANCH  33  35
ATOM     34  C   UNL     1       0.371   1.584  -0.087  0.00  0.00    +0.004 C 
ATOM     35  C   UNL     1       0.354   0.054  -0.070  0.00  0.00    -0.003 C 
ENDBRANCH  33  35
ENDBRANCH  32  33
ENDBRANCH   1  32
TORSDOF 7
