REMARK  Name = ZINC01876227
REMARK  4 active torsions:
REMARK  status: ('A' for Active; 'I' for Inactive)
REMARK    1  A    between atoms: C_12  and  C_34
REMARK    2  A    between atoms: C_14  and  C_27
REMARK    3  A    between atoms: C_34  and  C_36
REMARK    4  A    between atoms: C_40  and  N_42
REMARK                            x       y       z     vdW  Elec       q    Type
REMARK                         _______ _______ _______ _____ _____    ______ ____
ROOT
ATOM      1  C   UNL     1       0.313   1.921   0.312  0.00  0.00    +0.001 A 
ATOM      2  C   UNL     1       1.559   2.519   0.382  0.00  0.00    +0.002 A 
ATOM      3  C   UNL     1       2.710   1.753   0.296  0.00  0.00    +0.024 A 
ATOM      4  C   UNL     1       2.606   0.389   0.138  0.00  0.00    +0.038 A 
ATOM      5  C   UNL     1       1.341  -0.227   0.051  0.00  0.00    -0.004 A 
ATOM      6  C   UNL     1       0.195   0.554   0.148  0.00  0.00    +0.010 A 
ATOM      7  C   UNL     1       1.277  -1.685  -0.168  0.00  0.00    +0.007 C 
ATOM      8  C   UNL     1       2.332  -2.460   0.072  0.00  0.00    -0.003 C 
ATOM      9  C   UNL     1       3.614  -1.857   0.578  0.00  0.00    +0.119 C 
ATOM     10  N   UNL     1       3.698  -0.470   0.067  0.00  0.00    -0.311 N 
ATOM     11  C   UNL     1       5.010  -0.256  -0.543  0.00  0.00    +0.154 C 
ATOM     12  C   UNL     1       5.891  -1.450  -0.089  0.00  0.00    +0.070 C 
ATOM     13  C   UNL     1       4.846  -2.590   0.056  0.00  0.00    +0.127 C 
ATOM     14  C   UNL     1       5.316  -3.659   1.003  0.00  0.00    +0.180 C 
ATOM     15  O   UNL     1       5.622  -3.511   2.167  0.00  0.00    -0.291 OA
ATOM     16  C   UNL     1       5.332  -4.913   0.246  0.00  0.00    +0.029 A 
ATOM     17  C   UNL     1       5.690  -6.197   0.668  0.00  0.00    +0.012 A 
ATOM     18  C   UNL     1       5.611  -7.216  -0.272  0.00  0.00    +0.001 A 
ATOM     19  C   UNL     1       5.199  -6.986  -1.569  0.00  0.00    +0.001 A 
ATOM     20  C   UNL     1       4.838  -5.721  -2.015  0.00  0.00    +0.012 A 
ATOM     21  C   UNL     1       4.908  -4.677  -1.088  0.00  0.00    +0.029 A 
ATOM     22  C   UNL     1       4.592  -3.257  -1.267  0.00  0.00    +0.180 C 
ATOM     23  O   UNL     1       4.201  -2.725  -2.283  0.00  0.00    -0.291 OA
ENDROOT
BRANCH  12  24
ATOM     24  C   UNL     1       6.923  -1.787  -1.133  0.00  0.00    -0.041 A 
ATOM     25  C   UNL     1       6.628  -1.624  -2.474  0.00  0.00    +0.005 A 
ATOM     26  C   UNL     1       7.574  -1.933  -3.433  0.00  0.00    +0.020 A 
ATOM     27  C   UNL     1       8.817  -2.406  -3.050  0.00  0.00    +0.041 A 
ATOM     28  C   UNL     1       9.111  -2.570  -1.708  0.00  0.00    +0.020 A 
ATOM     29  C   UNL     1       8.166  -2.255  -0.750  0.00  0.00    +0.005 A 
ATOM     30 CL   UNL     1      10.006  -2.796  -4.254  0.00  0.00    -0.084 Cl
ENDBRANCH  12  24
BRANCH  11  31
ATOM     31  C   UNL     1       5.603   1.043  -0.059  0.00  0.00    +0.184 C 
ATOM     32  O   UNL     1       5.946   1.158   1.098  0.00  0.00    -0.290 OA
BRANCH  31  33
ATOM     33  C   UNL     1       5.764   2.171  -0.991  0.00  0.00    +0.021 A 
ATOM     34  C   UNL     1       5.364   2.043  -2.325  0.00  0.00    +0.011 A 
ATOM     35  C   UNL     1       5.519   3.105  -3.191  0.00  0.00    +0.003 A 
ATOM     36  C   UNL     1       6.069   4.293  -2.744  0.00  0.00    +0.033 A 
ATOM     37  C   UNL     1       6.467   4.427  -1.425  0.00  0.00    +0.127 A 
ATOM     38  C   UNL     1       6.314   3.377  -0.545  0.00  0.00    +0.044 A 
BRANCH  37  39
ATOM     39  N   UNL     1       7.054   5.703  -0.958  0.00  0.00    +0.056 N 
ATOM     40  O   UNL     1       7.186   6.626  -1.727  0.00  0.00    -0.126 OA
ATOM     41  O   UNL     1       7.403   5.821   0.194  0.00  0.00    -0.126 OA
ENDBRANCH  37  39
ENDBRANCH  31  33
ENDBRANCH  11  31
TORSDOF 4
