REMARK  Name = ZINC42524703
REMARK  3 active torsions:
REMARK  status: ('A' for Active; 'I' for Inactive)
REMARK    1  A    between atoms: C_1  and  C_2
REMARK    2  A    between atoms: N_8  and  S_9
REMARK    3  A    between atoms: S_9  and  C_12
REMARK                            x       y       z     vdW  Elec       q    Type
REMARK                         _______ _______ _______ _____ _____    ______ ____
ROOT
ATOM      1  C   UNL     1      -0.018   1.503   0.010  0.00  0.00    +0.045 C 
ATOM      2  C   UNL     1       0.002  -0.004   0.002  0.00  0.00    -0.034 A 
ATOM      3  C   UNL     1       0.006  -0.696  -1.222  0.00  0.00    +0.008 A 
ATOM      4  C   UNL     1       0.024  -2.054  -1.226  0.00  0.00    +0.048 A 
ATOM      5  C   UNL     1       0.039  -2.750   0.006  0.00  0.00    +0.153 A 
ATOM      6  N   UNL     1       0.035  -2.044   1.185  0.00  0.00    -0.345 N 
ATOM      7  C   UNL     1       0.022  -0.681   1.169  0.00  0.00    +0.087 A 
ATOM      8  N   UNL     1       0.057  -4.067   0.023  0.00  0.00    -0.110 NA
ATOM      9  H   UNL     1       0.045  -2.517   2.031  0.00  0.00    +0.167 HD
ENDROOT
BRANCH   8  10
ATOM     10  S   UNL     1       0.075  -4.876   1.468  0.00  0.00    +0.108 S 
ATOM     11  O   UNL     1       1.319  -4.577   2.085  0.00  0.00    -0.146 OA
ATOM     12  O   UNL     1      -1.171  -4.611   2.098  0.00  0.00    -0.146 OA
BRANCH  10  13
ATOM     13  C   UNL     1       0.096  -6.599   1.100  0.00  0.00    +0.164 A 
ATOM     14  C   UNL     1       0.108  -7.654   1.951  0.00  0.00    +0.052 A 
ATOM     15  C   UNL     1       0.124  -8.935   1.431  0.00  0.00    +0.025 A 
ATOM     16  C   UNL     1       0.126  -9.098   0.085  0.00  0.00    +0.048 A 
ATOM     17  S   UNL     1       0.098  -7.409  -0.491  0.00  0.00    -0.075 S 
ATOM     18 BR   UNL     1       0.106  -7.378   3.822  0.00  0.00    -0.048 Br
ENDBRANCH  10  13
ENDBRANCH   8  10
TORSDOF 2
