REMARK  Name = ZINC39035165
REMARK  12 active torsions:
REMARK  status: ('A' for Active; 'I' for Inactive)
REMARK    1  A    between atoms: C_1  and  C_2
REMARK    2  A    between atoms: C_2  and  O_3
REMARK    3  A    between atoms: O_3  and  C_4
REMARK    4  A    between atoms: C_4  and  C_6
REMARK    5  A    between atoms: C_8  and  N_17
REMARK    6  A    between atoms: C_18  and  C_20
REMARK    7  A    between atoms: C_20  and  C_21
REMARK    8  A    between atoms: C_21  and  N_22
REMARK    9  A    between atoms: C_25  and  C_28
REMARK   10  A    between atoms: C_28  and  O_30
REMARK   11  A    between atoms: O_30  and  C_31
REMARK   12  A    between atoms: C_31  and  C_32
REMARK                            x       y       z     vdW  Elec       q    Type
REMARK                         _______ _______ _______ _____ _____    ______ ____
ROOT
ATOM      1  N   UNL     1      -0.197  -1.370   4.366  0.00  0.00    -0.286 N 
ATOM      2  C   UNL     1      -0.910  -1.627   5.480  0.00  0.00    +0.215 C 
ATOM      3  O   UNL     1      -0.876  -2.730   5.981  0.00  0.00    -0.276 OA
ATOM      4  H   UNL     1      -0.157  -0.468   4.013  0.00  0.00    +0.155 HD
ENDROOT
BRANCH   1   6
ATOM      5  C   UNL     1       0.635  -3.803   4.217  0.00  0.00    +0.234 C 
ATOM      6  C   UNL     1       0.469  -2.378   3.736  0.00  0.00    +0.053 C 
ATOM      7  C   UNL     1       1.133  -2.312   2.523  0.00  0.00    +0.019 A 
ATOM      8  C   UNL     1       1.331  -1.257   1.600  0.00  0.00    +0.026 A 
ATOM      9  C   UNL     1       2.039  -1.481   0.465  0.00  0.00    +0.019 A 
ATOM     10  C   UNL     1       2.586  -2.736   0.179  0.00  0.00    +0.017 A 
ATOM     11  C   UNL     1       2.437  -3.790   1.017  0.00  0.00    +0.027 A 
ATOM     12  C   UNL     1       1.707  -3.635   2.224  0.00  0.00    +0.045 A 
ATOM     13  N   UNL     1       1.424  -4.489   3.189  0.00  0.00    -0.367 N 
ATOM     14 BR   UNL     1       2.295  -0.063  -0.759  0.00  0.00    -0.050 Br
ATOM     15  H   UNL     1       1.695  -5.420   3.215  0.00  0.00    +0.161 HD
BRANCH   5  16
ATOM     16  C   UNL     1       1.367  -3.825   5.534  0.00  0.00    +0.336 C 
ATOM     17  O   UNL     1       2.559  -3.629   5.566  0.00  0.00    -0.248 OA
BRANCH  16  18
ATOM     18  O   UNL     1       0.695  -4.061   6.671  0.00  0.00    -0.463 OA
BRANCH  18  20
ATOM     19  C   UNL     1       0.523  -4.351   9.065  0.00  0.00    +0.048 C 
ATOM     20  C   UNL     1       1.453  -4.067   7.883  0.00  0.00    +0.229 C 
ENDBRANCH  18  20
ENDBRANCH  16  18
ENDBRANCH   5  16
ENDBRANCH   1   6
BRANCH   2  21
ATOM     21  C   UNL     1      -1.751  -0.542   6.103  0.00  0.00    +0.077 C 
BRANCH  21  22
ATOM     22  C   UNL     1      -2.453  -1.091   7.347  0.00  0.00    -0.070 C 
BRANCH  22  23
ATOM     23  N   UNL     1      -3.272  -0.034   7.954  0.00  0.00    +0.380 N 
ATOM     24  C   UNL     1      -2.399   1.044   8.435  0.00  0.00    -0.078 C 
ATOM     25  C   UNL     1      -3.252   2.184   8.995  0.00  0.00    -0.004 C 
ATOM     26  C   UNL     1      -4.101   1.657  10.155  0.00  0.00    +0.094 C 
ATOM     27  C   UNL     1      -4.953   0.484   9.660  0.00  0.00    -0.004 C 
ATOM     28  C   UNL     1      -4.037  -0.593   9.075  0.00  0.00    -0.078 C 
ATOM     29  H   UNL     1      -3.909   0.335   7.264  0.00  0.00    -0.082 HD
BRANCH  26  30
ATOM     30  C   UNL     1      -5.000   2.755  10.661  0.00  0.00    +0.310 C 
ATOM     31  O   UNL     1      -4.967   3.848  10.148  0.00  0.00    -0.251 OA
BRANCH  30  32
ATOM     32  O   UNL     1      -5.839   2.518  11.682  0.00  0.00    -0.465 OA
BRANCH  32  33
ATOM     33  C   UNL     1      -6.662   3.605  12.110  0.00  0.00    +0.229 C 
ATOM     34  C   UNL     1      -7.544   3.149  13.275  0.00  0.00    +0.048 C 
ENDBRANCH  32  33
ENDBRANCH  30  32
ENDBRANCH  26  30
ENDBRANCH  22  23
ENDBRANCH  21  22
ENDBRANCH   2  21
TORSDOF 10
