REMARK  Name = ZINC11398299
REMARK  7 active torsions:
REMARK  status: ('A' for Active; 'I' for Inactive)
REMARK    1  A    between atoms: C_7  and  C_16
REMARK    2  A    between atoms: C_9  and  C_11
REMARK    3  A    between atoms: C_16  and  O_18
REMARK    4  A    between atoms: O_18  and  C_19
REMARK    5  A    between atoms: C_19  and  C_20
REMARK    6  A    between atoms: N_22  and  C_23
REMARK    7  A    between atoms: C_24  and  C_32
REMARK                            x       y       z     vdW  Elec       q    Type
REMARK                         _______ _______ _______ _____ _____    ______ ____
ROOT
ATOM      1  C   UNL     1       1.121   3.579  -0.002  0.00  0.00    +0.328 C 
ENDROOT
BRANCH   1   2
ATOM      2  C   UNL     1       1.141   2.072  -0.027  0.00  0.00    +0.255 C 
ATOM      3  O   UNL     1       2.199   1.480  -0.052  0.00  0.00    -0.272 OA
ATOM      4  N   UNL     1      -0.017   1.383  -0.022  0.00  0.00    -0.277 N 
ATOM      5  H   UNL     1      -0.864   1.856  -0.006  0.00  0.00    +0.155 HD
BRANCH   4   6
ATOM      6  C   UNL     1       0.002  -0.004  -0.045  0.00  0.00    +0.084 A 
ATOM      7  C   UNL     1      -1.074  -0.881  -0.038  0.00  0.00    +0.068 A 
ATOM      8  C   UNL     1      -0.780  -2.303  -0.070  0.00  0.00    -0.023 A 
ATOM      9  C   UNL     1       0.533  -2.619  -0.094  0.00  0.00    -0.004 A 
ATOM     10  S   UNL     1       1.373  -1.061  -0.081  0.00  0.00    -0.077 S 
ATOM     11  C   UNL     1       1.131  -3.992  -0.123  0.00  0.00    +0.043 C 
ATOM     12  C   UNL     1       0.039  -5.003   0.255  0.00  0.00    +0.005 C 
ATOM     13  C   UNL     1      -1.221  -4.697  -0.559  0.00  0.00    +0.005 C 
ATOM     14  C   UNL     1      -1.849  -3.389  -0.073  0.00  0.00    +0.037 C 
BRANCH   7  15
ATOM     15  C   UNL     1      -2.455  -0.390  -0.003  0.00  0.00    +0.244 C 
ATOM     16  O   UNL     1      -3.049  -0.169  -1.042  0.00  0.00    -0.270 OA
ATOM     17  N   UNL     1      -3.067  -0.182   1.180  0.00  0.00    -0.325 N 
ATOM     18  H   UNL     1      -2.594  -0.358   2.008  0.00  0.00    +0.145 HD
ATOM     19  H   UNL     1      -3.981   0.142   1.203  0.00  0.00    +0.145 HD
ENDBRANCH   7  15
ENDBRANCH   4   6
ENDBRANCH   1   2
BRANCH   1  20
ATOM     20  O   UNL     1       2.483   4.082  -0.013  0.00  0.00    -0.452 OA
BRANCH  20  21
ATOM     21  C   UNL     1       2.641   5.419   0.006  0.00  0.00    +0.340 C 
ATOM     22  O   UNL     1       1.668   6.146   0.032  0.00  0.00    -0.245 OA
BRANCH  21  29
ATOM     23  C   UNL     1       3.364   9.674  -0.313  0.00  0.00    +0.001 A 
ATOM     24  C   UNL     1       4.665  10.171  -0.317  0.00  0.00    +0.002 A 
ATOM     25  C   UNL     1       5.736   9.337  -0.211  0.00  0.00    +0.028 A 
ATOM     26  C   UNL     1       5.532   7.948  -0.111  0.00  0.00    +0.073 A 
ATOM     27  C   UNL     1       4.206   7.448  -0.113  0.00  0.00    +0.014 A 
ATOM     28  C   UNL     1       3.128   8.334  -0.213  0.00  0.00    +0.011 A 
ATOM     29  C   UNL     1       3.999   6.003  -0.004  0.00  0.00    +0.070 A 
ATOM     30  C   UNL     1       5.128   5.202   0.084  0.00  0.00    +0.047 A 
ATOM     31  C   UNL     1       6.401   5.801   0.071  0.00  0.00    +0.107 A 
ATOM     32  N   UNL     1       6.563   7.106  -0.022  0.00  0.00    -0.244 NA
BRANCH  31  33
ATOM     33  C   UNL     1       7.594   4.939   0.165  0.00  0.00    +0.153 A 
ATOM     34  C   UNL     1       8.888   5.362   0.160  0.00  0.00    +0.051 A 
ATOM     35  C   UNL     1       9.691   4.212   0.272  0.00  0.00    +0.042 A 
ATOM     36  C   UNL     1       8.859   3.152   0.330  0.00  0.00    +0.196 A 
ATOM     37  O   UNL     1       7.594   3.595   0.265  0.00  0.00    -0.461 OA
ENDBRANCH  31  33
ENDBRANCH  21  29
ENDBRANCH  20  21
ENDBRANCH   1  20
TORSDOF 7
