REMARK  Name = ZINC04226126
REMARK  10 active torsions:
REMARK  status: ('A' for Active; 'I' for Inactive)
REMARK    1  A    between atoms: C_1  and  C_2
REMARK    2  A    between atoms: C_2  and  C_3
REMARK    3  A    between atoms: C_2  and  C_4
REMARK    4  A    between atoms: C_2  and  C_5
REMARK    5  A    between atoms: C_8  and  C_11
REMARK    6  A    between atoms: N_13  and  C_14
REMARK    7  A    between atoms: C_14  and  C_25
REMARK    8  A    between atoms: C_15  and  C_16
REMARK    9  A    between atoms: C_20  and  N_22
REMARK   10  A    between atoms: N_27  and  N_28
REMARK                            x       y       z     vdW  Elec       q    Type
REMARK                         _______ _______ _______ _____ _____    ______ ____
ROOT
ATOM      1  C   UNL     1      -1.175   5.860  -0.026  0.00  0.00    +0.098 C 
ATOM      2  C   UNL     1      -0.027   5.149   0.056  0.00  0.00    +0.036 C 
ENDROOT
BRANCH   2   3
ATOM      3  C   UNL     1      -0.057   3.684  -0.084  0.00  0.00    -0.021 A 
ATOM      4  C   UNL     1      -1.044   3.072  -0.864  0.00  0.00    +0.008 A 
ATOM      5  C   UNL     1      -1.062   1.700  -0.995  0.00  0.00    +0.003 A 
ATOM      6  C   UNL     1      -0.113   0.927  -0.347  0.00  0.00    +0.033 A 
ATOM      7  C   UNL     1       0.866   1.525   0.426  0.00  0.00    +0.127 A 
ATOM      8  C   UNL     1       0.901   2.897   0.562  0.00  0.00    +0.040 A 
BRANCH   7   9
ATOM      9  N   UNL     1       1.880   0.690   1.109  0.00  0.00    +0.056 N 
ATOM     10  O   UNL     1       1.851  -0.522   0.990  0.00  0.00    -0.126 OA
ATOM     11  O   UNL     1       2.743   1.214   1.790  0.00  0.00    -0.126 OA
ENDBRANCH   7   9
ENDBRANCH   2   3
BRANCH   1  14
ATOM     12  C   UNL     1      -2.272   7.962  -0.206  0.00  0.00    +0.248 C 
ATOM     13  O   UNL     1      -3.345   7.391  -0.197  0.00  0.00    -0.270 OA
ATOM     14  N   UNL     1      -1.131   7.256  -0.078  0.00  0.00    -0.277 N 
ATOM     15  H   UNL     1      -0.279   7.716  -0.021  0.00  0.00    +0.155 HD
BRANCH  12  19
ATOM     16  C   UNL     1      -2.117  12.184  -0.644  0.00  0.00    -0.042 A 
ATOM     17  C   UNL     1      -3.340  11.537  -0.634  0.00  0.00    +0.005 A 
ATOM     18  C   UNL     1      -3.397  10.166  -0.492  0.00  0.00    +0.013 A 
ATOM     19  C   UNL     1      -2.218   9.431  -0.359  0.00  0.00    +0.037 A 
ATOM     20  C   UNL     1      -0.988  10.091  -0.365  0.00  0.00    +0.013 A 
ATOM     21  C   UNL     1      -0.944  11.462  -0.512  0.00  0.00    +0.005 A 
BRANCH  16  23
ATOM     22  C   UNL     1      -2.823  14.342   0.352  0.00  0.00    +0.015 C 
ATOM     23  C   UNL     1      -2.062  13.682  -0.799  0.00  0.00    -0.013 C 
ATOM     24  C   UNL     1      -0.604  14.144  -0.778  0.00  0.00    +0.015 C 
ATOM     25  C   UNL     1      -2.704  14.081  -2.130  0.00  0.00    +0.015 C 
ENDBRANCH  16  23
ENDBRANCH  12  19
ENDBRANCH   1  14
BRANCH   1  26
ATOM     26  C   UNL     1      -2.470   5.164  -0.059  0.00  0.00    +0.272 C 
ATOM     27  O   UNL     1      -3.146   5.184  -1.071  0.00  0.00    -0.268 OA
ATOM     28  N   UNL     1      -2.909   4.503   1.031  0.00  0.00    -0.249 N 
ATOM     29  H   UNL     1      -2.406   4.546   1.859  0.00  0.00    +0.169 HD
BRANCH  28  30
ATOM     30  N   UNL     1      -4.061   3.772   0.969  0.00  0.00    -0.254 NA
ATOM     31  H   UNL     1      -4.304   3.402   1.876  0.00  0.00    +0.140 HD
ATOM     32  H   UNL     1      -4.817   4.321   0.588  0.00  0.00    +0.140 HD
ENDBRANCH  28  30
ENDBRANCH   1  26
TORSDOF 7
