REMARK  Name = ZINC19842870
REMARK  3 active torsions:
REMARK  status: ('A' for Active; 'I' for Inactive)
REMARK    1  A    between atoms: C_6  and  C_7
REMARK    2  A    between atoms: C_7  and  C_9
REMARK    3  A    between atoms: C_7  and  N_17
REMARK                            x       y       z     vdW  Elec       q    Type
REMARK                         _______ _______ _______ _____ _____    ______ ____
ROOT
ATOM      1  C   UNL     1      -1.293  -0.774   0.010  0.00  0.00    -0.013 C 
ENDROOT
BRANCH   1   7
ATOM      2  C   UNL     1      -0.955  -2.381   1.898  0.00  0.00    +0.004 A 
ATOM      3  C   UNL     1      -1.213  -2.823   3.182  0.00  0.00    +0.028 A 
ATOM      4  C   UNL     1      -2.115  -2.136   3.979  0.00  0.00    +0.067 A 
ATOM      5  C   UNL     1      -2.756  -0.999   3.484  0.00  0.00    +0.067 A 
ATOM      6  C   UNL     1      -2.487  -0.560   2.196  0.00  0.00    +0.030 A 
ATOM      7  C   UNL     1      -1.586  -1.251   1.409  0.00  0.00    -0.056 A 
ATOM      8  N   UNL     1      -3.590  -0.533   4.497  0.00  0.00    -0.306 N 
ATOM      9  H   UNL     1      -4.204   0.365   4.335  0.00  0.00    +0.170 HD
ATOM     10  C   UNL     1      -3.463  -1.349   5.560  0.00  0.00    +0.325 A 
ATOM     11  O   UNL     1      -4.056  -1.224   6.615  0.00  0.00    -0.247 OA
ATOM     12  N   UNL     1      -2.580  -2.326   5.278  0.00  0.00    -0.306 N 
ATOM     13  H   UNL     1      -2.211  -3.173   5.876  0.00  0.00    +0.170 HD
ENDBRANCH   1   7
BRANCH   1  14
ATOM     14  C   UNL     1       0.002  -0.004   0.002  0.00  0.00    -0.055 A 
ATOM     15  C   UNL     1      -0.017   1.378   0.010  0.00  0.00    +0.005 A 
ATOM     16  C   UNL     1       1.170   2.087   0.002  0.00  0.00    +0.041 A 
ATOM     17  C   UNL     1       2.379   1.413  -0.013  0.00  0.00    +0.158 A 
ATOM     18  C   UNL     1       2.397   0.027  -0.021  0.00  0.00    +0.159 A 
ATOM     19  C   UNL     1       1.207  -0.680  -0.013  0.00  0.00    +0.043 A 
ATOM     20  F   UNL     1       3.576  -0.634  -0.036  0.00  0.00    -0.202 F 
ATOM     21  F   UNL     1       3.539   2.105  -0.020  0.00  0.00    -0.202 F 
ENDBRANCH   1  14
BRANCH   1  22
ATOM     22  N   UNL     1      -1.180  -1.932  -0.888  0.00  0.00    +0.385 N 
ATOM     23  H   UNL     1      -0.966  -1.584  -1.909  0.00  0.00    -0.089 HD
ATOM     24  H   UNL     1      -2.125  -2.494  -0.882  0.00  0.00    -0.089 HD
ATOM     25  H   UNL     1      -0.363  -2.584  -0.544  0.00  0.00    -0.089 HD
ENDBRANCH   1  22
TORSDOF 3
