REMARK  Name = ZINC08871176
REMARK  9 active torsions:
REMARK  status: ('A' for Active; 'I' for Inactive)
REMARK    1  A    between atoms: C_1  and  C_2
REMARK    2  A    between atoms: C_2  and  C_4
REMARK    3  A    between atoms: C_2  and  N_12
REMARK    4  A    between atoms: C_4  and  C_5
REMARK    5  A    between atoms: C_5  and  C_6
REMARK    6  A    between atoms: C_13  and  C_15
REMARK    7  A    between atoms: N_26  and  N_29
REMARK    8  A    between atoms: C_27  and  N_28
REMARK    9  A    between atoms: C_30  and  C_31
REMARK                            x       y       z     vdW  Elec       q    Type
REMARK                         _______ _______ _______ _____ _____    ______ ____
ROOT
ATOM      1  C   UNL     1       6.173  -4.962   0.184  0.00  0.00    +0.105 A 
ATOM      2  C   UNL     1       5.813  -5.278   1.577  0.00  0.00    +0.124 A 
ATOM      3  C   UNL     1       5.760  -6.741   1.642  0.00  0.00    +0.183 A 
ATOM      4  N   UNL     1       5.458  -7.327   2.781  0.00  0.00    -0.224 NA
ATOM      5  C   UNL     1       5.201  -6.585   3.866  0.00  0.00    +0.092 A 
ATOM      6  C   UNL     1       4.877  -7.204   5.087  0.00  0.00    +0.030 A 
ATOM      7  C   UNL     1       4.619  -6.442   6.184  0.00  0.00    +0.002 A 
ATOM      8  C   UNL     1       4.670  -5.051   6.119  0.00  0.00    +0.002 A 
ATOM      9  C   UNL     1       4.979  -4.417   4.956  0.00  0.00    +0.030 A 
ATOM     10  C   UNL     1       5.253  -5.170   3.800  0.00  0.00    +0.090 A 
ATOM     11  N   UNL     1       5.559  -4.557   2.650  0.00  0.00    -0.241 NA
ATOM     12  N   UNL     1       6.067  -7.213   0.380  0.00  0.00    -0.198 N 
ATOM     13  C   UNL     1       6.304  -6.180  -0.476  0.00  0.00    +0.134 A 
ENDROOT
BRANCH   1  15
ATOM     14  N   UNL     1       5.298  -3.029  -0.927  0.00  0.00    -0.309 N 
ATOM     15  C   UNL     1       6.347  -3.670  -0.375  0.00  0.00    +0.250 C 
ATOM     16  O   UNL     1       7.443  -3.141  -0.357  0.00  0.00    -0.270 OA
ATOM     17  H   UNL     1       4.424  -3.451  -0.942  0.00  0.00    +0.149 HD
BRANCH  14  19
ATOM     18  C   UNL     1       5.969  -1.826  -2.948  0.00  0.00    +0.028 C 
ATOM     19  C   UNL     1       5.477  -1.695  -1.505  0.00  0.00    +0.070 C 
BRANCH  19  20
ATOM     20  C   UNL     1       4.142  -0.948  -1.488  0.00  0.00    +0.026 C 
BRANCH  20  21
ATOM     21  C   UNL     1       3.711  -0.707  -0.039  0.00  0.00    +0.037 C 
BRANCH  21  22
ATOM     22  C   UNL     1       2.396   0.029  -0.022  0.00  0.00    -0.047 A 
ATOM     23  C   UNL     1       1.208  -0.679  -0.014  0.00  0.00    +0.003 A 
ATOM     24  C   UNL     1       0.002  -0.004   0.002  0.00  0.00    +0.000 A 
ATOM     25  C   UNL     1      -0.017   1.378   0.010  0.00  0.00    +0.000 A 
ATOM     26  C   UNL     1       1.171   2.086   0.002  0.00  0.00    +0.000 A 
ATOM     27  C   UNL     1       2.377   1.411  -0.014  0.00  0.00    +0.003 A 
ENDBRANCH  21  22
ENDBRANCH  20  21
ENDBRANCH  19  20
ENDBRANCH  14  19
ENDBRANCH   1  15
BRANCH  13  28
ATOM     28  N   UNL     1       6.630  -6.320  -1.801  0.00  0.00    -0.342 N 
ATOM     29  H   UNL     1       6.787  -5.535  -2.348  0.00  0.00    +0.144 HD
ATOM     30  H   UNL     1       6.703  -7.205  -2.191  0.00  0.00    +0.144 HD
ENDBRANCH  13  28
BRANCH  12  31
ATOM     31  N   UNL     1       6.122  -8.568   0.028  0.00  0.00    -0.168 NA
ATOM     32  C   UNL     1       5.056  -9.169  -0.412  0.00  0.00    +0.179 C 
BRANCH  32  33
ATOM     33  C   UNL     1       5.113 -10.587  -0.780  0.00  0.00    +0.147 A 
ATOM     34  C   UNL     1       4.074 -11.335  -1.253  0.00  0.00    +0.051 A 
ATOM     35  C   UNL     1       4.577 -12.631  -1.473  0.00  0.00    +0.042 A 
ATOM     36  C   UNL     1       5.881 -12.614  -1.129  0.00  0.00    +0.196 A 
ATOM     37  O   UNL     1       6.203 -11.378  -0.717  0.00  0.00    -0.462 OA
ENDBRANCH  32  33
ENDBRANCH  12  31
TORSDOF 8
