REMARK  Name = ZINC00985870
REMARK  8 active torsions:
REMARK  status: ('A' for Active; 'I' for Inactive)
REMARK    1  A    between atoms: C_1  and  C_2
REMARK    2  A    between atoms: C_2  and  C_3
REMARK    3  A    between atoms: C_2  and  C_4
REMARK    4  A    between atoms: C_4  and  C_5
REMARK    5  A    between atoms: C_8  and  C_11
REMARK    6  A    between atoms: C_18  and  N_32
REMARK    7  A    between atoms: C_19  and  C_30
REMARK    8  A    between atoms: C_20  and  C_22
REMARK                            x       y       z     vdW  Elec       q    Type
REMARK                         _______ _______ _______ _____ _____    ______ ____
ROOT
ATOM      1  C   UNL     1       6.654   1.076  -1.149  0.00  0.00    +0.100 A 
ATOM      2  C   UNL     1       7.348   0.875   0.048  0.00  0.00    +0.054 A 
ATOM      3  C   UNL     1       8.611   1.367  -0.109  0.00  0.00    +0.223 A 
ATOM      4  N   UNL     1       8.707   1.859  -1.361  0.00  0.00    -0.246 N 
ATOM      5  H   UNL     1       9.493   2.272  -1.753  0.00  0.00    +0.192 HD
ATOM      6  N   UNL     1       7.473   1.664  -2.000  0.00  0.00    -0.171 NA
ATOM      7  O   UNL     1       9.540   1.327   0.879  0.00  0.00    -0.423 OA
ATOM      8  C   UNL     1       9.116   1.036   2.125  0.00  0.00    +0.200 C 
ATOM      9  C   UNL     1       7.893   0.532   2.404  0.00  0.00    +0.098 C 
ATOM     10  C   UNL     1       6.875   0.240   1.330  0.00  0.00    +0.102 C 
ENDROOT
BRANCH  10  11
ATOM     11  C   UNL     1       6.747  -1.250   1.142  0.00  0.00    -0.033 A 
ATOM     12  C   UNL     1       7.834  -1.988   0.712  0.00  0.00    +0.007 A 
ATOM     13  C   UNL     1       7.718  -3.354   0.540  0.00  0.00    +0.040 A 
ATOM     14  C   UNL     1       6.513  -3.985   0.798  0.00  0.00    +0.137 A 
ATOM     15  C   UNL     1       5.424  -3.245   1.229  0.00  0.00    +0.053 A 
ATOM     16  C   UNL     1       5.544  -1.878   1.406  0.00  0.00    +0.022 A 
ATOM     17 BR   UNL     1       3.777  -4.104   1.583  0.00  0.00    -0.047 Br
ATOM     18  F   UNL     1       6.399  -5.320   0.630  0.00  0.00    -0.204 F 
ENDBRANCH  10  11
BRANCH   1  22
ATOM     19  C   UNL     1       2.619  -0.030  -1.916  0.00  0.00    -0.047 A 
ATOM     20  C   UNL     1       3.588  -0.242  -2.881  0.00  0.00    +0.004 A 
ATOM     21  C   UNL     1       4.898   0.115  -2.637  0.00  0.00    +0.010 A 
ATOM     22  C   UNL     1       5.245   0.690  -1.417  0.00  0.00    +0.003 A 
ATOM     23  C   UNL     1       4.266   0.902  -0.448  0.00  0.00    +0.010 A 
ATOM     24  C   UNL     1       2.958   0.546  -0.705  0.00  0.00    +0.004 A 
BRANCH  19  25
ATOM     25  C   UNL     1       1.190  -0.421  -2.188  0.00  0.00    +0.038 C 
BRANCH  25  27
ATOM     26  C   UNL     1       1.060   1.048  -4.205  0.00  0.00    +0.007 C 
ATOM     27  C   UNL     1       0.453   0.755  -2.832  0.00  0.00    -0.013 C 
ATOM     28  C   UNL     1      -1.027   0.402  -2.994  0.00  0.00    +0.007 C 
ENDBRANCH  25  27
ENDBRANCH  19  25
ENDBRANCH   1  22
BRANCH   8  29
ATOM     29  N   UNL     1       9.975   1.264   3.171  0.00  0.00    -0.328 N 
ATOM     30  H   UNL     1      10.859   1.625   3.002  0.00  0.00    +0.145 HD
ATOM     31  H   UNL     1       9.697   1.064   4.079  0.00  0.00    +0.145 HD
ENDBRANCH   8  29
BRANCH   9  32
ATOM     32  C   UNL     1       7.551   0.266   3.769  0.00  0.00    +0.101 C 
ATOM     33  N   UNL     1       7.280   0.055   4.852  0.00  0.00    -0.191 NA
ENDBRANCH   9  32
TORSDOF 6
