REMARK  Name = ZINC63804535
REMARK  9 active torsions:
REMARK  status: ('A' for Active; 'I' for Inactive)
REMARK    1  A    between atoms: C_1  and  C_2
REMARK    2  A    between atoms: C_7  and  C_13
REMARK    3  A    between atoms: C_8  and  C_12
REMARK    4  A    between atoms: C_13  and  C_14
REMARK    5  A    between atoms: C_14  and  N_15
REMARK    6  A    between atoms: N_15  and  S_16
REMARK    7  A    between atoms: S_16  and  C_19
REMARK    8  A    between atoms: C_22  and  O_26
REMARK    9  A    between atoms: O_26  and  C_27
REMARK                            x       y       z     vdW  Elec       q    Type
REMARK                         _______ _______ _______ _____ _____    ______ ____
ROOT
ATOM      1  N   UNL     1      -0.299  -6.694   2.290  0.00  0.00    -0.190 NA
ATOM      2  H   UNL     1      -1.038  -7.250   2.582  0.00  0.00    +0.148 HD
ENDROOT
BRANCH   1   3
ATOM      3  S   UNL     1       1.224  -7.335   2.176  0.00  0.00    +0.060 S 
ATOM      4  O   UNL     1       1.116  -8.705   2.540  0.00  0.00    -0.153 OA
ATOM      5  O   UNL     1       1.747  -6.919   0.922  0.00  0.00    -0.153 OA
BRANCH   3   6
ATOM      6  C   UNL     1       2.209  -6.561   3.415  0.00  0.00    +0.125 A 
ATOM      7  C   UNL     1       2.546  -7.255   4.562  0.00  0.00    +0.053 A 
ATOM      8  C   UNL     1       3.319  -6.650   5.535  0.00  0.00    +0.084 A 
ATOM      9  C   UNL     1       3.758  -5.345   5.360  0.00  0.00    +0.140 A 
ATOM     10  C   UNL     1       3.419  -4.651   4.208  0.00  0.00    +0.069 A 
ATOM     11  C   UNL     1       2.650  -5.262   3.235  0.00  0.00    +0.071 A 
ATOM     12 CL   UNL     1       2.231  -4.397   1.789  0.00  0.00    -0.081 Cl
ATOM     13 CL   UNL     1       3.740  -7.522   6.976  0.00  0.00    -0.080 Cl
BRANCH   9  14
ATOM     14  O   UNL     1       4.518  -4.748   6.316  0.00  0.00    -0.494 OA
ATOM     15  C   UNL     1       4.934  -3.403   6.068  0.00  0.00    +0.277 C 
ENDBRANCH   9  14
ENDBRANCH   3   6
ENDBRANCH   1   3
BRANCH   1  16
ATOM     16  C   UNL     1      -0.528  -5.288   1.950  0.00  0.00    +0.110 C 
BRANCH  16  17
ATOM     17  C   UNL     1      -0.482  -4.441   3.223  0.00  0.00    +0.050 C 
BRANCH  17  24
ATOM     18  C   UNL     1      -1.997   1.141   0.690  0.00  0.00    +0.046 C 
ATOM     19  C   UNL     1      -1.665  -0.327   0.605  0.00  0.00    -0.027 A 
ATOM     20  C   UNL     1      -1.629  -0.939  -0.598  0.00  0.00    +0.005 A 
ATOM     21  C   UNL     1      -1.328  -2.300  -0.746  0.00  0.00    +0.001 A 
ATOM     22  C   UNL     1      -1.052  -3.087   0.318  0.00  0.00    +0.010 A 
ATOM     23  C   UNL     1      -1.068  -2.499   1.663  0.00  0.00    -0.001 A 
ATOM     24  C   UNL     1      -0.841  -3.015   2.892  0.00  0.00    -0.037 C 
ATOM     25  C   UNL     1      -1.019  -1.872   3.866  0.00  0.00    +0.103 C 
ATOM     26  N   UNL     1      -1.361  -0.700   3.053  0.00  0.00    -0.378 N 
ATOM     27  C   UNL     1      -1.384  -1.058   1.792  0.00  0.00    +0.046 A 
ATOM     28  C   UNL     1      -2.151  -2.186   4.845  0.00  0.00    +0.035 C 
ATOM     29  H   UNL     1      -1.538   0.192   3.392  0.00  0.00    +0.160 HD
ENDBRANCH  17  24
ENDBRANCH  16  17
ENDBRANCH   1  16
TORSDOF 6
