REMARK  Name = ZINC03902366
REMARK  7 active torsions:
REMARK  status: ('A' for Active; 'I' for Inactive)
REMARK    1  A    between atoms: C_1  and  O_2
REMARK    2  A    between atoms: O_2  and  C_3
REMARK    3  A    between atoms: C_6  and  C_11
REMARK    4  A    between atoms: C_8  and  O_9
REMARK    5  A    between atoms: O_9  and  C_10
REMARK    6  A    between atoms: C_14  and  C_17
REMARK    7  A    between atoms: C_22  and  O_23
REMARK                            x       y       z     vdW  Elec       q    Type
REMARK                         _______ _______ _______ _____ _____    ______ ____
ROOT
ATOM      1  C   UNL     1       2.507  -2.501  -4.386  0.00  0.00    +0.125 C 
ATOM      2  C   UNL     1       1.587  -2.475  -5.623  0.00  0.00    +0.086 C 
ATOM      3  C   UNL     1       2.366  -1.671  -6.640  0.00  0.00    +0.072 C 
ATOM      4  N   UNL     1       3.489  -1.303  -6.128  0.00  0.00    -0.190 NA
ATOM      5  N   UNL     1       3.687  -1.732  -4.814  0.00  0.00    -0.261 N 
ATOM      6  H   UNL     1       4.470  -1.552  -4.271  0.00  0.00    +0.169 HD
ENDROOT
BRANCH   3   7
ATOM      7  C   UNL     1       1.909  -1.356  -8.006  0.00  0.00    +0.041 A 
ATOM      8  C   UNL     1       0.664  -1.805  -8.450  0.00  0.00    +0.033 A 
ATOM      9  C   UNL     1       0.242  -1.507  -9.730  0.00  0.00    +0.042 A 
ATOM     10  C   UNL     1       1.050  -0.765 -10.576  0.00  0.00    +0.023 A 
ATOM     11  C   UNL     1       2.285  -0.316 -10.146  0.00  0.00    +0.047 A 
ATOM     12  C   UNL     1       2.720  -0.600  -8.863  0.00  0.00    +0.126 A 
ATOM     13 CL   UNL     1      -1.306  -2.065 -10.283  0.00  0.00    -0.084 Cl
BRANCH  12  14
ATOM     14  O   UNL     1       3.930  -0.154  -8.438  0.00  0.00    -0.506 OA
ATOM     15  H   UNL     1       4.659  -0.766  -8.612  0.00  0.00    +0.292 HD
ENDBRANCH  12  14
ENDBRANCH   3   7
BRANCH   1  19
ATOM     16  C   UNL     1       0.606  -0.608  -1.056  0.00  0.00    +0.162 A 
ATOM     17  C   UNL     1       1.173   0.159  -2.062  0.00  0.00    +0.050 A 
ATOM     18  C   UNL     1       1.787  -0.456  -3.137  0.00  0.00    +0.009 A 
ATOM     19  C   UNL     1       1.837  -1.836  -3.212  0.00  0.00    -0.022 A 
ATOM     20  C   UNL     1       1.273  -2.606  -2.212  0.00  0.00    +0.055 A 
ATOM     21  C   UNL     1       0.662  -1.996  -1.129  0.00  0.00    +0.162 A 
BRANCH  16  23
ATOM     22  C   UNL     1      -0.017   1.425   0.010  0.00  0.00    +0.277 C 
ATOM     23  O   UNL     1       0.002  -0.004   0.002  0.00  0.00    -0.491 OA
ENDBRANCH  16  23
BRANCH  21  24
ATOM     24  O   UNL     1       0.112  -2.753  -0.142  0.00  0.00    -0.491 OA
ATOM     25  C   UNL     1       0.206  -4.171  -0.283  0.00  0.00    +0.277 C 
ENDBRANCH  21  24
ENDBRANCH   1  19
TORSDOF 5
