REMARK  Name = ZINC37278091
REMARK  8 active torsions:
REMARK  status: ('A' for Active; 'I' for Inactive)
REMARK    1  A    between atoms: C_1  and  C_2
REMARK    2  A    between atoms: C_2  and  C_4
REMARK    3  A    between atoms: C_2  and  N_14
REMARK    4  A    between atoms: C_7  and  S_10
REMARK    5  A    between atoms: S_10  and  N_13
REMARK    6  A    between atoms: N_14  and  C_15
REMARK    7  A    between atoms: C_15  and  C_17
REMARK    8  A    between atoms: C_15  and  C_18
REMARK                            x       y       z     vdW  Elec       q    Type
REMARK                         _______ _______ _______ _____ _____    ______ ____
ROOT
ATOM      1  C   UNL     1      -0.217   1.612  -0.260  0.00  0.00    -0.009 C 
ATOM      2  C   UNL     1      -0.051   0.104  -0.063  0.00  0.00    -0.043 C 
ENDROOT
BRANCH   2   3
ATOM      3  C   UNL     1       0.607  -0.492  -1.281  0.00  0.00    -0.062 A 
ATOM      4  C   UNL     1      -0.142  -0.752  -2.413  0.00  0.00    +0.004 A 
ATOM      5  C   UNL     1       0.461  -1.299  -3.530  0.00  0.00    +0.029 A 
ATOM      6  C   UNL     1       1.813  -1.586  -3.515  0.00  0.00    +0.105 A 
ATOM      7  C   UNL     1       2.562  -1.325  -2.383  0.00  0.00    +0.029 A 
ATOM      8  C   UNL     1       1.960  -0.774  -1.267  0.00  0.00    +0.004 A 
BRANCH   6   9
ATOM      9  S   UNL     1       2.582  -2.284  -4.939  0.00  0.00    +0.056 S 
ATOM     10  O   UNL     1       3.743  -2.964  -4.481  0.00  0.00    -0.153 OA
ATOM     11  O   UNL     1       1.556  -2.937  -5.674  0.00  0.00    -0.153 OA
BRANCH   9  12
ATOM     12  N   UNL     1       3.109  -1.026  -5.877  0.00  0.00    -0.204 NA
ATOM     13  H   UNL     1       3.893  -1.134  -6.438  0.00  0.00    +0.144 HD
ATOM     14  H   UNL     1       2.634  -0.180  -5.866  0.00  0.00    +0.144 HD
ENDBRANCH   9  12
ENDBRANCH   6   9
ENDBRANCH   2   3
BRANCH   2  15
ATOM     15  N   UNL     1      -1.370  -0.512   0.133  0.00  0.00    +0.388 N 
ATOM     16  H   UNL     1      -1.977  -0.258  -0.632  0.00  0.00    -0.084 HD
ATOM     17  H   UNL     1      -1.271  -1.516   0.164  0.00  0.00    -0.084 HD
BRANCH  15  18
ATOM     18  C   UNL     1      -1.950  -0.038   1.397  0.00  0.00    -0.035 C 
ATOM     19  C   UNL     1      -3.378  -0.568   1.533  0.00  0.00    -0.008 C 
BRANCH  18  20
ATOM     20  C   UNL     1      -1.117  -0.536   2.549  0.00  0.00    -0.010 A 
ATOM     21  C   UNL     1      -0.687   0.136   3.645  0.00  0.00    +0.026 A 
ATOM     22  C   UNL     1       0.075  -0.533   4.586  0.00  0.00    +0.023 A 
ATOM     23  C   UNL     1       0.369  -1.840   4.384  0.00  0.00    +0.046 A 
ATOM     24  S   UNL     1      -0.446  -2.167   2.830  0.00  0.00    -0.102 S 
ATOM     25 BR   UNL     1      -1.122   1.961   3.884  0.00  0.00    -0.050 Br
ENDBRANCH  18  20
ENDBRANCH  15  18
ENDBRANCH   2  15
TORSDOF 6
