REMARK  Name = ZINC16914432
REMARK  8 active torsions:
REMARK  status: ('A' for Active; 'I' for Inactive)
REMARK    1  A    between atoms: C_1  and  N_2
REMARK    2  A    between atoms: N_2  and  C_3
REMARK    3  A    between atoms: N_2  and  C_4
REMARK    4  A    between atoms: C_7  and  C_10
REMARK    5  A    between atoms: C_10  and  C_12
REMARK    6  A    between atoms: C_10  and  N_56
REMARK    7  A    between atoms: C_12  and  N_13
REMARK    8  A    between atoms: C_14  and  C_16
REMARK                            x       y       z     vdW  Elec       q    Type
REMARK                         _______ _______ _______ _____ _____    ______ ____
ROOT
ATOM      1  C   UNL     1       2.490   1.044  -0.016  0.00  0.00    -0.020 C 
ENDROOT
BRANCH   1  11
ATOM      2  C   UNL     1       3.097   1.835   2.193  0.00  0.00    -0.073 C 
ATOM      3  C   UNL     1       4.309   2.284   3.009  0.00  0.00    +0.017 C 
ATOM      4  C   UNL     1       4.898   3.535   2.409  0.00  0.00    -0.048 A 
ATOM      5  C   UNL     1       5.764   4.294   3.182  0.00  0.00    +0.004 A 
ATOM      6  C   UNL     1       6.328   5.446   2.670  0.00  0.00    +0.000 A 
ATOM      7  C   UNL     1       6.027   5.844   1.380  0.00  0.00    +0.000 A 
ATOM      8  C   UNL     1       5.165   5.090   0.611  0.00  0.00    +0.002 A 
ATOM      9  C   UNL     1       4.595   3.933   1.125  0.00  0.00    -0.061 A 
ATOM     10  C   UNL     1       3.653   3.149   0.251  0.00  0.00    -0.042 C 
ATOM     11  N   UNL     1       3.502   1.780   0.774  0.00  0.00    +0.388 N 
ATOM     12  H   UNL     1       4.403   1.292   0.701  0.00  0.00    -0.080 HD
ENDBRANCH   1  11
BRANCH   1  16
ATOM     13  C   UNL     1      -1.390   2.721   0.618  0.00  0.00    +0.029 A 
ATOM     14  C   UNL     1      -0.457   3.399  -0.156  0.00  0.00    +0.023 A 
ATOM     15  C   UNL     1       0.794   2.852  -0.363  0.00  0.00    +0.004 A 
ATOM     16  C   UNL     1       1.122   1.636   0.207  0.00  0.00    -0.059 A 
ATOM     17  C   UNL     1       0.197   0.961   0.983  0.00  0.00    +0.004 A 
ATOM     18  C   UNL     1      -1.058   1.499   1.190  0.00  0.00    +0.023 A 
BRANCH  13  20
ATOM     19  C   UNL     1      -3.639   2.555   1.647  0.00  0.00    +0.129 C 
ATOM     20  N   UNL     1      -2.658   3.269   0.825  0.00  0.00    -0.336 N 
ATOM     21  C   UNL     1      -3.007   4.557   0.222  0.00  0.00    +0.129 C 
ENDBRANCH  13  20
ENDBRANCH   1  16
BRANCH   1  22
ATOM     22  C   UNL     1       2.848   1.135  -1.501  0.00  0.00    +0.094 C 
BRANCH  22  23
ATOM     23  N   UNL     1       4.223   0.671  -1.701  0.00  0.00    -0.310 N 
ATOM     24  C   UNL     1       4.758   0.661  -2.938  0.00  0.00    +0.279 C 
ATOM     25  O   UNL     1       4.099   1.038  -3.889  0.00  0.00    -0.267 OA
ATOM     26  H   UNL     1       4.748   0.370  -0.943  0.00  0.00    +0.149 HD
BRANCH  24  27
ATOM     27  C   UNL     1       6.133   0.197  -3.137  0.00  0.00    +0.191 A 
ATOM     28  C   UNL     1       6.793   0.131  -4.332  0.00  0.00    +0.056 A 
ATOM     29  C   UNL     1       8.076  -0.365  -4.058  0.00  0.00    +0.058 A 
ATOM     30  C   UNL     1       8.142  -0.586  -2.725  0.00  0.00    +0.171 A 
ATOM     31  O   UNL     1       6.969  -0.246  -2.174  0.00  0.00    -0.444 OA
ATOM     32 BR   UNL     1       9.642  -1.262  -1.793  0.00  0.00    -0.008 Br
ENDBRANCH  24  27
ENDBRANCH  22  23
ENDBRANCH   1  22
TORSDOF 6
