REMARK  Name = ZINC63807613
REMARK  11 active torsions:
REMARK  status: ('A' for Active; 'I' for Inactive)
REMARK    1  A    between atoms: C_1  and  N_2
REMARK    2  A    between atoms: N_2  and  C_3
REMARK    3  A    between atoms: N_2  and  C_4
REMARK    4  A    between atoms: C_4  and  C_6
REMARK    5  A    between atoms: C_4  and  C_32
REMARK    6  A    between atoms: C_6  and  N_7
REMARK    7  A    between atoms: C_8  and  C_10
REMARK    8  A    between atoms: C_10  and  C_12
REMARK    9  A    between atoms: C_10  and  N_22
REMARK   10  A    between atoms: C_12  and  C_13
REMARK   11  A    between atoms: C_23  and  C_25
REMARK                            x       y       z     vdW  Elec       q    Type
REMARK                         _______ _______ _______ _____ _____    ______ ____
ROOT
ATOM      1  C   UNL     1      -2.018   3.845  -2.291  0.00  0.00    +0.163 C 
ENDROOT
BRANCH   1   3
ATOM      2  N   UNL     1      -1.787   1.534  -1.439  0.00  0.00    -0.315 N 
ATOM      3  C   UNL     1      -2.405   2.388  -2.278  0.00  0.00    +0.234 C 
ATOM      4  O   UNL     1      -3.273   1.985  -3.023  0.00  0.00    -0.274 OA
ATOM      5  H   UNL     1      -1.093   1.857  -0.843  0.00  0.00    +0.149 HD
BRANCH   2   6
ATOM      6  C   UNL     1      -2.163   0.118  -1.426  0.00  0.00    +0.094 C 
BRANCH   6   7
ATOM      7  C   UNL     1      -1.238  -0.647  -0.477  0.00  0.00    -0.014 C 
BRANCH   7   8
ATOM      8  C   UNL     1      -1.442  -0.152   0.931  0.00  0.00    -0.022 A 
ATOM      9  C   UNL     1      -0.697   0.729   1.643  0.00  0.00    +0.009 A 
ATOM     10  C   UNL     1      -1.079   1.039   2.935  0.00  0.00    +0.008 A 
ATOM     11  C   UNL     1      -2.187   0.454   3.451  0.00  0.00    +0.045 A 
ATOM     12  S   UNL     1      -2.733  -0.567   2.092  0.00  0.00    -0.103 S 
ENDBRANCH   7   8
BRANCH   7  14
ATOM     13  C   UNL     1      -1.294  -2.576  -1.902  0.00  0.00    -0.096 C 
ATOM     14  N   UNL     1      -1.548  -2.081  -0.542  0.00  0.00    +0.382 N 
ATOM     15  C   UNL     1      -0.699  -2.809   0.410  0.00  0.00    -0.096 C 
ATOM     16  H   UNL     1      -2.518  -2.227  -0.307  0.00  0.00    -0.082 HD
ENDBRANCH   7  14
ENDBRANCH   6   7
ENDBRANCH   2   6
ENDBRANCH   1   3
BRANCH   1  17
ATOM     17  N   UNL     1      -2.830   4.557  -3.281  0.00  0.00    -0.300 N 
ATOM     18  C   UNL     1      -3.045   5.881  -3.150  0.00  0.00    +0.245 C 
ATOM     19  O   UNL     1      -2.565   6.484  -2.210  0.00  0.00    -0.270 OA
ATOM     20  H   UNL     1      -3.212   4.075  -4.031  0.00  0.00    +0.150 HD
BRANCH  18  21
ATOM     21  C   UNL     1      -3.862   6.599  -4.149  0.00  0.00    +0.037 A 
ATOM     22  C   UNL     1      -4.419   5.907  -5.227  0.00  0.00    +0.016 A 
ATOM     23  C   UNL     1      -5.181   6.582  -6.156  0.00  0.00    +0.039 A 
ATOM     24  C   UNL     1      -5.396   7.945  -6.022  0.00  0.00    +0.123 A 
ATOM     25  C   UNL     1      -4.845   8.637  -4.954  0.00  0.00    +0.039 A 
ATOM     26  C   UNL     1      -4.087   7.971  -4.016  0.00  0.00    +0.016 A 
ATOM     27  F   UNL     1      -6.143   8.602  -6.936  0.00  0.00    -0.205 F 
ENDBRANCH  18  21
ENDBRANCH   1  17
BRANCH   1  28
ATOM     28  C   UNL     1      -0.538   3.976  -2.654  0.00  0.00    +0.065 C 
BRANCH  28  29
ATOM     29  C   UNL     1      -0.299   3.369  -4.013  0.00  0.00    -0.039 C 
ATOM     30  C   UNL     1      -0.263   4.018  -5.199  0.00  0.00    -0.001 A 
ATOM     31  C   UNL     1      -0.432   5.429  -5.565  0.00  0.00    +0.010 A 
ATOM     32  C   UNL     1      -0.341   5.785  -6.867  0.00  0.00    +0.001 A 
ATOM     33  C   UNL     1      -0.091   4.841  -7.872  0.00  0.00    +0.002 A 
ATOM     34  C   UNL     1       0.075   3.526  -7.614  0.00  0.00    +0.026 A 
ATOM     35  C   UNL     1       0.001   3.041  -6.279  0.00  0.00    +0.043 A 
ATOM     36  N   UNL     1       0.124   1.835  -5.780  0.00  0.00    -0.380 N 
ATOM     37  C   UNL     1      -0.043   1.911  -4.325  0.00  0.00    +0.144 C 
ATOM     38  H   UNL     1       0.299   1.028  -6.289  0.00  0.00    +0.160 HD
ENDBRANCH  28  29
ENDBRANCH   1  28
TORSDOF 9
