REMARK  Name = ZINC39938799
REMARK  6 active torsions:
REMARK  status: ('A' for Active; 'I' for Inactive)
REMARK    1  A    between atoms: C_1  and  C_2
REMARK    2  A    between atoms: C_2  and  C_4
REMARK    3  A    between atoms: C_2  and  S_12
REMARK    4  A    between atoms: S_12  and  C_13
REMARK    5  A    between atoms: C_17  and  C_26
REMARK    6  A    between atoms: N_18  and  C_19
REMARK                            x       y       z     vdW  Elec       q    Type
REMARK                         _______ _______ _______ _____ _____    ______ ____
ROOT
ATOM      1  C   UNL     1       2.569   0.109   1.061  0.00  0.00    +0.242 C 
ATOM      2  N   UNL     1       3.035  -0.201  -0.300  0.00  0.00    -0.237 N 
ATOM      3  N   UNL     1       3.303   1.026  -0.919  0.00  0.00    -0.169 NA
ATOM      4  C   UNL     1       3.061   2.026  -0.113  0.00  0.00    +0.151 C 
ATOM      5  N   UNL     1       2.605   1.579   1.133  0.00  0.00    -0.254 N 
ATOM      6  H   UNL     1       3.138  -1.083  -0.692  0.00  0.00    +0.171 HD
ENDROOT
BRANCH   4   7
ATOM      7  C   UNL     1       3.236   3.376  -0.454  0.00  0.00    +0.022 C 
ATOM      8  C   UNL     1       3.780   3.885  -1.633  0.00  0.00    +0.006 A 
ATOM      9  C   UNL     1       4.298   3.264  -2.789  0.00  0.00    +0.010 A 
ATOM     10  C   UNL     1       4.773   4.026  -3.808  0.00  0.00    +0.001 A 
ATOM     11  C   UNL     1       4.764   5.421  -3.744  0.00  0.00    +0.002 A 
ATOM     12  C   UNL     1       4.282   6.084  -2.664  0.00  0.00    +0.026 A 
ATOM     13  C   UNL     1       3.768   5.355  -1.560  0.00  0.00    +0.043 A 
ATOM     14  N   UNL     1       3.252   5.756  -0.415  0.00  0.00    -0.380 N 
ATOM     15  C   UNL     1       2.867   4.584   0.379  0.00  0.00    +0.152 C 
ATOM     16  H   UNL     1       3.141   6.680  -0.142  0.00  0.00    +0.160 HD
ENDBRANCH   4   7
BRANCH   5  17
ATOM     17  C   UNL     1       2.253   2.371   2.230  0.00  0.00    +0.038 A 
ATOM     18  C   UNL     1       3.050   2.376   3.368  0.00  0.00    +0.025 A 
ATOM     19  C   UNL     1       2.700   3.159   4.451  0.00  0.00    +0.022 A 
ATOM     20  C   UNL     1       1.556   3.938   4.402  0.00  0.00    +0.041 A 
ATOM     21  C   UNL     1       0.761   3.934   3.270  0.00  0.00    +0.022 A 
ATOM     22  C   UNL     1       1.110   3.158   2.182  0.00  0.00    +0.025 A 
ATOM     23 CL   UNL     1       1.119   4.920   5.765  0.00  0.00    -0.084 Cl
ENDBRANCH   5  17
BRANCH   1  24
ATOM     24  S   UNL     1       0.876  -0.496   1.305  0.00  0.00    -0.105 S 
BRANCH  24  26
ATOM     25  C   UNL     1      -0.188   1.589  -0.108  0.00  0.00    +0.029 C 
ATOM     26  C   UNL     1      -0.010   0.071  -0.172  0.00  0.00    +0.133 C 
BRANCH  26  27
ATOM     27  C   UNL     1      -1.363  -0.591  -0.231  0.00  0.00    +0.236 C 
ATOM     28  O   UNL     1      -1.890  -0.986   0.787  0.00  0.00    -0.274 OA
ATOM     29  N   UNL     1      -1.987  -0.744  -1.416  0.00  0.00    -0.224 N 
ATOM     30  C   UNL     1      -3.306  -1.365  -1.611  0.00  0.00    +0.136 C 
ATOM     31  C   UNL     1      -3.533  -1.280  -3.132  0.00  0.00    +0.125 C 
ATOM     32  N   UNL     1      -2.318  -0.621  -3.634  0.00  0.00    -0.297 N 
ATOM     33  C   UNL     1      -1.507  -0.350  -2.603  0.00  0.00    +0.309 C 
ATOM     34  O   UNL     1      -0.431   0.201  -2.733  0.00  0.00    -0.252 OA
ATOM     35  H   UNL     1      -2.135  -0.411  -4.563  0.00  0.00    +0.150 HD
ENDBRANCH  26  27
ENDBRANCH  24  26
ENDBRANCH   1  24
TORSDOF 5
