REMARK  Name = ZINC14252596
REMARK  8 active torsions:
REMARK  status: ('A' for Active; 'I' for Inactive)
REMARK    1  A    between atoms: C_1  and  C_2
REMARK    2  A    between atoms: C_4  and  C_22
REMARK    3  A    between atoms: C_6  and  C_19
REMARK    4  A    between atoms: N_9  and  C_11
REMARK    5  A    between atoms: N_24  and  C_25
REMARK    6  A    between atoms: C_25  and  C_26
REMARK    7  A    between atoms: C_26  and  C_28
REMARK    8  A    between atoms: C_26  and  N_66
REMARK                            x       y       z     vdW  Elec       q    Type
REMARK                         _______ _______ _______ _____ _____    ______ ____
ROOT
ATOM      1  C   UNL     1       4.387   2.422  -6.195  0.00  0.00    +0.068 C 
ATOM      2  C   UNL     1       5.838   2.043  -6.042  0.00  0.00    +0.070 A 
ATOM      3  C   UNL     1       6.402   1.372  -4.937  0.00  0.00    +0.054 A 
ATOM      4  C   UNL     1       5.881   0.884  -3.717  0.00  0.00    +0.051 A 
ATOM      5  C   UNL     1       6.764   0.263  -2.836  0.00  0.00    +0.037 A 
ATOM      6  C   UNL     1       8.103   0.153  -3.180  0.00  0.00    +0.047 A 
ATOM      7  N   UNL     1       8.564   0.619  -4.319  0.00  0.00    -0.232 NA
ATOM      8  C   UNL     1       7.778   1.220  -5.201  0.00  0.00    +0.160 A 
ATOM      9  N   UNL     1       7.998   1.783  -6.431  0.00  0.00    -0.241 N 
ATOM     10  N   UNL     1       6.779   2.276  -6.911  0.00  0.00    -0.174 NA
ENDROOT
BRANCH   9  11
ATOM     11  C   UNL     1       9.287   1.855  -7.124  0.00  0.00    +0.132 C 
ATOM     12  C   UNL     1       9.651   3.328  -7.373  0.00  0.00    +0.051 C 
ATOM     13  C   UNL     1      10.844   3.370  -8.371  0.00  0.00    +0.168 C 
ATOM     14  S   UNL     1      10.346   2.042  -9.547  0.00  0.00    -0.029 S 
ATOM     15  O   UNL     1       9.614   2.622 -10.618  0.00  0.00    -0.174 OA
ATOM     16  O   UNL     1      11.477   1.230  -9.832  0.00  0.00    -0.174 OA
ATOM     17  C   UNL     1       9.189   1.100  -8.472  0.00  0.00    +0.192 C 
ENDBRANCH   9  11
BRANCH   4  18
ATOM     18  C   UNL     1       4.446   1.022  -3.390  0.00  0.00    +0.245 C 
ATOM     19  O   UNL     1       3.606   0.820  -4.244  0.00  0.00    -0.270 OA
ATOM     20  N   UNL     1       4.070   1.373  -2.144  0.00  0.00    -0.312 N 
ATOM     21  H   UNL     1       4.741   1.534  -1.462  0.00  0.00    +0.149 HD
BRANCH  20  22
ATOM     22  C   UNL     1       2.648   1.510  -1.819  0.00  0.00    +0.097 C 
BRANCH  22  23
ATOM     23  C   UNL     1       2.496   1.913  -0.351  0.00  0.00    +0.016 C 
BRANCH  23  28
ATOM     24  C   UNL     1       2.938   4.195  -1.075  0.00  0.00    -0.078 C 
ATOM     25  C   UNL     1       3.408   5.491  -0.368  0.00  0.00    -0.020 C 
ATOM     26  C   UNL     1       3.051   5.225   1.113  0.00  0.00    -0.020 C 
ATOM     27  C   UNL     1       2.958   3.693   1.236  0.00  0.00    -0.078 C 
ATOM     28  N   UNL     1       3.278   3.158  -0.088  0.00  0.00    +0.387 N 
ATOM     29  H   UNL     1       4.281   2.944  -0.142  0.00  0.00    -0.081 HD
ENDBRANCH  23  28
BRANCH  23  30
ATOM     30  C   UNL     1       1.043   2.173  -0.049  0.00  0.00    +0.093 A 
ATOM     31  C   UNL     1       0.194   1.308   0.535  0.00  0.00    +0.043 A 
ATOM     32  C   UNL     1      -1.059   1.958   0.617  0.00  0.00    +0.041 A 
ATOM     33  C   UNL     1      -0.899   3.183   0.087  0.00  0.00    +0.195 A 
ATOM     34  O   UNL     1       0.376   3.307  -0.319  0.00  0.00    -0.469 OA
ENDBRANCH  23  30
ENDBRANCH  22  23
ENDBRANCH  20  22
ENDBRANCH   4  18
BRANCH   6  35
ATOM     35  C   UNL     1       9.054  -0.519  -2.223  0.00  0.00    +0.038 C 
ATOM     36  C   UNL     1       8.589  -0.702  -0.777  0.00  0.00    +0.010 C 
ATOM     37  C   UNL     1       9.660   0.338  -1.110  0.00  0.00    +0.010 C 
ENDBRANCH   6  35
TORSDOF 7
