REMARK  Name = ZINC32620239
REMARK  12 active torsions:
REMARK  status: ('A' for Active; 'I' for Inactive)
REMARK    1  A    between atoms: C_1  and  C_2
REMARK    2  A    between atoms: C_5  and  C_8
REMARK    3  A    between atoms: N_9  and  C_10
REMARK    4  A    between atoms: N_18  and  C_29
REMARK    5  A    between atoms: C_19  and  C_22
REMARK    6  A    between atoms: C_22  and  C_27
REMARK    7  A    between atoms: C_23  and  N_24
REMARK    8  A    between atoms: N_24  and  C_25
REMARK    9  A    between atoms: N_24  and  C_26
REMARK   10  A    between atoms: C_30  and  C_37
REMARK   11  A    between atoms: C_32  and  C_36
REMARK   12  A    between atoms: C_34  and  C_35
REMARK                            x       y       z     vdW  Elec       q    Type
REMARK                         _______ _______ _______ _____ _____    ______ ____
ROOT
ATOM      1  C   UNL     1      -6.006  -7.761  -1.258  0.00  0.00    +0.132 C 
ATOM      2  N   UNL     1      -5.737  -8.875  -1.895  0.00  0.00    -0.232 NA
ATOM      3  N   UNL     1      -5.597  -7.598   0.049  0.00  0.00    -0.278 N 
ATOM      4  C   UNL     1      -4.902  -8.609   0.687  0.00  0.00    +0.168 A 
ATOM      5  N   UNL     1      -4.436  -8.638   1.931  0.00  0.00    -0.273 N 
ATOM      6  C   UNL     1      -3.794  -9.736   2.316  0.00  0.00    +0.167 A 
ATOM      7  N   UNL     1      -3.667 -10.712   1.441  0.00  0.00    -0.188 NA
ATOM      8  S   UNL     1      -4.445 -10.109   0.085  0.00  0.00    +0.048 S 
ATOM      9  H   UNL     1      -5.796  -6.774   0.520  0.00  0.00    +0.155 HD
ENDROOT
BRANCH   5  10
ATOM     10  C   UNL     1      -4.610  -7.571   2.788  0.00  0.00    +0.056 A 
ATOM     11  C   UNL     1      -3.660  -6.552   2.838  0.00  0.00    -0.026 A 
ATOM     12  C   UNL     1      -3.840  -5.487   3.696  0.00  0.00    +0.008 A 
ATOM     13  C   UNL     1      -4.960  -5.430   4.507  0.00  0.00    -0.050 A 
ATOM     14  C   UNL     1      -5.905  -6.439   4.461  0.00  0.00    +0.008 A 
ATOM     15  C   UNL     1      -5.739  -7.505   3.602  0.00  0.00    -0.026 A 
ATOM     16  C   UNL     1      -6.772  -8.601   3.549  0.00  0.00    +0.046 C 
ATOM     17  C   UNL     1      -5.150  -4.264   5.443  0.00  0.00    +0.044 C 
ATOM     18  C   UNL     1      -2.440  -6.614   1.956  0.00  0.00    +0.046 C 
ENDBRANCH   5  10
BRANCH   1  23
ATOM     19  C   UNL     1      -8.895  -3.551  -3.913  0.00  0.00    +0.044 C 
ATOM     20  C   UNL     1      -8.139  -4.654  -3.217  0.00  0.00    -0.050 A 
ATOM     21  C   UNL     1      -8.379  -4.917  -1.880  0.00  0.00    +0.004 A 
ATOM     22  C   UNL     1      -7.690  -5.924  -1.238  0.00  0.00    +0.011 A 
ATOM     23  C   UNL     1      -6.749  -6.680  -1.940  0.00  0.00    +0.015 A 
ATOM     24  C   UNL     1      -6.512  -6.410  -3.289  0.00  0.00    +0.011 A 
ATOM     25  C   UNL     1      -7.211  -5.402  -3.920  0.00  0.00    +0.004 A 
ENDBRANCH   1  23
BRANCH   2  26
ATOM     26  C   UNL     1      -6.253  -9.090  -3.144  0.00  0.00    +0.066 A 
ATOM     27  C   UNL     1      -7.636  -9.156  -3.330  0.00  0.00    +0.028 A 
ATOM     28  C   UNL     1      -8.149  -9.373  -4.592  0.00  0.00    +0.002 A 
ATOM     29  C   UNL     1      -7.297  -9.525  -5.672  0.00  0.00    +0.000 A 
ATOM     30  C   UNL     1      -5.926  -9.461  -5.495  0.00  0.00    +0.002 A 
ATOM     31  C   UNL     1      -5.399  -9.239  -4.239  0.00  0.00    +0.028 A 
ENDBRANCH   2  26
BRANCH   6  32
ATOM     32  C   UNL     1      -3.239  -9.857   3.683  0.00  0.00    +0.109 C 
ATOM     33  C   UNL     1      -2.485 -10.940   4.018  0.00  0.00    +0.092 C 
BRANCH  33  34
ATOM     34  N   UNL     1      -2.123 -11.843   3.058  0.00  0.00    -0.341 N 
ATOM     35  C   UNL     1      -1.456 -11.387   1.837  0.00  0.00    +0.128 C 
ATOM     36  C   UNL     1      -2.402 -13.268   3.251  0.00  0.00    +0.128 C 
ENDBRANCH  33  34
BRANCH  32  37
ATOM     37  C   UNL     1      -3.495  -8.836   4.654  0.00  0.00    +0.104 C 
ATOM     38  N   UNL     1      -3.699  -8.026   5.423  0.00  0.00    -0.191 NA
ENDBRANCH  32  37
ENDBRANCH   6  32
TORSDOF 6
