REMARK  Name = ZINC64672751
REMARK  8 active torsions:
REMARK  status: ('A' for Active; 'I' for Inactive)
REMARK    1  A    between atoms: C_1  and  C_2
REMARK    2  A    between atoms: C_2  and  C_3
REMARK    3  A    between atoms: N_5  and  C_6
REMARK    4  A    between atoms: C_9  and  C_12
REMARK    5  A    between atoms: C_12  and  C_14
REMARK    6  A    between atoms: C_14  and  N_15
REMARK    7  A    between atoms: C_18  and  C_23
REMARK    8  A    between atoms: C_23  and  C_24
REMARK                            x       y       z     vdW  Elec       q    Type
REMARK                         _______ _______ _______ _____ _____    ______ ____
ROOT
ATOM      1  N   UNL     1      -8.751  -5.250  -0.400  0.00  0.00    -0.217 N 
ATOM      2  C   UNL     1      -9.575  -5.322   0.664  0.00  0.00    +0.244 C 
ATOM      3  O   UNL     1      -9.268  -5.244   1.834  0.00  0.00    -0.273 OA
ATOM      4  C   UNL     1     -10.965  -5.518   0.094  0.00  0.00    +0.165 C 
ATOM      5  N   UNL     1     -10.743  -5.536  -1.362  0.00  0.00    -0.287 N 
ATOM      6  C   UNL     1      -9.422  -5.368  -1.552  0.00  0.00    +0.310 C 
ATOM      7  O   UNL     1      -8.895  -5.331  -2.647  0.00  0.00    -0.252 OA
ATOM      8  H   UNL     1     -11.418  -5.645  -2.050  0.00  0.00    +0.151 HD
ENDROOT
BRANCH   1   9
ATOM      9  C   UNL     1      -7.301  -5.061  -0.307  0.00  0.00    +0.197 C 
BRANCH   9  10
ATOM     10  C   UNL     1      -6.985  -3.588  -0.315  0.00  0.00    +0.181 C 
ATOM     11  O   UNL     1      -7.883  -2.776  -0.390  0.00  0.00    -0.290 OA
BRANCH  10  15
ATOM     12  C   UNL     1      -2.963  -2.283  -0.072  0.00  0.00    +0.033 A 
ATOM     13  C   UNL     1      -3.992  -1.349  -0.159  0.00  0.00    +0.024 A 
ATOM     14  C   UNL     1      -5.295  -1.767  -0.237  0.00  0.00    +0.013 A 
ATOM     15  C   UNL     1      -5.591  -3.136  -0.231  0.00  0.00    +0.019 A 
ATOM     16  C   UNL     1      -4.553  -4.072  -0.143  0.00  0.00    +0.013 A 
ATOM     17  C   UNL     1      -3.252  -3.645  -0.070  0.00  0.00    +0.024 A 
BRANCH  12  20
ATOM     18  C   UNL     1      -0.664  -2.564  -0.592  0.00  0.00    +0.217 C 
ATOM     19  O   UNL     1      -0.925  -3.619  -1.129  0.00  0.00    -0.275 OA
ATOM     20  N   UNL     1      -1.640  -1.854   0.008  0.00  0.00    -0.286 N 
ATOM     21  H   UNL     1      -1.421  -1.044   0.495  0.00  0.00    +0.155 HD
BRANCH  18  23
ATOM     22  C   UNL     1       1.655  -3.035  -1.334  0.00  0.00    +0.013 C 
ATOM     23  C   UNL     1       0.751  -2.047  -0.594  0.00  0.00    +0.093 C 
ENDBRANCH  18  23
ENDBRANCH  12  20
ENDBRANCH  10  15
ENDBRANCH   9  10
ENDBRANCH   1   9
BRANCH   4  24
ATOM     24  C   UNL     1     -11.878  -4.354   0.487  0.00  0.00    +0.065 C 
BRANCH  24  25
ATOM     25  C   UNL     1     -13.281  -4.633   0.013  0.00  0.00    -0.039 C 
ATOM     26  C   UNL     1     -14.287  -5.185   0.730  0.00  0.00    -0.001 A 
ATOM     27  C   UNL     1     -14.372  -5.672   2.112  0.00  0.00    +0.010 A 
ATOM     28  C   UNL     1     -15.543  -6.184   2.555  0.00  0.00    +0.001 A 
ATOM     29  C   UNL     1     -16.673  -6.262   1.730  0.00  0.00    +0.002 A 
ATOM     30  C   UNL     1     -16.672  -5.835   0.450  0.00  0.00    +0.026 A 
ATOM     31  C   UNL     1     -15.495  -5.277  -0.121  0.00  0.00    +0.043 A 
ATOM     32  N   UNL     1     -15.245  -4.802  -1.317  0.00  0.00    -0.380 N 
ATOM     33  C   UNL     1     -13.851  -4.348  -1.358  0.00  0.00    +0.144 C 
ATOM     34  H   UNL     1     -15.878  -4.754  -2.051  0.00  0.00    +0.160 HD
ENDBRANCH  24  25
ENDBRANCH   4  24
TORSDOF 7
