REMARK  Name = ZINC13495970
REMARK  19 active torsions:
REMARK  status: ('A' for Active; 'I' for Inactive)
REMARK    1  A    between atoms: C_1  and  C_2
REMARK    2  A    between atoms: C_2  and  C_3
REMARK    3  A    between atoms: C_3  and  C_5
REMARK    4  A    between atoms: C_3  and  N_79
REMARK    5  A    between atoms: N_9  and  C_10
REMARK    6  A    between atoms: C_10  and  C_11
REMARK    7  A    between atoms: C_10  and  C_12
REMARK    8  A    between atoms: C_10  and  C_13
REMARK    9  A    between atoms: C_13  and  C_14
REMARK   10  A    between atoms: C_15  and  C_16
REMARK   11  A    between atoms: C_15  and  N_79
REMARK   12  A    between atoms: C_16  and  C_17
REMARK   13  A    between atoms: C_20  and  O_25
REMARK   14  A    between atoms: C_21  and  O_23
REMARK   15  A    between atoms: O_23  and  C_24
REMARK   16  A    between atoms: O_25  and  C_26
REMARK   17  A    between atoms: C_27  and  C_28
REMARK   18  A    between atoms: C_27  and  N_79
REMARK   19  A    between atoms: C_32  and  C_40
REMARK                            x       y       z     vdW  Elec       q    Type
REMARK                         _______ _______ _______ _____ _____    ______ ____
ROOT
ATOM      1  N   UNL     1       1.010   2.243  -0.094  0.00  0.00    +0.389 N 
ATOM      2  H   UNL     1       1.290   1.625   0.676  0.00  0.00    -0.080 HD
ENDROOT
BRANCH   1   3
ATOM      3  C   UNL     1       1.827   1.929  -1.284  0.00  0.00    +0.003 C 
BRANCH   3   4
ATOM      4  C   UNL     1       2.248   0.483  -1.208  0.00  0.00    +0.139 A 
ATOM      5  N   UNL     1       1.544  -0.512  -0.728  0.00  0.00    -0.115 NA
ATOM      6  N   UNL     1       2.246  -1.587  -0.839  0.00  0.00    -0.023 NA
ATOM      7  N   UNL     1       3.380  -1.302  -1.378  0.00  0.00    -0.043 NA
ATOM      8  N   UNL     1       3.417  -0.036  -1.625  0.00  0.00    -0.225 N 
BRANCH   8   9
ATOM      9  C   UNL     1       4.526   0.698  -2.241  0.00  0.00    +0.061 C 
ATOM     10  C   UNL     1       4.005   1.500  -3.435  0.00  0.00    +0.036 C 
ATOM     11  C   UNL     1       5.139   1.651  -1.214  0.00  0.00    +0.036 C 
BRANCH   9  12
ATOM     12  C   UNL     1       5.590  -0.292  -2.717  0.00  0.00    +0.026 C 
ATOM     13  C   UNL     1       6.796   0.478  -3.259  0.00  0.00    +0.006 C 
ENDBRANCH   9  12
ENDBRANCH   8   9
ENDBRANCH   3   4
BRANCH   3  15
ATOM     14  C   UNL     1       0.708   3.648  -2.710  0.00  0.00    +0.002 C 
ATOM     15  C   UNL     1       1.018   2.157  -2.562  0.00  0.00    -0.011 C 
ENDBRANCH   3  15
ENDBRANCH   1   3
BRANCH   1  16
ATOM     16  C   UNL     1      -0.421   2.022  -0.392  0.00  0.00    -0.073 C 
BRANCH  16  17
ATOM     17  C   UNL     1      -0.668   0.519  -0.533  0.00  0.00    +0.017 C 
BRANCH  17  18
ATOM     18  C   UNL     1      -2.147   0.264  -0.678  0.00  0.00    -0.045 A 
ATOM     19  C   UNL     1      -2.922   0.047   0.446  0.00  0.00    +0.007 A 
ATOM     20  C   UNL     1      -4.280  -0.182   0.319  0.00  0.00    +0.049 A 
ATOM     21  C   UNL     1      -4.864  -0.204  -0.938  0.00  0.00    +0.161 A 
ATOM     22  C   UNL     1      -4.082   0.009  -2.069  0.00  0.00    +0.162 A 
ATOM     23  C   UNL     1      -2.723   0.243  -1.934  0.00  0.00    +0.053 A 
BRANCH  22  24
ATOM     24  O   UNL     1      -4.651  -0.011  -3.304  0.00  0.00    -0.491 OA
ATOM     25  C   UNL     1      -3.788   0.216  -4.420  0.00  0.00    +0.277 C 
ENDBRANCH  22  24
BRANCH  21  26
ATOM     26  O   UNL     1      -6.198  -0.434  -1.065  0.00  0.00    -0.491 OA
ATOM     27  C   UNL     1      -6.938  -0.644   0.140  0.00  0.00    +0.277 C 
ENDBRANCH  21  26
ENDBRANCH  17  18
ENDBRANCH  16  17
ENDBRANCH   1  16
BRANCH   1  28
ATOM     28  C   UNL     1       1.230   3.647   0.313  0.00  0.00    -0.037 C 
BRANCH  28  29
ATOM     29  C   UNL     1       2.573   3.750   0.988  0.00  0.00    +0.001 A 
ATOM     30  C   UNL     1       3.634   4.253   0.309  0.00  0.00    +0.017 A 
ATOM     31  C   UNL     1       4.924   4.344   0.995  0.00  0.00    -0.001 A 
ATOM     32  C   UNL     1       6.053   4.858   0.348  0.00  0.00    +0.013 A 
ATOM     33  C   UNL     1       7.244   4.924   1.014  0.00  0.00    -0.050 A 
ATOM     34  C   UNL     1       7.344   4.484   2.327  0.00  0.00    +0.005 A 
ATOM     35  C   UNL     1       6.245   3.974   2.984  0.00  0.00    +0.026 A 
ATOM     36  C   UNL     1       5.022   3.897   2.326  0.00  0.00    +0.049 A 
ATOM     37  N   UNL     1       3.907   3.390   2.959  0.00  0.00    -0.322 N 
ATOM     38  H   UNL     1       3.976   3.083   3.876  0.00  0.00    +0.169 HD
ATOM     39  C   UNL     1       2.725   3.316   2.322  0.00  0.00    +0.251 A 
ATOM     40  O   UNL     1       1.760   2.862   2.913  0.00  0.00    -0.268 OA
ATOM     41  C   UNL     1       8.459   5.478   0.317  0.00  0.00    +0.044 C 
ENDBRANCH  28  29
ENDBRANCH   1  28
TORSDOF 12
