REMARK  Name = ZINC63295565
REMARK  6 active torsions:
REMARK  status: ('A' for Active; 'I' for Inactive)
REMARK    1  A    between atoms: C_6  and  C_11
REMARK    2  A    between atoms: N_13  and  C_14
REMARK    3  A    between atoms: C_14  and  C_15
REMARK    4  A    between atoms: C_15  and  C_16
REMARK    5  A    between atoms: C_16  and  C_17
REMARK    6  A    between atoms: N_19  and  C_20
REMARK                            x       y       z     vdW  Elec       q    Type
REMARK                         _______ _______ _______ _____ _____    ______ ____
ROOT
ATOM      1  C   UNL     1       3.338  -6.180  -2.688  0.00  0.00    +0.028 C 
ENDROOT
BRANCH   1   2
ATOM      2  C   UNL     1       3.809  -4.725  -2.700  0.00  0.00    +0.104 C 
BRANCH   2   5
ATOM      3  C   UNL     1       3.631  -2.749  -1.285  0.00  0.00    +0.239 C 
ATOM      4  O   UNL     1       4.291  -2.141  -2.101  0.00  0.00    -0.273 OA
ATOM      5  N   UNL     1       3.335  -4.048  -1.491  0.00  0.00    -0.313 N 
ATOM      6  H   UNL     1       2.807  -4.534  -0.838  0.00  0.00    +0.149 HD
BRANCH   3  12
ATOM      7  C   UNL     1      -0.016   1.348   0.009  0.00  0.00    +0.001 A 
ATOM      8  C   UNL     1       1.166   2.101   0.002  0.00  0.00    +0.002 A 
ATOM      9  C   UNL     1       2.391   1.535  -0.013  0.00  0.00    +0.026 A 
ATOM     10  C   UNL     1       2.529   0.120  -0.022  0.00  0.00    +0.043 A 
ATOM     11  N   UNL     1       3.587  -0.654  -0.037  0.00  0.00    -0.370 N 
ATOM     12  C   UNL     1       3.143  -2.053  -0.041  0.00  0.00    +0.190 C 
ATOM     13  C   UNL     1       1.631  -2.008  -0.025  0.00  0.00    +0.016 C 
ATOM     14  C   UNL     1       1.295  -0.698  -0.014  0.00  0.00    -0.004 A 
ATOM     15  C   UNL     1       0.002  -0.004   0.002  0.00  0.00    +0.010 A 
ATOM     16  H   UNL     1       4.509  -0.353  -0.045  0.00  0.00    +0.161 HD
ENDBRANCH   3  12
ENDBRANCH   2   5
ENDBRANCH   1   2
BRANCH   1  17
ATOM     17  C   UNL     1       3.834  -6.887  -3.951  0.00  0.00    +0.097 C 
BRANCH  17  18
ATOM     18  C   UNL     1       3.370  -8.321  -3.939  0.00  0.00    +0.215 C 
ATOM     19  O   UNL     1       2.708  -8.736  -3.012  0.00  0.00    -0.276 OA
ATOM     20  N   UNL     1       3.691  -9.142  -4.959  0.00  0.00    -0.288 N 
ATOM     21  H   UNL     1       4.220  -8.809  -5.701  0.00  0.00    +0.151 HD
BRANCH  20  22
ATOM     22  C   UNL     1       3.240 -10.535  -4.948  0.00  0.00    +0.224 C 
ATOM     23  N   UNL     1       3.454 -11.171  -6.255  0.00  0.00    -0.316 N 
ATOM     24  C   UNL     1       4.318 -12.263  -6.306  0.00  0.00    +0.043 A 
ATOM     25  C   UNL     1       4.644 -12.996  -7.462  0.00  0.00    +0.024 A 
ATOM     26  C   UNL     1       5.511 -14.062  -7.409  0.00  0.00    +0.002 A 
ATOM     27  C   UNL     1       6.093 -14.451  -6.216  0.00  0.00    +0.001 A 
ATOM     28  C   UNL     1       5.791 -13.748  -5.062  0.00  0.00    +0.016 A 
ATOM     29  C   UNL     1       4.923 -12.681  -5.116  0.00  0.00    +0.032 A 
ATOM     30  S   UNL     1       4.311 -11.568  -3.869  0.00  0.00    -0.082 S 
ATOM     31  H   UNL     1       3.010 -10.843  -7.052  0.00  0.00    +0.149 HD
ENDBRANCH  20  22
ENDBRANCH  17  18
ENDBRANCH   1  17
TORSDOF 6
