REMARK  Name = ZINC08969821
REMARK  5 active torsions:
REMARK  status: ('A' for Active; 'I' for Inactive)
REMARK    1  A    between atoms: C_1  and  C_2
REMARK    2  A    between atoms: C_4  and  N_38
REMARK    3  A    between atoms: C_7  and  N_8
REMARK    4  A    between atoms: C_23  and  C_29
REMARK    5  A    between atoms: C_29  and  C_31
REMARK                            x       y       z     vdW  Elec       q    Type
REMARK                         _______ _______ _______ _____ _____    ______ ____
ROOT
ATOM      1  N   UNL     1      -0.074   5.644   0.032  0.00  0.00    -0.210 N 
ATOM      2  C   UNL     1      -0.096   6.412  -1.110  0.00  0.00    +0.232 C 
ATOM      3  O   UNL     1      -0.383   6.067  -2.236  0.00  0.00    -0.274 OA
ATOM      4  C   UNL     1       0.305   7.733  -0.653  0.00  0.00    +0.113 C 
ATOM      5  C   UNL     1       0.426   9.099  -0.979  0.00  0.00    +0.100 C 
ATOM      6  C   UNL     1       0.192   9.962  -2.117  0.00  0.00    -0.021 A 
ATOM      7  C   UNL     1      -0.484   9.560  -3.251  0.00  0.00    +0.006 A 
ATOM      8  C   UNL     1      -0.674  10.428  -4.309  0.00  0.00    +0.000 A 
ATOM      9  C   UNL     1      -0.186  11.722  -4.250  0.00  0.00    +0.001 A 
ATOM     10  C   UNL     1       0.492  12.149  -3.128  0.00  0.00    +0.008 A 
ATOM     11  C   UNL     1       0.689  11.285  -2.053  0.00  0.00    -0.019 A 
ATOM     12  C   UNL     1       1.412  11.740  -0.851  0.00  0.00    +0.022 C 
ATOM     13  C   UNL     1       1.423  11.015   0.283  0.00  0.00    +0.054 C 
ATOM     14  C   UNL     1       0.205   8.999   1.381  0.00  0.00    +0.141 C 
ATOM     15  C   UNL     1      -0.462   7.783   0.740  0.00  0.00    +0.116 C 
ATOM     16  C   UNL     1      -0.079   6.397   1.173  0.00  0.00    +0.232 C 
ATOM     17  O   UNL     1       0.174   6.025   2.299  0.00  0.00    -0.274 OA
ATOM     18  N   UNL     1       1.010   9.545   0.240  0.00  0.00    -0.384 NA
ATOM     19  H   UNL     1       1.905   9.046   0.295  0.00  0.00    +0.127 HD
ENDROOT
BRANCH   1  26
ATOM     20  C   UNL     1      -2.564   4.264   0.049  0.00  0.00    +0.046 C 
ATOM     21  C   UNL     1      -1.247   3.531   0.033  0.00  0.00    -0.026 A 
ATOM     22  C   UNL     1      -1.225   2.150   0.020  0.00  0.00    +0.038 A 
ATOM     23  C   UNL     1      -0.018   1.476   0.010  0.00  0.00    +0.127 A 
ATOM     24  C   UNL     1       1.171   2.182   0.003  0.00  0.00    +0.034 A 
ATOM     25  C   UNL     1       1.155   3.563   0.010  0.00  0.00    +0.026 A 
ATOM     26  C   UNL     1      -0.056   4.242   0.025  0.00  0.00    +0.047 A 
BRANCH  23  27
ATOM     27  N   UNL     1       0.002  -0.004   0.002  0.00  0.00    +0.056 N 
ATOM     28  O   UNL     1       1.065  -0.599  -0.011  0.00  0.00    -0.126 OA
ATOM     29  O   UNL     1      -1.044  -0.627   0.009  0.00  0.00    -0.126 OA
ENDBRANCH  23  27
ENDBRANCH   1  26
BRANCH  14  30
ATOM     30  C   UNL     1       1.322   8.555   2.289  0.00  0.00    +0.183 C 
ATOM     31  O   UNL     1       2.476   8.666   1.931  0.00  0.00    -0.290 OA
BRANCH  30  32
ATOM     32  C   UNL     1       1.014   7.986   3.610  0.00  0.00    +0.019 A 
ATOM     33  C   UNL     1      -0.315   7.861   4.029  0.00  0.00    +0.013 A 
ATOM     34  C   UNL     1      -0.597   7.322   5.266  0.00  0.00    +0.020 A 
ATOM     35  C   UNL     1       0.433   6.915   6.098  0.00  0.00    +0.041 A 
ATOM     36  C   UNL     1       1.752   7.041   5.693  0.00  0.00    +0.020 A 
ATOM     37  C   UNL     1       2.049   7.572   4.456  0.00  0.00    +0.013 A 
ATOM     38 CL   UNL     1       0.069   6.244   7.657  0.00  0.00    -0.084 Cl
ENDBRANCH  30  32
ENDBRANCH  14  30
TORSDOF 4
