REMARK  Name = ZINC11566032
REMARK  5 active torsions:
REMARK  status: ('A' for Active; 'I' for Inactive)
REMARK    1  A    between atoms: C_7  and  C_11
REMARK    2  A    between atoms: C_11  and  C_12
REMARK    3  A    between atoms: N_14  and  N_15
REMARK    4  A    between atoms: C_16  and  C_17
REMARK    5  A    between atoms: C_22  and  O_23
REMARK                            x       y       z     vdW  Elec       q    Type
REMARK                         _______ _______ _______ _____ _____    ______ ____
ROOT
ATOM      1  C   UNL     1      -3.525   1.651   0.028  0.00  0.00    +0.237 C 
ATOM      2  O   UNL     1      -3.542   2.864   0.034  0.00  0.00    -0.274 OA
ATOM      3  N   UNL     1      -2.349   0.993   0.019  0.00  0.00    -0.207 N 
ATOM      4  H   UNL     1      -2.336   0.023   0.013  0.00  0.00    +0.177 HD
ENDROOT
BRANCH   3   5
ATOM      5  N   UNL     1      -1.145   1.710   0.017  0.00  0.00    -0.188 NA
ATOM      6  C   UNL     1      -0.013   1.076   0.008  0.00  0.00    +0.142 C 
BRANCH   6   7
ATOM      7  C   UNL     1       1.254   1.830  -0.000  0.00  0.00    +0.037 A 
ATOM      8  C   UNL     1       2.475   1.152  -0.015  0.00  0.00    +0.028 A 
ATOM      9  C   UNL     1       3.656   1.864  -0.023  0.00  0.00    +0.019 A 
ATOM     10  C   UNL     1       3.637   3.249  -0.015  0.00  0.00    +0.019 A 
ATOM     11  C   UNL     1       2.435   3.931   0.001  0.00  0.00    +0.047 A 
ATOM     12  C   UNL     1       1.239   3.231   0.002  0.00  0.00    +0.126 A 
ATOM     13 BR   UNL     1       5.309   0.946  -0.043  0.00  0.00    -0.050 Br
BRANCH  12  14
ATOM     14  O   UNL     1       0.057   3.901   0.011  0.00  0.00    -0.506 OA
ATOM     15  H   UNL     1      -0.279   4.094   0.897  0.00  0.00    +0.292 HD
ENDBRANCH  12  14
ENDBRANCH   6   7
ENDBRANCH   3   5
BRANCH   1  16
ATOM     16  C   UNL     1      -4.820   0.879   0.030  0.00  0.00    +0.134 C 
BRANCH  16  23
ATOM     17  C   UNL     1      -7.111   3.178  -3.353  0.00  0.00    +0.001 A 
ATOM     18  C   UNL     1      -8.137   3.975  -2.865  0.00  0.00    +0.002 A 
ATOM     19  C   UNL     1      -8.398   4.037  -1.514  0.00  0.00    +0.026 A 
ATOM     20  C   UNL     1      -7.627   3.292  -0.627  0.00  0.00    +0.047 A 
ATOM     21  C   UNL     1      -6.588   2.485  -1.126  0.00  0.00    +0.003 A 
ATOM     22  C   UNL     1      -6.341   2.439  -2.500  0.00  0.00    +0.010 A 
ATOM     23  C   UNL     1      -5.979   1.843   0.040  0.00  0.00    -0.014 A 
ATOM     24  C   UNL     1      -6.651   2.271   1.120  0.00  0.00    +0.087 A 
ATOM     25  N   UNL     1      -7.636   3.142   0.742  0.00  0.00    -0.360 N 
ATOM     26  H   UNL     1      -8.252   3.584   1.347  0.00  0.00    +0.165 HD
ENDBRANCH  16  23
ENDBRANCH   1  16
TORSDOF 5
