REMARK  Name = ZINC12835648
REMARK  7 active torsions:
REMARK  status: ('A' for Active; 'I' for Inactive)
REMARK    1  A    between atoms: C_1  and  C_2
REMARK    2  A    between atoms: C_2  and  O_3
REMARK    3  A    between atoms: O_3  and  C_4
REMARK    4  A    between atoms: C_9  and  C_10
REMARK    5  A    between atoms: C_10  and  N_63
REMARK    6  A    between atoms: C_16  and  C_18
REMARK    7  A    between atoms: C_18  and  C_19
REMARK                            x       y       z     vdW  Elec       q    Type
REMARK                         _______ _______ _______ _____ _____    ______ ____
ROOT
ATOM      1  C   UNL     1      -5.051  -3.079   3.254  0.00  0.00    -0.058 C 
ATOM      2  C   UNL     1      -6.435  -3.235   2.623  0.00  0.00    +0.085 C 
ATOM      3  N   UNL     1      -7.130  -1.950   2.615  0.00  0.00    -0.318 N 
ATOM      4  C   UNL     1      -6.497  -0.782   2.764  0.00  0.00    +0.200 C 
ATOM      5  O   UNL     1      -7.148   0.241   2.715  0.00  0.00    -0.278 OA
ATOM      6  C   UNL     1      -5.015  -0.682   2.989  0.00  0.00    +0.028 C 
ATOM      7  H   UNL     1      -8.092  -1.945   2.498  0.00  0.00    +0.149 HD
ATOM      8  N   UNL     1      -4.371  -1.948   2.591  0.00  0.00    +0.391 N 
ATOM      9  H   UNL     1      -4.449  -2.059   1.573  0.00  0.00    -0.080 HD
ENDROOT
BRANCH   8  10
ATOM     10  C   UNL     1      -2.938  -1.926   2.965  0.00  0.00    -0.038 C 
BRANCH  10  16
ATOM     11  C   UNL     1      -1.919  -3.314   1.142  0.00  0.00    +0.122 A 
ATOM     12  C   UNL     1      -1.317  -4.481   0.694  0.00  0.00    +0.046 A 
ATOM     13  C   UNL     1      -1.082  -5.518   1.576  0.00  0.00    +0.004 A 
ATOM     14  C   UNL     1      -1.446  -5.394   2.904  0.00  0.00    +0.000 A 
ATOM     15  C   UNL     1      -2.042  -4.231   3.354  0.00  0.00    +0.005 A 
ATOM     16  C   UNL     1      -2.284  -3.192   2.475  0.00  0.00    -0.022 A 
BRANCH  11  17
ATOM     17  O   UNL     1      -2.151  -2.293   0.277  0.00  0.00    -0.492 OA
BRANCH  17  19
ATOM     18  C   UNL     1      -2.090  -1.241  -1.898  0.00  0.00    +0.048 C 
ATOM     19  C   UNL     1      -1.749  -2.488  -1.081  0.00  0.00    +0.225 C 
ENDBRANCH  17  19
ENDBRANCH  11  17
ENDBRANCH  10  16
ENDBRANCH   8  10
BRANCH   6  20
ATOM     20  C   UNL     1      -4.447   0.455   2.137  0.00  0.00    +0.090 C 
BRANCH  20  21
ATOM     21  C   UNL     1      -4.793   0.218   0.690  0.00  0.00    +0.215 C 
ATOM     22  O   UNL     1      -5.336  -0.814   0.356  0.00  0.00    -0.276 OA
ATOM     23  N   UNL     1      -4.499   1.154  -0.235  0.00  0.00    -0.295 N 
ATOM     24  C   UNL     1      -4.827   0.942  -1.655  0.00  0.00    +0.113 C 
ATOM     25  C   UNL     1      -5.864   1.987  -2.085  0.00  0.00    +0.056 C 
ATOM     26  C   UNL     1      -5.446   3.338  -1.563  0.00  0.00    -0.016 A 
ATOM     27  C   UNL     1      -5.896   4.645  -1.996  0.00  0.00    +0.003 A 
ATOM     28  C   UNL     1      -6.805   5.059  -2.976  0.00  0.00    +0.010 A 
ATOM     29  C   UNL     1      -6.992   6.412  -3.116  0.00  0.00    +0.001 A 
ATOM     30  C   UNL     1      -6.320   7.334  -2.331  0.00  0.00    +0.002 A 
ATOM     31  C   UNL     1      -5.416   6.952  -1.355  0.00  0.00    +0.026 A 
ATOM     32  C   UNL     1      -5.205   5.585  -1.189  0.00  0.00    +0.047 A 
ATOM     33  N   UNL     1      -4.403   4.879  -0.339  0.00  0.00    -0.356 N 
ATOM     34  H   UNL     1      -3.817   5.269   0.328  0.00  0.00    +0.166 HD
ATOM     35  C   UNL     1      -4.552   3.537  -0.571  0.00  0.00    +0.038 A 
ATOM     36  C   UNL     1      -3.840   2.414   0.149  0.00  0.00    +0.161 C 
ENDBRANCH  20  21
ENDBRANCH   6  20
TORSDOF 6
