REMARK  Name = ZINC16475108
REMARK  12 active torsions:
REMARK  status: ('A' for Active; 'I' for Inactive)
REMARK    1  A    between atoms: C_1  and  C_2
REMARK    2  A    between atoms: C_5  and  C_34
REMARK    3  A    between atoms: C_9  and  C_10
REMARK    4  A    between atoms: C_9  and  N_65
REMARK    5  A    between atoms: N_12  and  C_13
REMARK    6  A    between atoms: N_12  and  C_17
REMARK    7  A    between atoms: C_13  and  C_14
REMARK    8  A    between atoms: C_14  and  O_15
REMARK    9  A    between atoms: O_15  and  C_16
REMARK   10  A    between atoms: C_18  and  N_33
REMARK   11  A    between atoms: N_19  and  C_26
REMARK   12  A    between atoms: C_26  and  C_27
REMARK                            x       y       z     vdW  Elec       q    Type
REMARK                         _______ _______ _______ _____ _____    ______ ____
ROOT
ATOM      1  C   UNL     1      -2.739   2.893   2.410  0.00  0.00    +0.140 A 
ATOM      2  C   UNL     1      -1.989   2.018   3.168  0.00  0.00    +0.128 A 
ATOM      3  N   UNL     1      -0.616   2.074   3.096  0.00  0.00    -0.276 N 
ATOM      4  C   UNL     1      -0.013   2.964   2.288  0.00  0.00    +0.331 A 
ATOM      5  O   UNL     1       1.202   2.994   2.235  0.00  0.00    -0.246 OA
ATOM      6  N   UNL     1      -0.728   3.821   1.538  0.00  0.00    -0.273 N 
ATOM      7  H   UNL     1      -0.255   4.473   0.946  0.00  0.00    +0.173 HD
ATOM      8  C   UNL     1      -2.075   3.812   1.576  0.00  0.00    +0.277 A 
ATOM      9  O   UNL     1      -2.713   4.593   0.891  0.00  0.00    -0.266 OA
ENDROOT
BRANCH   1  12
ATOM     10  C   UNL     1      -4.860   2.490   1.383  0.00  0.00    +0.203 C 
ATOM     11  O   UNL     1      -4.287   2.093   0.389  0.00  0.00    -0.277 OA
ATOM     12  N   UNL     1      -4.149   2.865   2.467  0.00  0.00    -0.264 N 
BRANCH  10  13
ATOM     13  C   UNL     1      -6.365   2.562   1.407  0.00  0.00    +0.019 C 
BRANCH  13  21
ATOM     14  C   UNL     1      -6.273   1.087  -2.534  0.00  0.00    +0.005 C 
ATOM     15  C   UNL     1      -6.962   2.434  -2.309  0.00  0.00    -0.031 C 
ATOM     16  C   UNL     1      -8.480   2.236  -2.295  0.00  0.00    +0.003 C 
ATOM     17  C   UNL     1      -8.856   1.319  -1.128  0.00  0.00    -0.031 C 
ATOM     18  C   UNL     1      -8.355   1.934   0.181  0.00  0.00    -0.075 C 
ATOM     19  C   UNL     1      -6.516   3.018  -0.966  0.00  0.00    -0.075 C 
ATOM     20  C   UNL     1     -10.377   1.163  -1.070  0.00  0.00    +0.005 C 
ATOM     21  N   UNL     1      -6.885   2.076   0.112  0.00  0.00    +0.386 N 
ATOM     22  H   UNL     1      -6.471   1.159  -0.090  0.00  0.00    -0.081 HD
ENDBRANCH  13  21
ENDBRANCH  10  13
BRANCH  12  23
ATOM     23  C   UNL     1      -4.840   3.242   3.702  0.00  0.00    +0.142 C 
BRANCH  23  24
ATOM     24  C   UNL     1      -4.990   4.764   3.758  0.00  0.00    +0.178 C 
BRANCH  24  25
ATOM     25  O   UNL     1      -5.844   5.198   2.698  0.00  0.00    -0.381 OA
ATOM     26  C   UNL     1      -6.051   6.611   2.660  0.00  0.00    +0.194 C 
ENDBRANCH  24  25
ENDBRANCH  23  24
ENDBRANCH  12  23
ENDBRANCH   1  12
BRANCH   2  27
ATOM     27  N   UNL     1      -2.605   1.105   3.990  0.00  0.00    -0.343 N 
ATOM     28  H   UNL     1      -2.073   0.466   4.490  0.00  0.00    +0.144 HD
ATOM     29  H   UNL     1      -3.572   1.099   4.069  0.00  0.00    +0.144 HD
ENDBRANCH   2  27
BRANCH   3  30
ATOM     30  C   UNL     1       0.193   1.155   3.900  0.00  0.00    +0.163 C 
BRANCH  30  31
ATOM     31  C   UNL     1       0.494   1.786   5.235  0.00  0.00    -0.028 A 
ATOM     32  C   UNL     1       1.632   2.554   5.396  0.00  0.00    +0.005 A 
ATOM     33  C   UNL     1       1.905   3.137   6.619  0.00  0.00    +0.000 A 
ATOM     34  C   UNL     1       1.046   2.944   7.684  0.00  0.00    +0.000 A 
ATOM     35  C   UNL     1      -0.090   2.172   7.525  0.00  0.00    +0.000 A 
ATOM     36  C   UNL     1      -0.366   1.593   6.300  0.00  0.00    +0.005 A 
ENDBRANCH  30  31
ENDBRANCH   3  30
TORSDOF 9
