REMARK  Name = ZINC01008767
REMARK  3 active torsions:
REMARK  status: ('A' for Active; 'I' for Inactive)
REMARK    1  A    between atoms: C_4  and  C_7
REMARK    2  A    between atoms: C_11  and  O_23
REMARK    3  A    between atoms: N_13  and  C_16
REMARK                            x       y       z     vdW  Elec       q    Type
REMARK                         _______ _______ _______ _____ _____    ______ ____
ROOT
ATOM      1  C   UNL     1       3.695  -0.685  -0.030  0.00  0.00    +0.252 C 
ATOM      2  O   UNL     1       2.636  -0.099   0.088  0.00  0.00    -0.270 OA
ATOM      3  N   UNL     1       3.713  -2.028  -0.143  0.00  0.00    -0.245 N 
ATOM      4  C   UNL     1       4.923  -2.864  -0.172  0.00  0.00    +0.167 C 
ATOM      5  C   UNL     1       4.377  -4.298  -0.312  0.00  0.00    +0.226 C 
ATOM      6  N   UNL     1       2.918  -4.118  -0.347  0.00  0.00    -0.254 N 
ATOM      7  C   UNL     1       2.633  -2.813  -0.241  0.00  0.00    +0.149 C 
ATOM      8  S   UNL     1       1.033  -2.205  -0.236  0.00  0.00    -0.018 S 
ENDROOT
BRANCH   6   9
ATOM      9  C   UNL     1       1.977  -5.146  -0.467  0.00  0.00    +0.038 A 
ATOM     10  C   UNL     1       1.178  -5.230  -1.600  0.00  0.00    +0.025 A 
ATOM     11  C   UNL     1       0.250  -6.247  -1.716  0.00  0.00    +0.022 A 
ATOM     12  C   UNL     1       0.116  -7.181  -0.704  0.00  0.00    +0.041 A 
ATOM     13  C   UNL     1       0.910  -7.099   0.427  0.00  0.00    +0.022 A 
ATOM     14  C   UNL     1       1.843  -6.088   0.545  0.00  0.00    +0.025 A 
ATOM     15 CL   UNL     1      -1.052  -8.456  -0.852  0.00  0.00    -0.084 Cl
ENDBRANCH   6   9
BRANCH   1  19
ATOM     16  C   UNL     1       7.335   1.502  -0.086  0.00  0.00    +0.000 A 
ATOM     17  C   UNL     1       6.127   2.175  -0.116  0.00  0.00    +0.001 A 
ATOM     18  C   UNL     1       4.941   1.471  -0.099  0.00  0.00    +0.013 A 
ATOM     19  C   UNL     1       4.962   0.076  -0.050  0.00  0.00    +0.037 A 
ATOM     20  C   UNL     1       6.184  -0.597  -0.019  0.00  0.00    +0.013 A 
ATOM     21  C   UNL     1       7.363   0.119  -0.038  0.00  0.00    +0.001 A 
ENDBRANCH   1  19
BRANCH   5  22
ATOM     22  O   UNL     1       4.841  -4.895  -1.525  0.00  0.00    -0.372 OA
ATOM     23  H   UNL     1       5.803  -4.979  -1.579  0.00  0.00    +0.212 HD
ENDBRANCH   5  22
TORSDOF 3
