REMARK  Name = ZINC09636461
REMARK  11 active torsions:
REMARK  status: ('A' for Active; 'I' for Inactive)
REMARK    1  A    between atoms: C_1  and  C_2
REMARK    2  A    between atoms: C_6  and  C_8
REMARK    3  A    between atoms: C_8  and  C_9
REMARK    4  A    between atoms: C_9  and  N_10
REMARK    5  A    between atoms: C_11  and  C_13
REMARK    6  A    between atoms: C_13  and  C_15
REMARK    7  A    between atoms: C_13  and  N_21
REMARK    8  A    between atoms: N_21  and  S_22
REMARK    9  A    between atoms: S_22  and  C_25
REMARK   10  A    between atoms: N_33  and  C_38
REMARK   11  A    between atoms: N_36  and  C_37
REMARK                            x       y       z     vdW  Elec       q    Type
REMARK                         _______ _______ _______ _____ _____    ______ ____
ROOT
ATOM      1  C   UNL     1      -0.151   9.516  -2.558  0.00  0.00    +0.192 C 
ENDROOT
BRANCH   1   2
ATOM      2  C   UNL     1      -1.382   9.998  -1.833  0.00  0.00    -0.020 A 
ATOM      3  C   UNL     1      -2.601  10.024  -2.484  0.00  0.00    +0.006 A 
ATOM      4  C   UNL     1      -3.731  10.462  -1.818  0.00  0.00    +0.000 A 
ATOM      5  C   UNL     1      -3.639  10.883  -0.505  0.00  0.00    +0.000 A 
ATOM      6  C   UNL     1      -2.419  10.861   0.145  0.00  0.00    +0.000 A 
ATOM      7  C   UNL     1      -1.290  10.418  -0.520  0.00  0.00    +0.006 A 
ENDBRANCH   1   2
BRANCH   1   9
ATOM      8  N   UNL     1      -0.111   7.329  -1.402  0.00  0.00    -0.313 N 
ATOM      9  C   UNL     1      -0.131   8.009  -2.566  0.00  0.00    +0.236 C 
ATOM     10  O   UNL     1      -0.133   7.408  -3.619  0.00  0.00    -0.274 OA
ATOM     11  H   UNL     1      -0.110   7.810  -0.559  0.00  0.00    +0.149 HD
BRANCH   8  12
ATOM     12  C   UNL     1      -0.091   5.864  -1.410  0.00  0.00    +0.109 C 
BRANCH  12  13
ATOM     13  C   UNL     1      -0.070   5.347   0.030  0.00  0.00    +0.054 C 
BRANCH  13  19
ATOM     14  C   UNL     1      -2.514   0.980   0.019  0.00  0.00    +0.044 C 
ATOM     15  C   UNL     1      -1.219   1.751   0.017  0.00  0.00    -0.050 A 
ATOM     16  C   UNL     1      -0.013   1.076   0.008  0.00  0.00    +0.003 A 
ATOM     17  C   UNL     1       1.175   1.783   0.000  0.00  0.00    +0.001 A 
ATOM     18  C   UNL     1       1.156   3.166   0.008  0.00  0.00    +0.004 A 
ATOM     19  C   UNL     1      -0.050   3.840   0.022  0.00  0.00    -0.046 A 
ATOM     20  C   UNL     1      -1.238   3.133   0.030  0.00  0.00    +0.007 A 
ENDBRANCH  13  19
ENDBRANCH  12  13
ENDBRANCH   8  12
ENDBRANCH   1   9
BRANCH   1  21
ATOM     21  N   UNL     1      -0.171  10.011  -3.936  0.00  0.00    -0.174 NA
ATOM     22  H   UNL     1      -0.652   9.521  -4.621  0.00  0.00    +0.149 HD
BRANCH  21  23
ATOM     23  S   UNL     1       0.629  11.408  -4.326  0.00  0.00    +0.059 S 
ATOM     24  O   UNL     1       0.447  11.604  -5.721  0.00  0.00    -0.153 OA
ATOM     25  O   UNL     1       0.243  12.379  -3.363  0.00  0.00    -0.153 OA
BRANCH  23  26
ATOM     26  C   UNL     1       2.348  11.109  -4.080  0.00  0.00    +0.106 A 
ATOM     27  C   UNL     1       3.119  10.619  -5.123  0.00  0.00    +0.030 A 
ATOM     28  C   UNL     1       4.467  10.378  -4.949  0.00  0.00    +0.028 A 
ATOM     29  C   UNL     1       5.058  10.629  -3.720  0.00  0.00    +0.058 A 
ATOM     30  C   UNL     1       4.278  11.127  -2.662  0.00  0.00    +0.065 A 
ATOM     31  C   UNL     1       2.920  11.371  -2.852  0.00  0.00    +0.043 A 
ATOM     32  C   UNL     1       4.939  11.383  -1.370  0.00  0.00    +0.264 A 
ATOM     33  O   UNL     1       4.309  11.813  -0.422  0.00  0.00    -0.267 OA
ATOM     34  N   UNL     1       6.261  11.127  -1.264  0.00  0.00    -0.263 N 
ATOM     35  C   UNL     1       6.963  10.651  -2.305  0.00  0.00    +0.332 A 
ATOM     36  O   UNL     1       8.150  10.436  -2.156  0.00  0.00    -0.246 OA
ATOM     37  N   UNL     1       6.410  10.401  -3.504  0.00  0.00    -0.296 N 
ATOM     38  C   UNL     1       7.241   9.882  -4.593  0.00  0.00    +0.154 C 
ATOM     39  C   UNL     1       6.941  11.372   0.009  0.00  0.00    +0.157 C 
ENDBRANCH  23  26
ENDBRANCH  21  23
ENDBRANCH   1  21
TORSDOF 8
