REMARK  Name = ZINC03029249
REMARK  9 active torsions:
REMARK  status: ('A' for Active; 'I' for Inactive)
REMARK    1  A    between atoms: C_1  and  C_2
REMARK    2  A    between atoms: C_4  and  O_18
REMARK    3  A    between atoms: C_6  and  O_8
REMARK    4  A    between atoms: O_8  and  C_9
REMARK    5  A    between atoms: C_9  and  C_11
REMARK    6  A    between atoms: C_15  and  N_17
REMARK    7  A    between atoms: O_18  and  C_19
REMARK    8  A    between atoms: C_19  and  C_21
REMARK    9  A    between atoms: C_25  and  N_27
REMARK                            x       y       z     vdW  Elec       q    Type
REMARK                         _______ _______ _______ _____ _____    ______ ____
ROOT
ATOM      1  C   UNL     1       3.655  10.159  -0.117  0.00  0.00    +0.044 C 
ATOM      2  C   UNL     1       2.339   9.426  -0.076  0.00  0.00    -0.044 A 
ATOM      3  C   UNL     1       1.155  10.136  -0.023  0.00  0.00    +0.050 A 
ATOM      4  C   UNL     1      -0.059   9.463   0.015  0.00  0.00    +0.136 A 
ATOM      5  C   UNL     1      -0.082   8.077   0.000  0.00  0.00    +0.092 A 
ATOM      6  C   UNL     1       1.107   7.367  -0.053  0.00  0.00    +0.136 A 
ATOM      7  C   UNL     1       2.318   8.044  -0.086  0.00  0.00    +0.050 A 
ENDROOT
BRANCH   6   8
ATOM      8  O   UNL     1       1.088   6.008  -0.068  0.00  0.00    -0.422 OA
BRANCH   8   9
ATOM      9  C   UNL     1       0.766   5.414  -1.234  0.00  0.00    +0.344 C 
ATOM     10  O   UNL     1       0.424   6.088  -2.185  0.00  0.00    -0.245 OA
BRANCH   9  11
ATOM     11  C   UNL     1       0.830   3.943  -1.355  0.00  0.00    +0.061 A 
ATOM     12  C   UNL     1       1.223   3.166  -0.263  0.00  0.00    +0.015 A 
ATOM     13  C   UNL     1       1.282   1.792  -0.380  0.00  0.00    +0.003 A 
ATOM     14  C   UNL     1       0.954   1.180  -1.575  0.00  0.00    +0.023 A 
ATOM     15  C   UNL     1       0.566   1.944  -2.669  0.00  0.00    +0.025 A 
ATOM     16  C   UNL     1       0.498   3.325  -2.561  0.00  0.00    +0.037 A 
BRANCH  15  17
ATOM     17  N   UNL     1       0.240   1.321  -3.876  0.00  0.00    -0.358 N 
ATOM     18  H   UNL     1       0.284   0.355  -3.951  0.00  0.00    +0.142 HD
ATOM     19  H   UNL     1      -0.031   1.854  -4.640  0.00  0.00    +0.142 HD
ENDBRANCH  15  17
ENDBRANCH   9  11
ENDBRANCH   8   9
ENDBRANCH   6   8
BRANCH   4  20
ATOM     20  O   UNL     1      -1.223  10.163   0.068  0.00  0.00    -0.422 OA
BRANCH  20  21
ATOM     21  C   UNL     1      -1.840  10.234   1.264  0.00  0.00    +0.344 C 
ATOM     22  O   UNL     1      -1.401   9.613   2.212  0.00  0.00    -0.245 OA
BRANCH  21  23
ATOM     23  C   UNL     1      -3.050  11.066   1.422  0.00  0.00    +0.061 A 
ATOM     24  C   UNL     1      -3.557  11.780   0.334  0.00  0.00    +0.015 A 
ATOM     25  C   UNL     1      -4.688  12.556   0.484  0.00  0.00    +0.003 A 
ATOM     26  C   UNL     1      -5.324  12.629   1.710  0.00  0.00    +0.023 A 
ATOM     27  C   UNL     1      -4.828  11.922   2.799  0.00  0.00    +0.025 A 
ATOM     28  C   UNL     1      -3.695  11.136   2.658  0.00  0.00    +0.037 A 
BRANCH  27  29
ATOM     29  N   UNL     1      -5.475  12.000   4.035  0.00  0.00    -0.358 N 
ATOM     30  H   UNL     1      -6.270  12.547   4.133  0.00  0.00    +0.142 HD
ATOM     31  H   UNL     1      -5.129  11.506   4.795  0.00  0.00    +0.142 HD
ENDBRANCH  27  29
ENDBRANCH  21  23
ENDBRANCH  20  21
ENDBRANCH   4  20
TORSDOF 8
