REMARK  Name = ZINC33913964
REMARK  7 active torsions:
REMARK  status: ('A' for Active; 'I' for Inactive)
REMARK    1  A    between atoms: C_4  and  C_7
REMARK    2  A    between atoms: C_8  and  C_9
REMARK    3  A    between atoms: C_9  and  N_10
REMARK    4  A    between atoms: C_15  and  C_28
REMARK    5  A    between atoms: C_18  and  C_23
REMARK    6  A    between atoms: C_18  and  C_25
REMARK    7  A    between atoms: C_23  and  O_24
REMARK                            x       y       z     vdW  Elec       q    Type
REMARK                         _______ _______ _______ _____ _____    ______ ____
ROOT
ATOM      1  N   UNL     1       2.505  -3.869  -0.920  0.00  0.00    -0.238 N 
ATOM      2  C   UNL     1       2.124  -3.733  -2.232  0.00  0.00    +0.225 C 
ATOM      3  O   UNL     1       1.891  -2.706  -2.832  0.00  0.00    -0.275 OA
ATOM      4  C   UNL     1       2.063  -5.082  -2.738  0.00  0.00    +0.077 C 
ATOM      5  C   UNL     1       2.091  -5.820  -4.013  0.00  0.00    -0.020 C 
ATOM      6  N   UNL     1       2.224  -7.244  -3.549  0.00  0.00    +0.397 N 
ATOM      7  C   UNL     1       2.819  -7.225  -2.179  0.00  0.00    +0.071 C 
ATOM      8  C   UNL     1       3.254  -5.768  -1.958  0.00  0.00    +0.088 C 
ATOM      9  C   UNL     1       2.969  -5.121  -0.631  0.00  0.00    +0.225 C 
ATOM     10  O   UNL     1       3.117  -5.612   0.467  0.00  0.00    -0.275 OA
ATOM     11  H   UNL     1       1.315  -7.681  -3.520  0.00  0.00    -0.083 HD
ATOM     12  H   UNL     1       2.829  -7.753  -4.176  0.00  0.00    -0.083 HD
ENDROOT
BRANCH   5  13
ATOM     13  C   UNL     1       0.808  -5.621  -4.778  0.00  0.00    -0.022 A 
ATOM     14  C   UNL     1       0.556  -4.791  -5.820  0.00  0.00    +0.011 A 
ATOM     15  C   UNL     1      -0.711  -4.774  -6.373  0.00  0.00    +0.023 A 
ATOM     16  C   UNL     1      -1.664  -5.589  -5.856  0.00  0.00    +0.055 A 
ATOM     17  S   UNL     1      -0.771  -6.422  -4.553  0.00  0.00    -0.088 S 
ATOM     18 BR   UNL     1      -3.468  -5.795  -6.383  0.00  0.00    -0.043 Br
ENDBRANCH   5  13
BRANCH   7  19
ATOM     19  C   UNL     1       4.022  -8.131  -2.119  0.00  0.00    +0.348 C 
ATOM     20  O   UNL     1       4.355  -8.767  -3.105  0.00  0.00    -0.248 OA
ATOM     21  O   UNL     1       4.661  -8.228  -1.086  0.00  0.00    -0.248 OA
ENDBRANCH   7  19
BRANCH   1  22
ATOM     22  C   UNL     1       2.429  -2.786   0.064  0.00  0.00    +0.143 C 
BRANCH  22  24
ATOM     23  C   UNL     1       3.698  -0.690  -0.096  0.00  0.00    +0.005 C 
ATOM     24  C   UNL     1       3.719  -2.007   0.054  0.00  0.00    -0.007 C 
BRANCH  23  28
ATOM     25  C   UNL     1       0.000   1.397  -0.006  0.00  0.00    +0.000 A 
ATOM     26  C   UNL     1       0.207   0.326   0.844  0.00  0.00    +0.001 A 
ATOM     27  C   UNL     1       1.406  -0.356   0.820  0.00  0.00    +0.008 A 
ATOM     28  C   UNL     1       2.411   0.036  -0.065  0.00  0.00    -0.025 A 
ATOM     29  C   UNL     1       2.196   1.118  -0.920  0.00  0.00    +0.008 A 
ATOM     30  C   UNL     1       0.992   1.792  -0.886  0.00  0.00    +0.001 A 
ENDBRANCH  23  28
ENDBRANCH  22  24
ENDBRANCH   1  22
BRANCH   7  31
ATOM     31  C   UNL     1       1.778  -7.655  -1.143  0.00  0.00    +0.155 C 
BRANCH  31  32
ATOM     32  O   UNL     1       1.356  -8.992  -1.420  0.00  0.00    -0.396 OA
ATOM     33  H   UNL     1       0.695  -9.332  -0.801  0.00  0.00    +0.209 HD
ENDBRANCH  31  32
ENDBRANCH   7  31
TORSDOF 7
