REMARK  Name = ZINC33630581
REMARK  11 active torsions:
REMARK  status: ('A' for Active; 'I' for Inactive)
REMARK    1  A    between atoms: C_1  and  C_2
REMARK    2  A    between atoms: C_2  and  C_4
REMARK    3  A    between atoms: C_7  and  N_10
REMARK    4  A    between atoms: C_15  and  C_34
REMARK    5  A    between atoms: C_18  and  C_23
REMARK    6  A    between atoms: C_18  and  C_31
REMARK    7  A    between atoms: C_23  and  C_24
REMARK    8  A    between atoms: C_27  and  O_30
REMARK    9  A    between atoms: C_37  and  N_40
REMARK   10  A    between atoms: N_40  and  C_41
REMARK   11  A    between atoms: N_40  and  C_42
REMARK                            x       y       z     vdW  Elec       q    Type
REMARK                         _______ _______ _______ _____ _____    ______ ____
ROOT
ATOM      1  N   UNL     1       0.071  -2.520  -5.069  0.00  0.00    -0.210 N 
ATOM      2  C   UNL     1       0.201  -1.942  -6.308  0.00  0.00    +0.229 C 
ATOM      3  O   UNL     1       0.542  -0.807  -6.564  0.00  0.00    -0.275 OA
ATOM      4  C   UNL     1      -0.161  -2.987  -7.237  0.00  0.00    +0.077 C 
ATOM      5  C   UNL     1      -0.013  -3.334  -8.658  0.00  0.00    -0.027 C 
ATOM      6  N   UNL     1      -0.280  -4.809  -8.709  0.00  0.00    +0.396 N 
ATOM      7  C   UNL     1      -0.449  -5.286  -7.298  0.00  0.00    +0.052 C 
ATOM      8  C   UNL     1       0.406  -4.271  -6.509  0.00  0.00    +0.086 C 
ATOM      9  C   UNL     1      -0.047  -3.879  -5.130  0.00  0.00    +0.229 C 
ATOM     10  O   UNL     1      -0.439  -4.619  -4.253  0.00  0.00    -0.275 OA
ATOM     11  H   UNL     1      -1.123  -4.987  -9.234  0.00  0.00    -0.083 HD
ATOM     12  H   UNL     1       0.500  -5.283  -9.139  0.00  0.00    -0.083 HD
ENDROOT
BRANCH   1  16
ATOM     13  C   UNL     1       0.059  -0.359  -1.504  0.00  0.00    +0.017 A 
ATOM     14  C   UNL     1       0.190   0.307  -2.729  0.00  0.00    +0.013 A 
ATOM     15  C   UNL     1       0.194  -0.410  -3.903  0.00  0.00    +0.024 A 
ATOM     16  C   UNL     1       0.068  -1.796  -3.875  0.00  0.00    +0.044 A 
ATOM     17  C   UNL     1      -0.062  -2.462  -2.660  0.00  0.00    +0.024 A 
ATOM     18  C   UNL     1      -0.061  -1.754  -1.480  0.00  0.00    +0.013 A 
BRANCH  13  20
ATOM     19  C   UNL     1       0.184   1.904  -0.277  0.00  0.00    +0.091 C 
ATOM     20  C   UNL     1       0.054   0.403  -0.248  0.00  0.00    +0.160 C 
ATOM     21  O   UNL     1      -0.054  -0.176   0.812  0.00  0.00    -0.292 OA
ENDBRANCH  13  20
ENDBRANCH   1  16
BRANCH   5  22
ATOM     22  C   UNL     1       1.385  -3.031  -9.132  0.00  0.00    -0.060 A 
ATOM     23  C   UNL     1       2.411  -3.917  -8.862  0.00  0.00    +0.004 A 
ATOM     24  C   UNL     1       3.694  -3.643  -9.295  0.00  0.00    +0.023 A 
ATOM     25  C   UNL     1       3.952  -2.475 -10.002  0.00  0.00    +0.029 A 
ATOM     26  C   UNL     1       2.918  -1.587 -10.271  0.00  0.00    +0.023 A 
ATOM     27  C   UNL     1       1.637  -1.870  -9.840  0.00  0.00    +0.004 A 
BRANCH  25  28
ATOM     28  N   UNL     1       5.248  -2.195 -10.441  0.00  0.00    -0.336 N 
ATOM     29  C   UNL     1       6.311  -3.187 -10.266  0.00  0.00    +0.129 C 
ATOM     30  C   UNL     1       5.543  -0.908 -11.076  0.00  0.00    +0.129 C 
ENDBRANCH  25  28
ENDBRANCH   5  22
BRANCH   7  31
ATOM     31  C   UNL     1       0.103  -6.678  -7.134  0.00  0.00    +0.347 C 
ATOM     32  O   UNL     1       0.577  -7.263  -8.094  0.00  0.00    -0.248 OA
ATOM     33  O   UNL     1       0.076  -7.221  -6.043  0.00  0.00    -0.248 OA
ENDBRANCH   7  31
BRANCH   7  34
ATOM     34  C   UNL     1      -1.920  -5.232  -6.880  0.00  0.00    +0.035 C 
BRANCH  34  35
ATOM     35  C   UNL     1      -2.747  -6.040  -7.848  0.00  0.00    -0.048 A 
ATOM     36  C   UNL     1      -3.277  -5.436  -8.973  0.00  0.00    +0.007 A 
ATOM     37  C   UNL     1      -4.036  -6.174  -9.861  0.00  0.00    +0.045 A 
ATOM     38  C   UNL     1      -4.264  -7.522  -9.624  0.00  0.00    +0.117 A 
ATOM     39  C   UNL     1      -3.730  -8.125  -8.495  0.00  0.00    +0.045 A 
ATOM     40  C   UNL     1      -2.968  -7.384  -7.612  0.00  0.00    +0.007 A 
BRANCH  38  41
ATOM     41  O   UNL     1      -5.010  -8.250 -10.496  0.00  0.00    -0.507 OA
ATOM     42  H   UNL     1      -4.496  -8.664 -11.203  0.00  0.00    +0.292 HD
ENDBRANCH  38  41
ENDBRANCH  34  35
ENDBRANCH   7  34
TORSDOF 8
