REMARK  Name = ZINC02255249
REMARK  7 active torsions:
REMARK  status: ('A' for Active; 'I' for Inactive)
REMARK    1  A    between atoms: C_4  and  C_7
REMARK    2  A    between atoms: C_7  and  C_8
REMARK    3  A    between atoms: C_8  and  N_9
REMARK    4  A    between atoms: C_10  and  C_12
REMARK    5  A    between atoms: N_23  and  N_26
REMARK    6  A    between atoms: C_24  and  N_25
REMARK    7  A    between atoms: C_27  and  C_28
REMARK                            x       y       z     vdW  Elec       q    Type
REMARK                         _______ _______ _______ _____ _____    ______ ____
ROOT
ATOM      1  C   UNL     1       1.555  -2.056  -0.025  0.00  0.00    +0.105 A 
ATOM      2  C   UNL     1       1.157  -0.638  -0.013  0.00  0.00    +0.124 A 
ATOM      3  C   UNL     1       2.413   0.118  -0.021  0.00  0.00    +0.183 A 
ATOM      4  N   UNL     1       2.376   1.433  -0.014  0.00  0.00    -0.224 NA
ATOM      5  C   UNL     1       1.197   2.067   0.002  0.00  0.00    +0.092 A 
ATOM      6  C   UNL     1       1.149   3.474   0.010  0.00  0.00    +0.030 A 
ATOM      7  C   UNL     1      -0.053   4.110   0.025  0.00  0.00    +0.002 A 
ATOM      8  C   UNL     1      -1.246   3.389   0.033  0.00  0.00    +0.002 A 
ATOM      9  C   UNL     1      -1.240   2.029   0.031  0.00  0.00    +0.030 A 
ATOM     10  C   UNL     1      -0.016   1.334   0.009  0.00  0.00    +0.090 A 
ATOM     11  N   UNL     1       0.002  -0.004   0.002  0.00  0.00    -0.241 NA
ATOM     12  N   UNL     1       3.440  -0.805  -0.037  0.00  0.00    -0.198 N 
ATOM     13  C   UNL     1       2.946  -2.075  -0.039  0.00  0.00    +0.134 A 
ENDROOT
BRANCH   1  15
ATOM     14  N   UNL     1       0.292  -3.721   1.146  0.00  0.00    -0.311 N 
ATOM     15  C   UNL     1       0.691  -3.180  -0.022  0.00  0.00    +0.250 C 
ATOM     16  O   UNL     1       0.309  -3.657  -1.076  0.00  0.00    -0.270 OA
ATOM     17  H   UNL     1       0.596  -3.341   1.985  0.00  0.00    +0.149 HD
BRANCH  14  18
ATOM     18  C   UNL     1      -0.601  -4.882   1.148  0.00  0.00    +0.109 C 
BRANCH  18  19
ATOM     19  C   UNL     1      -0.898  -5.295   2.591  0.00  0.00    +0.054 C 
BRANCH  19  23
ATOM     20  C   UNL     1      -3.502  -8.681   2.599  0.00  0.00    +0.000 A 
ATOM     21  C   UNL     1      -2.131  -8.863   2.584  0.00  0.00    +0.000 A 
ATOM     22  C   UNL     1      -1.289  -7.767   2.581  0.00  0.00    +0.004 A 
ATOM     23  C   UNL     1      -1.816  -6.489   2.594  0.00  0.00    -0.046 A 
ATOM     24  C   UNL     1      -3.187  -6.307   2.615  0.00  0.00    +0.004 A 
ATOM     25  C   UNL     1      -4.029  -7.403   2.612  0.00  0.00    +0.000 A 
ENDBRANCH  19  23
ENDBRANCH  18  19
ENDBRANCH  14  18
ENDBRANCH   1  15
BRANCH  13  26
ATOM     26  N   UNL     1       3.713  -3.213  -0.054  0.00  0.00    -0.342 N 
ATOM     27  H   UNL     1       4.681  -3.146  -0.064  0.00  0.00    +0.144 HD
ATOM     28  H   UNL     1       3.287  -4.085  -0.055  0.00  0.00    +0.144 HD
ENDBRANCH  13  26
BRANCH  12  29
ATOM     29  N   UNL     1       4.803  -0.481  -0.049  0.00  0.00    -0.171 NA
ATOM     30  C   UNL     1       5.447  -0.336   1.071  0.00  0.00    +0.148 C 
BRANCH  30  31
ATOM     31  C   UNL     1       6.873   0.004   1.058  0.00  0.00    +0.032 A 
ATOM     32  C   UNL     1       7.734   0.201   2.125  0.00  0.00    +0.017 A 
ATOM     33  C   UNL     1       9.046   0.515   1.857  0.00  0.00    +0.008 A 
ATOM     34  C   UNL     1       9.453   0.622   0.565  0.00  0.00    +0.046 A 
ATOM     35  S   UNL     1       7.956   0.264  -0.338  0.00  0.00    -0.096 S 
ENDBRANCH  30  31
ENDBRANCH  12  29
TORSDOF 7
