REMARK  Name = ZINC41301278
REMARK  7 active torsions:
REMARK  status: ('A' for Active; 'I' for Inactive)
REMARK    1  A    between atoms: C_1  and  C_2
REMARK    2  A    between atoms: C_5  and  C_8
REMARK    3  A    between atoms: C_8  and  N_9
REMARK    4  A    between atoms: C_13  and  N_28
REMARK    5  A    between atoms: C_14  and  N_16
REMARK    6  A    between atoms: N_16  and  C_17
REMARK    7  A    between atoms: C_24  and  C_27
REMARK                            x       y       z     vdW  Elec       q    Type
REMARK                         _______ _______ _______ _____ _____    ______ ____
ROOT
ATOM      1  N   UNL     1       1.447  -4.746  -0.032  0.00  0.00    -0.309 N 
ATOM      2  C   UNL     1       1.717  -6.103  -0.041  0.00  0.00    +0.219 A 
ATOM      3  N   UNL     1       0.709  -6.962  -0.045  0.00  0.00    -0.197 NA
ATOM      4  C   UNL     1       0.931  -8.274  -0.054  0.00  0.00    +0.154 A 
ATOM      5  C   UNL     1       2.243  -8.739  -0.059  0.00  0.00    +0.205 A 
ATOM      6  C   UNL     1       3.276  -7.807  -0.054  0.00  0.00    +0.163 A 
ATOM      7  N   UNL     1       2.978  -6.509  -0.050  0.00  0.00    -0.197 NA
ATOM      8  N   UNL     1      -0.131  -9.165  -0.058  0.00  0.00    -0.341 N 
ATOM      9  H   UNL     1       2.176  -4.106  -0.032  0.00  0.00    +0.149 HD
ATOM     10  H   UNL     1      -1.042  -8.835  -0.055  0.00  0.00    +0.144 HD
ATOM     11  H   UNL     1       0.039 -10.121  -0.065  0.00  0.00    +0.144 HD
ENDROOT
BRANCH   5  12
ATOM     12  N   UNL     1       2.532 -10.190  -0.068  0.00  0.00    +0.063 N 
ATOM     13  O   UNL     1       2.649 -10.777  -1.119  0.00  0.00    -0.126 OA
ATOM     14  O   UNL     1       2.652 -10.790   0.975  0.00  0.00    -0.126 OA
ENDBRANCH   5  12
BRANCH   6  15
ATOM     15  N   UNL     1       4.600  -8.224  -0.058  0.00  0.00    -0.266 N 
ATOM     16  H   UNL     1       4.810  -9.171  -0.064  0.00  0.00    +0.157 HD
BRANCH  15  17
ATOM     17  C   UNL     1       5.620  -7.288  -0.053  0.00  0.00    +0.226 A 
ATOM     18  C   UNL     1       6.946  -7.554  -0.062  0.00  0.00    +0.037 A 
ATOM     19  C   UNL     1       7.638  -6.328  -0.051  0.00  0.00    +0.089 A 
ATOM     20  N   UNL     1       6.765  -5.368  -0.039  0.00  0.00    -0.081 NA
ATOM     21  O   UNL     1       5.472  -5.950  -0.044  0.00  0.00    -0.339 OA
ATOM     22  C   UNL     1       9.144  -6.223  -0.050  0.00  0.00    +0.059 C 
ATOM     23  C   UNL     1       9.719  -7.587   0.354  0.00  0.00    +0.010 C 
ATOM     24  C   UNL     1       9.089  -8.688  -0.502  0.00  0.00    -0.009 C 
ATOM     25  C   UNL     1       7.629  -8.899  -0.082  0.00  0.00    +0.045 C 
ATOM     26  C   UNL     1       9.867  -9.991  -0.308  0.00  0.00    +0.008 C 
ENDBRANCH  15  17
ENDBRANCH   6  15
BRANCH   1  27
ATOM     27  C   UNL     1       0.059  -4.275  -0.021  0.00  0.00    +0.139 C 
BRANCH  27  32
ATOM     28  C   UNL     1      -0.018   1.503   0.010  0.00  0.00    +0.044 C 
ATOM     29  C   UNL     1       0.002  -0.004   0.002  0.00  0.00    -0.050 A 
ATOM     30  C   UNL     1       0.006  -0.689  -1.199  0.00  0.00    +0.003 A 
ATOM     31  C   UNL     1       0.025  -2.071  -1.206  0.00  0.00    +0.005 A 
ATOM     32  C   UNL     1       0.040  -2.768  -0.013  0.00  0.00    -0.030 A 
ATOM     33  C   UNL     1       0.037  -2.084   1.188  0.00  0.00    +0.005 A 
ATOM     34  C   UNL     1       0.023  -0.702   1.195  0.00  0.00    +0.003 A 
ENDBRANCH  27  32
ENDBRANCH   1  27
TORSDOF 5
