REMARK  Name = ZINC63655386
REMARK  15 active torsions:
REMARK  status: ('A' for Active; 'I' for Inactive)
REMARK    1  A    between atoms: C_1  and  C_2
REMARK    2  A    between atoms: C_4  and  C_14
REMARK    3  A    between atoms: C_7  and  O_12
REMARK    4  A    between atoms: O_12  and  C_13
REMARK    5  A    between atoms: C_14  and  C_15
REMARK    6  A    between atoms: C_15  and  N_16
REMARK    7  A    between atoms: N_16  and  C_17
REMARK    8  A    between atoms: N_16  and  C_24
REMARK    9  A    between atoms: C_17  and  C_18
REMARK   10  A    between atoms: C_24  and  N_26
REMARK   11  A    between atoms: N_26  and  C_27
REMARK   12  A    between atoms: C_29  and  O_35
REMARK   13  A    between atoms: C_32  and  O_33
REMARK   14  A    between atoms: O_33  and  C_34
REMARK   15  A    between atoms: O_35  and  C_36
REMARK                            x       y       z     vdW  Elec       q    Type
REMARK                         _______ _______ _______ _____ _____    ______ ____
ROOT
ATOM      1  N   UNL     1      -4.603  -0.590  -1.758  0.00  0.00    -0.308 N 
ENDROOT
BRANCH   1   2
ATOM      2  C   UNL     1      -5.451   0.453  -1.664  0.00  0.00    +0.138 C 
ATOM      3  S   UNL     1      -5.041   1.806  -0.699  0.00  0.00    -0.018 S 
BRANCH   2   4
ATOM      4  N   UNL     1      -6.622   0.432  -2.332  0.00  0.00    -0.294 N 
ATOM      5  H   UNL     1      -6.820  -0.297  -2.941  0.00  0.00    +0.154 HD
BRANCH   4   6
ATOM      6  C   UNL     1      -7.553   1.462  -2.146  0.00  0.00    +0.078 A 
ATOM      7  C   UNL     1      -7.833   1.923  -0.868  0.00  0.00    +0.072 A 
ATOM      8  C   UNL     1      -8.755   2.942  -0.687  0.00  0.00    +0.122 A 
ATOM      9  C   UNL     1      -9.398   3.500  -1.782  0.00  0.00    +0.049 A 
ATOM     10  C   UNL     1      -9.121   3.042  -3.057  0.00  0.00    +0.051 A 
ATOM     11  C   UNL     1      -8.196   2.028  -3.244  0.00  0.00    +0.141 A 
BRANCH  11  12
ATOM     12  O   UNL     1      -7.920   1.582  -4.499  0.00  0.00    -0.493 OA
ATOM     13  C   UNL     1      -8.616   2.208  -5.578  0.00  0.00    +0.277 C 
ENDBRANCH  11  12
BRANCH   8  14
ATOM     14  O   UNL     1      -9.029   3.396   0.566  0.00  0.00    -0.495 OA
ATOM     15  C   UNL     1      -9.990   4.448   0.679  0.00  0.00    +0.277 C 
ENDBRANCH   8  14
ENDBRANCH   4   6
ENDBRANCH   2   4
ENDBRANCH   1   2
BRANCH   1  16
ATOM     16  C   UNL     1      -3.331  -0.567  -1.032  0.00  0.00    +0.111 C 
BRANCH  16  17
ATOM     17  C   UNL     1      -2.251   0.060  -1.917  0.00  0.00    +0.052 C 
BRANCH  17  20
ATOM     18  C   UNL     1       0.261   2.107  -1.999  0.00  0.00    +0.035 C 
ATOM     19  C   UNL     1       0.381   0.617  -1.674  0.00  0.00    +0.103 C 
ATOM     20  C   UNL     1      -0.942   0.084  -1.171  0.00  0.00    -0.037 C 
ATOM     21  C   UNL     1      -0.713  -0.366   0.083  0.00  0.00    +0.003 A 
ATOM     22  C   UNL     1      -1.578  -0.989   1.091  0.00  0.00    +0.055 A 
ATOM     23  C   UNL     1      -1.057  -1.343   2.290  0.00  0.00    +0.121 A 
ATOM     24  C   UNL     1       0.296  -1.137   2.612  0.00  0.00    +0.047 A 
ATOM     25  C   UNL     1       1.169  -0.571   1.751  0.00  0.00    +0.029 A 
ATOM     26  C   UNL     1       0.713  -0.148   0.423  0.00  0.00    +0.043 A 
ATOM     27  N   UNL     1       1.340   0.413  -0.582  0.00  0.00    -0.378 N 
ATOM     28  H   UNL     1       2.279   0.654  -0.601  0.00  0.00    +0.160 HD
BRANCH  23  29
ATOM     29  O   UNL     1      -1.870  -1.920   3.215  0.00  0.00    -0.495 OA
ATOM     30  C   UNL     1      -1.279  -2.278   4.465  0.00  0.00    +0.277 C 
ENDBRANCH  23  29
ENDBRANCH  17  20
ENDBRANCH  16  17
ENDBRANCH   1  16
BRANCH   1  31
ATOM     31  C   UNL     1      -4.954  -1.748  -2.584  0.00  0.00    +0.142 C 
BRANCH  31  32
ATOM     32  C   UNL     1      -5.702  -2.754  -1.747  0.00  0.00    -0.027 A 
ATOM     33  C   UNL     1      -5.023  -3.746  -1.056  0.00  0.00    +0.025 A 
ATOM     34  C   UNL     1      -5.742  -4.652  -0.299  0.00  0.00    +0.111 A 
ATOM     35  N   UNL     1      -7.057  -4.580  -0.230  0.00  0.00    -0.263 NA
ATOM     36  C   UNL     1      -7.735  -3.650  -0.875  0.00  0.00    +0.111 A 
ATOM     37  C   UNL     1      -7.084  -2.707  -1.646  0.00  0.00    +0.025 A 
ENDBRANCH  31  32
ENDBRANCH   1  31
TORSDOF 11
