REMARK  Name = ZINC09059770
REMARK  7 active torsions:
REMARK  status: ('A' for Active; 'I' for Inactive)
REMARK    1  A    between atoms: C_1  and  C_2
REMARK    2  A    between atoms: C_12  and  C_13
REMARK    3  A    between atoms: C_13  and  C_14
REMARK    4  A    between atoms: C_14  and  C_15
REMARK    5  A    between atoms: N_17  and  C_18
REMARK    6  A    between atoms: C_18  and  C_19
REMARK    7  A    between atoms: C_19  and  C_20
REMARK                            x       y       z     vdW  Elec       q    Type
REMARK                         _______ _______ _______ _____ _____    ______ ____
ROOT
ATOM      1  C   UNL     1      -0.018   1.503   0.010  0.00  0.00    +0.045 C 
ATOM      2  C   UNL     1       0.002  -0.004   0.002  0.00  0.00    -0.030 A 
ATOM      3  C   UNL     1       0.006  -0.754  -1.259  0.00  0.00    +0.022 A 
ATOM      4  C   UNL     1      -0.010  -0.087  -2.483  0.00  0.00    +0.023 A 
ATOM      5  C   UNL     1      -0.005  -0.822  -3.661  0.00  0.00    +0.024 A 
ATOM      6  C   UNL     1       0.017  -2.232  -3.618  0.00  0.00    +0.139 A 
ATOM      7  C   UNL     1       0.032  -2.887  -2.397  0.00  0.00    +0.093 A 
ATOM      8  C   UNL     1       0.027  -2.163  -1.216  0.00  0.00    +0.143 A 
ATOM      9  O   UNL     1       0.041  -2.806  -0.029  0.00  0.00    -0.422 OA
ATOM     10  C   UNL     1       0.036  -2.120   1.120  0.00  0.00    +0.341 A 
ATOM     11  O   UNL     1       0.050  -2.736   2.171  0.00  0.00    -0.245 OA
ATOM     12  C   UNL     1       0.023  -0.711   1.161  0.00  0.00    +0.041 A 
ATOM     13  O   UNL     1       0.018  -2.671  -4.895  0.00  0.00    -0.459 OA
ATOM     14  C   UNL     1      -0.006  -1.641  -5.759  0.00  0.00    +0.109 A 
ATOM     15  C   UNL     1      -0.020  -0.481  -5.084  0.00  0.00    +0.001 A 
ATOM     16  C   UNL     1      -0.044   0.885  -5.716  0.00  0.00    +0.039 C 
ATOM     17  C   UNL     1       0.352   0.744  -7.191  0.00  0.00    +0.005 C 
ATOM     18  C   UNL     1      -0.470  -0.378  -7.831  0.00  0.00    +0.008 C 
ATOM     19  C   UNL     1      -0.018  -1.729  -7.268  0.00  0.00    +0.075 C 
ENDROOT
BRANCH  12  20
ATOM     20  C   UNL     1       0.025   0.008   2.486  0.00  0.00    +0.052 C 
BRANCH  20  21
ATOM     21  C   UNL     1      -1.408   0.121   3.007  0.00  0.00    +0.100 C 
BRANCH  21  22
ATOM     22  C   UNL     1      -1.405   0.840   4.332  0.00  0.00    +0.213 C 
ATOM     23  O   UNL     1      -0.360   1.224   4.811  0.00  0.00    -0.276 OA
ATOM     24  N   UNL     1      -2.565   1.056   4.984  0.00  0.00    -0.315 N 
ATOM     25  H   UNL     1      -3.402   0.749   4.601  0.00  0.00    +0.149 HD
BRANCH  24  26
ATOM     26  C   UNL     1      -2.562   1.755   6.271  0.00  0.00    +0.110 C 
BRANCH  26  27
ATOM     27  C   UNL     1      -3.996   1.868   6.793  0.00  0.00    +0.073 C 
BRANCH  27  28
ATOM     28  C   UNL     1      -3.994   2.587   8.118  0.00  0.00    +0.035 A 
ATOM     29  C   UNL     1      -3.779   2.025   9.323  0.00  0.00    +0.105 A 
ATOM     30  N   UNL     1      -3.864   3.030  10.249  0.00  0.00    -0.352 N 
ATOM     31  H   UNL     1      -3.755   2.938  11.209  0.00  0.00    +0.166 HD
ATOM     32  C   UNL     1      -4.127   4.171   9.577  0.00  0.00    +0.171 A 
ATOM     33  N   UNL     1      -4.198   3.900   8.303  0.00  0.00    -0.350 N 
ATOM     34  H   UNL     1      -4.373   4.545   7.600  0.00  0.00    +0.166 HD
ENDBRANCH  27  28
ENDBRANCH  26  27
ENDBRANCH  24  26
ENDBRANCH  21  22
ENDBRANCH  20  21
ENDBRANCH  12  20
TORSDOF 6
