REMARK  Name = ZINC16032408
REMARK  7 active torsions:
REMARK  status: ('A' for Active; 'I' for Inactive)
REMARK    1  A    between atoms: C_1  and  O_2
REMARK    2  A    between atoms: O_2  and  C_3
REMARK    3  A    between atoms: C_6  and  C_11
REMARK    4  A    between atoms: C_8  and  O_9
REMARK    5  A    between atoms: O_9  and  C_10
REMARK    6  A    between atoms: N_30  and  C_33
REMARK    7  A    between atoms: C_33  and  C_34
REMARK                            x       y       z     vdW  Elec       q    Type
REMARK                         _______ _______ _______ _____ _____    ______ ____
ROOT
ATOM      1  C   UNL     1       3.739   4.751  -0.002  0.00  0.00    +0.154 C 
ATOM      2  C   UNL     1       2.880   3.509  -0.076  0.00  0.00    +0.046 A 
ATOM      3  C   UNL     1       1.530   3.535  -0.073  0.00  0.00    -0.015 A 
ATOM      4  C   UNL     1       1.080   2.160  -0.147  0.00  0.00    +0.003 A 
ATOM      5  C   UNL     1      -0.192   1.579  -0.175  0.00  0.00    +0.010 A 
ATOM      6  C   UNL     1      -0.246   0.209  -0.256  0.00  0.00    +0.001 A 
ATOM      7  C   UNL     1       0.897  -0.572  -0.308  0.00  0.00    +0.002 A 
ATOM      8  C   UNL     1       2.168  -0.023  -0.279  0.00  0.00    +0.026 A 
ATOM      9  C   UNL     1       2.254   1.365  -0.197  0.00  0.00    +0.047 A 
ATOM     10  N   UNL     1       3.322   2.215  -0.150  0.00  0.00    -0.356 N 
ATOM     11  H   UNL     1       4.253   1.943  -0.167  0.00  0.00    +0.166 HD
ATOM     12  C   UNL     1       0.696   4.788  -0.010  0.00  0.00    +0.069 C 
ATOM     13  C   UNL     1       1.575   5.947   0.481  0.00  0.00    +0.167 C 
ATOM     14  N   UNL     1       2.854   5.914  -0.227  0.00  0.00    -0.276 N 
ATOM     15  C   UNL     1       3.250   6.876  -1.063  0.00  0.00    +0.234 C 
ATOM     16  O   UNL     1       4.298   6.718  -1.652  0.00  0.00    -0.274 OA
ATOM     17  C   UNL     1       2.474   8.121  -1.347  0.00  0.00    +0.204 C 
ATOM     18  N   UNL     1       1.258   8.198  -0.555  0.00  0.00    -0.287 N 
ATOM     19  C   UNL     1       0.848   7.235   0.268  0.00  0.00    +0.237 C 
ATOM     20  O   UNL     1      -0.182   7.414   0.883  0.00  0.00    -0.274 OA
ENDROOT
BRANCH   1  24
ATOM     21  C   UNL     1       6.763   4.615  -3.023  0.00  0.00    +0.162 A 
ATOM     22  C   UNL     1       7.106   4.880  -1.707  0.00  0.00    +0.050 A 
ATOM     23  C   UNL     1       6.126   4.923  -0.733  0.00  0.00    +0.009 A 
ATOM     24  C   UNL     1       4.803   4.703  -1.068  0.00  0.00    -0.018 A 
ATOM     25  C   UNL     1       4.454   4.433  -2.378  0.00  0.00    +0.055 A 
ATOM     26  C   UNL     1       5.431   4.393  -3.361  0.00  0.00    +0.162 A 
BRANCH  21  28
ATOM     27  C   UNL     1       9.070   4.808  -3.564  0.00  0.00    +0.277 C 
ATOM     28  O   UNL     1       7.725   4.571  -3.983  0.00  0.00    -0.491 OA
ENDBRANCH  21  28
BRANCH  26  29
ATOM     29  O   UNL     1       5.089   4.132  -4.651  0.00  0.00    -0.491 OA
ATOM     30  C   UNL     1       3.703   3.915  -4.924  0.00  0.00    +0.277 C 
ENDBRANCH  26  29
ENDBRANCH   1  24
BRANCH  18  31
ATOM     31  C   UNL     1       0.437   9.406  -0.668  0.00  0.00    +0.143 C 
BRANCH  31  32
ATOM     32  C   UNL     1       0.886  10.416   0.356  0.00  0.00    -0.030 A 
ATOM     33  C   UNL     1       0.311  10.428   1.613  0.00  0.00    +0.008 A 
ATOM     34  C   UNL     1       0.725  11.352   2.554  0.00  0.00    +0.038 A 
ATOM     35  C   UNL     1       1.710  12.271   2.235  0.00  0.00    +0.123 A 
ATOM     36  C   UNL     1       2.281  12.262   0.974  0.00  0.00    +0.038 A 
ATOM     37  C   UNL     1       1.869  11.334   0.036  0.00  0.00    +0.008 A 
ATOM     38  F   UNL     1       2.112  13.177   3.152  0.00  0.00    -0.205 F 
ENDBRANCH  31  32
ENDBRANCH  18  31
TORSDOF 5
