REMARK  Name = ZINC04476237
REMARK  9 active torsions:
REMARK  status: ('A' for Active; 'I' for Inactive)
REMARK    1  A    between atoms: C_1  and  C_2
REMARK    2  A    between atoms: C_5  and  C_29
REMARK    3  A    between atoms: C_6  and  N_8
REMARK    4  A    between atoms: C_9  and  C_11
REMARK    5  A    between atoms: C_12  and  C_28
REMARK    6  A    between atoms: C_17  and  C_19
REMARK    7  A    between atoms: C_22  and  O_27
REMARK    8  A    between atoms: C_23  and  O_25
REMARK    9  A    between atoms: O_25  and  C_26
REMARK                            x       y       z     vdW  Elec       q    Type
REMARK                         _______ _______ _______ _____ _____    ______ ____
ROOT
ATOM      1  C   UNL     1       5.183   5.517   1.075  0.00  0.00    +0.056 C 
ATOM      2  C   UNL     1       5.429   6.016   2.305  0.00  0.00    +0.019 C 
ATOM      3  N   UNL     1       6.372   5.454   3.119  0.00  0.00    -0.273 N 
ATOM      4  C   UNL     1       7.110   4.391   2.775  0.00  0.00    +0.304 C 
ATOM      5  O   UNL     1       7.926   3.960   3.567  0.00  0.00    -0.252 OA
ATOM      6  N   UNL     1       6.978   3.782   1.580  0.00  0.00    -0.288 N 
ATOM      7  C   UNL     1       5.987   4.313   0.629  0.00  0.00    +0.142 C 
ATOM      8  C   UNL     1       4.651   7.213   2.788  0.00  0.00    +0.061 C 
ATOM      9  H   UNL     1       6.514   5.846   3.994  0.00  0.00    +0.156 HD
ATOM     10  H   UNL     1       7.524   3.013   1.351  0.00  0.00    +0.151 HD
ENDROOT
BRANCH   7  11
ATOM     11  C   UNL     1       5.020   3.205   0.299  0.00  0.00    -0.019 A 
ATOM     12  C   UNL     1       4.353   2.547   1.315  0.00  0.00    +0.009 A 
ATOM     13  C   UNL     1       3.460   1.534   1.017  0.00  0.00    +0.049 A 
ATOM     14  C   UNL     1       3.242   1.168  -0.301  0.00  0.00    +0.158 A 
ATOM     15  C   UNL     1       3.914   1.830  -1.324  0.00  0.00    +0.162 A 
ATOM     16  C   UNL     1       4.803   2.849  -1.019  0.00  0.00    +0.055 A 
BRANCH  15  17
ATOM     17  O   UNL     1       3.700   1.479  -2.620  0.00  0.00    -0.491 OA
ATOM     18  C   UNL     1       4.377   2.242  -3.620  0.00  0.00    +0.277 C 
ENDBRANCH  15  17
BRANCH  14  19
ATOM     19  O   UNL     1       2.369   0.168  -0.596  0.00  0.00    -0.503 OA
ATOM     20  H   UNL     1       2.773  -0.710  -0.630  0.00  0.00    +0.292 HD
ENDBRANCH  14  19
ENDBRANCH   7  11
BRANCH   1  22
ATOM     21  N   UNL     1       2.896   5.896   0.476  0.00  0.00    -0.281 N 
ATOM     22  C   UNL     1       4.206   6.099   0.231  0.00  0.00    +0.248 C 
ATOM     23  O   UNL     1       4.549   6.783  -0.716  0.00  0.00    -0.270 OA
ATOM     24  H   UNL     1       2.621   5.416   1.273  0.00  0.00    +0.155 HD
BRANCH  21  30
ATOM     25  C   UNL     1       1.726   7.501  -4.020  0.00  0.00    +0.044 C 
ATOM     26  C   UNL     1       1.339   7.163  -2.603  0.00  0.00    -0.049 A 
ATOM     27  C   UNL     1       0.031   7.329  -2.186  0.00  0.00    +0.004 A 
ATOM     28  C   UNL     1      -0.328   7.020  -0.887  0.00  0.00    +0.005 A 
ATOM     29  C   UNL     1       0.619   6.540  -0.003  0.00  0.00    -0.029 A 
ATOM     30  C   UNL     1       1.934   6.377  -0.417  0.00  0.00    +0.037 A 
ATOM     31  C   UNL     1       2.292   6.689  -1.723  0.00  0.00    +0.027 A 
ATOM     32  C   UNL     1       0.226   6.198   1.411  0.00  0.00    +0.045 C 
ENDBRANCH  21  30
ENDBRANCH   1  22
TORSDOF 5
