REMARK  Name = ZINC39722538
REMARK  7 active torsions:
REMARK  status: ('A' for Active; 'I' for Inactive)
REMARK    1  A    between atoms: C_2  and  C_3
REMARK    2  A    between atoms: C_3  and  N_4
REMARK    3  A    between atoms: C_5  and  C_28
REMARK    4  A    between atoms: C_9  and  S_11
REMARK    5  A    between atoms: S_11  and  C_12
REMARK    6  A    between atoms: C_12  and  C_13
REMARK    7  A    between atoms: C_21  and  C_25
REMARK                            x       y       z     vdW  Elec       q    Type
REMARK                         _______ _______ _______ _____ _____    ______ ____
ROOT
ATOM      1  N   UNL     1       1.474  -1.547   0.906  0.00  0.00    +0.413 N 
ATOM      2  C   UNL     1       2.591  -2.519   1.039  0.00  0.00    +0.050 C 
ATOM      3  N   UNL     1       2.535  -2.892   2.476  0.00  0.00    -0.267 NA
ATOM      4  N   UNL     1       2.187  -1.647   3.165  0.00  0.00    -0.262 NA
ATOM      5  C   UNL     1       1.508  -0.785   2.176  0.00  0.00    +0.078 C 
ATOM      6  H   UNL     1       3.426  -3.244   2.794  0.00  0.00    +0.139 HD
ATOM      7  H   UNL     1       1.590  -1.827   3.958  0.00  0.00    +0.140 HD
ATOM      8  H   UNL     1       0.594  -2.029   0.806  0.00  0.00    -0.075 HD
ENDROOT
BRANCH   2   9
ATOM      9  C   UNL     1       2.359  -3.722   0.162  0.00  0.00    -0.046 A 
ATOM     10  C   UNL     1       3.203  -3.974  -0.904  0.00  0.00    +0.005 A 
ATOM     11  C   UNL     1       2.990  -5.077  -1.709  0.00  0.00    +0.020 A 
ATOM     12  C   UNL     1       1.932  -5.930  -1.448  0.00  0.00    +0.041 A 
ATOM     13  C   UNL     1       1.088  -5.678  -0.381  0.00  0.00    +0.020 A 
ATOM     14  C   UNL     1       1.305  -4.577   0.426  0.00  0.00    +0.005 A 
ATOM     15 CL   UNL     1       1.663  -7.316  -2.458  0.00  0.00    -0.084 Cl
ENDBRANCH   2   9
BRANCH   1  16
ATOM     16  C   UNL     1       1.704  -0.652  -0.237  0.00  0.00    -0.045 C 
BRANCH  16  18
ATOM     17  C   UNL     1       0.785   1.606  -0.369  0.00  0.00    +0.002 C 
ATOM     18  C   UNL     1       0.555   0.316  -0.355  0.00  0.00    -0.053 C 
ENDBRANCH  16  18
ENDBRANCH   1  16
BRANCH   5  19
ATOM     19  S   UNL     1      -0.181  -0.418   2.726  0.00  0.00    -0.152 S 
BRANCH  19  20
ATOM     20  C   UNL     1      -0.938  -2.053   2.938  0.00  0.00    +0.143 C 
BRANCH  20  21
ATOM     21  C   UNL     1      -2.363  -1.890   3.400  0.00  0.00    +0.120 A 
ATOM     22  N   UNL     1      -3.101  -3.010   3.621  0.00  0.00    -0.310 N 
ATOM     23  H   UNL     1      -2.703  -3.883   3.480  0.00  0.00    +0.170 HD
ATOM     24  C   UNL     1      -4.385  -2.917   4.036  0.00  0.00    +0.259 A 
ATOM     25  O   UNL     1      -5.057  -3.912   4.239  0.00  0.00    -0.267 OA
ATOM     26  C   UNL     1      -4.939  -1.567   4.235  0.00  0.00    +0.065 A 
ATOM     27  C   UNL     1      -6.250  -1.366   4.661  0.00  0.00    +0.016 A 
ATOM     28  C   UNL     1      -6.723  -0.096   4.833  0.00  0.00    +0.016 A 
ATOM     29  C   UNL     1      -5.900   1.010   4.584  0.00  0.00    +0.065 A 
ATOM     30  C   UNL     1      -4.589   0.831   4.157  0.00  0.00    +0.043 A 
ATOM     31  C   UNL     1      -4.096  -0.463   3.979  0.00  0.00    +0.079 A 
ATOM     32  N   UNL     1      -2.822  -0.688   3.570  0.00  0.00    -0.233 NA
BRANCH  29  33
ATOM     33  C   UNL     1      -6.430   2.377   4.776  0.00  0.00    +0.387 C 
ATOM     34  O   UNL     1      -7.582   2.539   5.150  0.00  0.00    -0.241 OA
ATOM     35  O   UNL     1      -5.715   3.345   4.559  0.00  0.00    -0.241 OA
ENDBRANCH  29  33
ENDBRANCH  20  21
ENDBRANCH  19  20
ENDBRANCH   5  19
TORSDOF 7
