REMARK  Name = ZINC32738348
REMARK  7 active torsions:
REMARK  status: ('A' for Active; 'I' for Inactive)
REMARK    1  A    between atoms: C_1  and  C_2
REMARK    2  A    between atoms: C_2  and  C_4
REMARK    3  A    between atoms: C_2  and  N_14
REMARK    4  A    between atoms: C_15  and  C_17
REMARK    5  A    between atoms: C_17  and  C_18
REMARK    6  A    between atoms: C_18  and  N_19
REMARK    7  A    between atoms: C_20  and  C_22
REMARK                            x       y       z     vdW  Elec       q    Type
REMARK                         _______ _______ _______ _____ _____    ______ ____
ROOT
ATOM      1  N   UNL     1      -0.018   1.461   0.010  0.00  0.00    -0.306 N 
ATOM      2  C   UNL     1      -1.194   2.119   0.019  0.00  0.00    +0.215 C 
ATOM      3  O   UNL     1      -2.236   1.498   0.021  0.00  0.00    -0.276 OA
ATOM      4  H   UNL     1       0.927   2.024   0.009  0.00  0.00    +0.149 HD
ENDROOT
BRANCH   1   6
ATOM      5  C   UNL     1      -0.103  -0.523   1.437  0.00  0.00    +0.036 C 
ATOM      6  C   UNL     1       0.002  -0.004   0.002  0.00  0.00    +0.136 C 
BRANCH   6   7
ATOM      7  C   UNL     1       1.291  -0.486  -0.613  0.00  0.00    +0.128 A 
ATOM      8  N   UNL     1       1.464  -1.695  -1.212  0.00  0.00    -0.340 N 
ATOM      9  H   UNL     1       0.626  -2.405  -1.271  0.00  0.00    +0.167 HD
ATOM     10  C   UNL     1       2.773  -1.754  -1.646  0.00  0.00    +0.066 A 
ATOM     11  C   UNL     1       3.529  -2.709  -2.313  0.00  0.00    +0.028 A 
ATOM     12  C   UNL     1       4.852  -2.453  -2.602  0.00  0.00    +0.002 A 
ATOM     13  C   UNL     1       5.433  -1.248  -2.231  0.00  0.00    +0.002 A 
ATOM     14  C   UNL     1       4.705  -0.297  -1.574  0.00  0.00    +0.030 A 
ATOM     15  C   UNL     1       3.362  -0.534  -1.270  0.00  0.00    +0.089 A 
ATOM     16  N   UNL     1       2.401   0.192  -0.645  0.00  0.00    -0.231 NA
ENDBRANCH   6   7
ENDBRANCH   1   6
BRANCH   2  17
ATOM     17  C   UNL     1      -1.214   3.626   0.028  0.00  0.00    +0.114 C 
BRANCH  17  18
ATOM     18  C   UNL     1      -2.664   4.116   0.037  0.00  0.00    +0.113 C 
BRANCH  18  19
ATOM     19  N   UNL     1      -2.684   5.581   0.045  0.00  0.00    -0.314 N 
ATOM     20  C   UNL     1      -3.860   6.239   0.054  0.00  0.00    +0.219 C 
ATOM     21  O   UNL     1      -4.902   5.618   0.056  0.00  0.00    -0.275 OA
ATOM     22  H   UNL     1      -1.738   6.144   0.044  0.00  0.00    +0.149 HD
BRANCH  20  23
ATOM     23  C   UNL     1      -3.880   7.745   0.063  0.00  0.00    +0.048 C 
ATOM     24  C   UNL     1      -3.160   8.258   1.311  0.00  0.00    +0.019 C 
ATOM     25  C   UNL     1      -3.181   9.788   1.320  0.00  0.00    -0.009 C 
ATOM     26  C   UNL     1      -4.630  10.279   1.329  0.00  0.00    +0.007 C 
ATOM     27  C   UNL     1      -5.350   9.766   0.081  0.00  0.00    -0.009 C 
ATOM     28  C   UNL     1      -5.330   8.236   0.072  0.00  0.00    +0.019 C 
ATOM     29  C   UNL     1      -4.642  10.292  -1.169  0.00  0.00    +0.007 C 
ATOM     30  C   UNL     1      -3.193   9.802  -1.179  0.00  0.00    -0.009 C 
ATOM     31  C   UNL     1      -2.473  10.315   0.070  0.00  0.00    +0.007 C 
ATOM     32  C   UNL     1      -3.172   8.272  -1.187  0.00  0.00    +0.019 C 
ENDBRANCH  20  23
ENDBRANCH  18  19
ENDBRANCH  17  18
ENDBRANCH   2  17
TORSDOF 6
