REMARK  Name = ZINC13030159
REMARK  5 active torsions:
REMARK  status: ('A' for Active; 'I' for Inactive)
REMARK    1  A    between atoms: C_3  and  C_7
REMARK    2  A    between atoms: N_19  and  C_20
REMARK    3  A    between atoms: C_20  and  C_21
REMARK    4  A    between atoms: C_21  and  C_23
REMARK    5  A    between atoms: C_21  and  N_56
REMARK                            x       y       z     vdW  Elec       q    Type
REMARK                         _______ _______ _______ _____ _____    ______ ____
ROOT
ATOM      1  C   UNL     1       2.677   6.170  -4.808  0.00  0.00    +0.164 A 
ATOM      2  N   UNL     1       2.411   5.536  -3.670  0.00  0.00    -0.212 NA
ATOM      3  C   UNL     1       2.343   6.171  -2.512  0.00  0.00    +0.131 A 
ATOM      4  C   UNL     1       2.575   7.574  -2.477  0.00  0.00    +0.051 A 
ATOM      5  C   UNL     1       2.556   8.474  -1.313  0.00  0.00    -0.025 A 
ATOM      6  C   UNL     1       2.811   9.772  -1.544  0.00  0.00    -0.004 A 
ATOM      7  S   UNL     1       3.086   9.885  -3.298  0.00  0.00    -0.073 S 
ATOM      8  C   UNL     1       2.858   8.178  -3.717  0.00  0.00    +0.114 A 
ATOM      9  N   UNL     1       2.902   7.478  -4.832  0.00  0.00    -0.220 NA
ATOM     10  C   UNL     1       2.769  10.594  -0.283  0.00  0.00    +0.043 C 
ATOM     11  C   UNL     1       2.874   9.557   0.857  0.00  0.00    +0.010 C 
ATOM     12  C   UNL     1       2.301   8.294   0.186  0.00  0.00    +0.037 C 
ATOM     13  N   UNL     1       2.056   5.478  -1.349  0.00  0.00    -0.330 N 
ATOM     14  H   UNL     1       2.012   5.950  -0.503  0.00  0.00    +0.147 HD
ENDROOT
BRANCH   1  17
ATOM     15  C   UNL     1       3.055   5.276  -8.437  0.00  0.00    +0.020 A 
ATOM     16  C   UNL     1       3.011   6.041  -7.284  0.00  0.00    +0.014 A 
ATOM     17  C   UNL     1       2.732   5.400  -6.073  0.00  0.00    +0.037 A 
ATOM     18  C   UNL     1       2.499   4.026  -6.077  0.00  0.00    +0.122 A 
ATOM     19  N   UNL     1       2.546   3.340  -7.200  0.00  0.00    -0.263 NA
ATOM     20  C   UNL     1       2.813   3.917  -8.357  0.00  0.00    +0.111 A 
ENDBRANCH   1  17
BRANCH  13  21
ATOM     21  C   UNL     1       1.819   4.033  -1.397  0.00  0.00    +0.093 C 
BRANCH  21  22
ATOM     22  C   UNL     1       1.399   3.540  -0.011  0.00  0.00    -0.013 C 
BRANCH  22  27
ATOM     23  C   UNL     1       2.576   1.444  -0.398  0.00  0.00    -0.078 C 
ATOM     24  C   UNL     1       2.431  -0.002   0.137  0.00  0.00    -0.020 C 
ATOM     25  C   UNL     1       1.661   0.195   1.463  0.00  0.00    -0.020 C 
ATOM     26  C   UNL     1       0.953   1.556   1.318  0.00  0.00    -0.078 C 
ATOM     27  N   UNL     1       1.290   2.050  -0.018  0.00  0.00    +0.386 N 
ATOM     28  H   UNL     1       0.563   1.768  -0.685  0.00  0.00    -0.081 HD
ENDBRANCH  22  27
BRANCH  22  29
ATOM     29  C   UNL     1       0.068   4.144   0.355  0.00  0.00    -0.022 A 
ATOM     30  C   UNL     1      -0.197   5.205   1.157  0.00  0.00    +0.009 A 
ATOM     31  C   UNL     1      -1.511   5.587   1.351  0.00  0.00    +0.008 A 
ATOM     32  C   UNL     1      -2.497   4.889   0.734  0.00  0.00    +0.045 A 
ATOM     33  S   UNL     1      -1.570   3.649  -0.155  0.00  0.00    -0.103 S 
ENDBRANCH  22  29
ENDBRANCH  21  22
ENDBRANCH  13  21
TORSDOF 5
