REMARK  Name = ZINC26547072
REMARK  6 active torsions:
REMARK  status: ('A' for Active; 'I' for Inactive)
REMARK    1  A    between atoms: C_1  and  C_2
REMARK    2  A    between atoms: C_10  and  C_11
REMARK    3  A    between atoms: N_13  and  N_14
REMARK    4  A    between atoms: C_15  and  C_17
REMARK    5  A    between atoms: C_17  and  C_19
REMARK    6  A    between atoms: C_17  and  N_20
REMARK                            x       y       z     vdW  Elec       q    Type
REMARK                         _______ _______ _______ _____ _____    ______ ____
ROOT
ATOM      1  C   UNL     1      -5.873   0.882   1.402  0.00  0.00    +0.296 C 
ATOM      2  O   UNL     1      -6.156   2.002   1.018  0.00  0.00    -0.265 OA
ATOM      3  N   UNL     1      -4.608   0.431   1.289  0.00  0.00    -0.228 N 
ATOM      4  H   UNL     1      -4.352  -0.581   1.636  0.00  0.00    +0.173 HD
ENDROOT
BRANCH   1  14
ATOM      5  C   UNL     1      -8.853   1.685   1.786  0.00  0.00    +0.048 C 
ATOM      6  C   UNL     1      -8.212   0.372   2.155  0.00  0.00    +0.008 A 
ATOM      7  C   UNL     1      -8.867  -0.785   2.765  0.00  0.00    +0.024 A 
ATOM      8  C   UNL     1     -10.173  -1.059   3.178  0.00  0.00    +0.012 A 
ATOM      9  C   UNL     1     -10.467  -2.273   3.732  0.00  0.00    +0.001 A 
ATOM     10  C   UNL     1      -9.477  -3.233   3.889  0.00  0.00    +0.004 A 
ATOM     11  C   UNL     1      -8.183  -2.983   3.488  0.00  0.00    +0.047 A 
ATOM     12  C   UNL     1      -7.859  -1.755   2.921  0.00  0.00    +0.136 A 
ATOM     13  O   UNL     1      -6.713  -1.232   2.445  0.00  0.00    -0.450 OA
ATOM     14  C   UNL     1      -6.911   0.022   1.988  0.00  0.00    +0.195 A 
ENDBRANCH   1  14
BRANCH   3  15
ATOM     15  N   UNL     1      -3.619   1.251   0.731  0.00  0.00    -0.233 N 
ATOM     16  C   UNL     1      -2.354   0.799   0.618  0.00  0.00    +0.249 C 
ATOM     17  O   UNL     1      -2.072  -0.317   1.000  0.00  0.00    -0.272 OA
ATOM     18  H   UNL     1      -3.874   2.263   0.384  0.00  0.00    +0.173 HD
BRANCH  16  19
ATOM     19  C   UNL     1      -1.290   1.681   0.017  0.00  0.00    +0.159 C 
ATOM     20  C   UNL     1      -1.680   2.047  -1.416  0.00  0.00    +0.038 C 
BRANCH  19  21
ATOM     21  N   UNL     1      -0.011   0.966   0.007  0.00  0.00    -0.288 N 
ATOM     22  C   UNL     1       1.147   1.655   0.000  0.00  0.00    +0.298 C 
ATOM     23  O   UNL     1       1.130   2.871   0.007  0.00  0.00    -0.253 OA
ATOM     24  N   UNL     1       2.323   0.998  -0.015  0.00  0.00    -0.313 N 
ATOM     25  H   UNL     1       0.004  -0.134   0.006  0.00  0.00    +0.151 HD
ATOM     26  H   UNL     1       3.268   1.560  -0.021  0.00  0.00    +0.146 HD
ATOM     27  H   UNL     1       2.338  -0.102  -0.021  0.00  0.00    +0.146 HD
ENDBRANCH  19  21
ENDBRANCH  16  19
ENDBRANCH   3  15
TORSDOF 4
