REMARK  Name = ZINC35544286
REMARK  6 active torsions:
REMARK  status: ('A' for Active; 'I' for Inactive)
REMARK    1  A    between atoms: C_2  and  C_3
REMARK    2  A    between atoms: C_3  and  N_4
REMARK    3  A    between atoms: N_6  and  N_17
REMARK    4  A    between atoms: C_7  and  C_10
REMARK    5  A    between atoms: C_18  and  C_19
REMARK    6  A    between atoms: C_24  and  N_25
REMARK                            x       y       z     vdW  Elec       q    Type
REMARK                         _______ _______ _______ _____ _____    ______ ____
ROOT
ATOM      1  N   UNL     1      -1.559  -1.679  -1.479  0.00  0.00    -0.320 N 
ATOM      2  C   UNL     1      -2.606  -2.496  -1.582  0.00  0.00    +0.160 A 
ATOM      3  N   UNL     1      -2.827  -3.525  -2.488  0.00  0.00    -0.211 N 
ATOM      4  C   UNL     1      -3.935  -4.224  -2.425  0.00  0.00    +0.082 A 
ATOM      5  C   UNL     1      -4.885  -3.916  -1.435  0.00  0.00    +0.077 A 
ATOM      6  S   UNL     1      -4.088  -2.559  -0.586  0.00  0.00    -0.060 S 
ATOM      7  H   UNL     1      -0.816  -1.762  -2.097  0.00  0.00    +0.148 HD
ENDROOT
BRANCH   4   8
ATOM      8  C   UNL     1      -4.182  -5.322  -3.385  0.00  0.00    +0.002 A 
ATOM      9  C   UNL     1      -5.032  -6.375  -3.041  0.00  0.00    +0.010 A 
ATOM     10  C   UNL     1      -5.259  -7.396  -3.940  0.00  0.00    +0.002 A 
ATOM     11  C   UNL     1      -4.646  -7.379  -5.181  0.00  0.00    +0.015 A 
ATOM     12  C   UNL     1      -3.802  -6.338  -5.529  0.00  0.00    +0.019 A 
ATOM     13  C   UNL     1      -3.572  -5.306  -4.641  0.00  0.00    +0.025 A 
ATOM     14 BR   UNL     1      -2.969  -6.325  -7.226  0.00  0.00    -0.050 Br
ENDBRANCH   4   8
BRANCH   3  15
ATOM     15  N   UNL     1      -1.945  -3.793  -3.390  0.00  0.00    -0.172 NA
ATOM     16  C   UNL     1      -0.922  -4.589  -3.102  0.00  0.00    +0.143 C 
BRANCH  16  17
ATOM     17  C   UNL     1       0.043  -4.881  -4.088  0.00  0.00    +0.029 A 
ATOM     18  C   UNL     1      -0.002  -4.230  -5.338  0.00  0.00    +0.061 A 
ATOM     19  C   UNL     1       0.936  -4.517  -6.287  0.00  0.00    +0.167 A 
ATOM     20  C   UNL     1       1.942  -5.460  -6.020  0.00  0.00    +0.168 A 
ATOM     21  C   UNL     1       1.988  -6.106  -4.784  0.00  0.00    +0.083 A 
ATOM     22  C   UNL     1       1.061  -5.824  -3.826  0.00  0.00    +0.138 A 
ATOM     23  O   UNL     1       2.740  -5.562  -7.117  0.00  0.00    -0.453 OA
ATOM     24  C   UNL     1       1.984  -4.990  -8.200  0.00  0.00    +0.466 C 
ATOM     25  O   UNL     1       1.117  -4.040  -7.553  0.00  0.00    -0.453 OA
BRANCH  22  26
ATOM     26  N   UNL     1       1.118  -6.508  -2.515  0.00  0.00    +0.057 N 
ATOM     27  O   UNL     1       1.981  -7.484  -2.318  0.00  0.00    -0.126 OA
ATOM     28  O   UNL     1       0.306  -6.141  -1.545  0.00  0.00    -0.126 OA
ENDBRANCH  22  26
ENDBRANCH  16  17
ENDBRANCH   3  15
BRANCH   1  29
ATOM     29  C   UNL     1      -1.529  -0.655  -0.432  0.00  0.00    +0.130 C 
BRANCH  29  31
ATOM     30  C   UNL     1      -0.283   1.434  -0.643  0.00  0.00    +0.005 C 
ATOM     31  C   UNL     1      -0.246   0.129  -0.532  0.00  0.00    -0.016 C 
ENDBRANCH  29  31
ENDBRANCH   1  29
TORSDOF 6
