REMARK  Name = ZINC35746476
REMARK  17 active torsions:
REMARK  status: ('A' for Active; 'I' for Inactive)
REMARK    1  A    between atoms: C_1  and  C_2
REMARK    2  A    between atoms: C_5  and  C_34
REMARK    3  A    between atoms: C_6  and  C_8
REMARK    4  A    between atoms: C_17  and  C_19
REMARK    5  A    between atoms: C_19  and  N_20
REMARK    6  A    between atoms: N_20  and  C_21
REMARK    7  A    between atoms: N_20  and  C_30
REMARK    8  A    between atoms: C_21  and  C_22
REMARK    9  A    between atoms: C_22  and  C_24
REMARK   10  A    between atoms: C_22  and  O_29
REMARK   11  A    between atoms: C_24  and  O_25
REMARK   12  A    between atoms: O_25  and  C_26
REMARK   13  A    between atoms: C_26  and  C_27
REMARK   14  A    between atoms: C_26  and  C_28
REMARK   15  A    between atoms: C_30  and  C_31
REMARK   16  A    between atoms: C_31  and  C_32
REMARK   17  A    between atoms: C_31  and  C_33
REMARK                            x       y       z     vdW  Elec       q    Type
REMARK                         _______ _______ _______ _____ _____    ______ ____
ROOT
ATOM      1  C   UNL     1       5.328 -10.938   1.715  0.00  0.00    +0.004 A 
ATOM      2  C   UNL     1       4.804 -12.048   2.289  0.00  0.00    +0.056 A 
ATOM      3  S   UNL     1       4.063 -11.427   3.787  0.00  0.00    -0.076 S 
ATOM      4  C   UNL     1       4.470  -9.709   3.609  0.00  0.00    +0.116 A 
ATOM      5  C   UNL     1       5.176  -9.658   2.396  0.00  0.00    +0.080 A 
ATOM      6  C   UNL     1       5.637  -8.361   2.001  0.00  0.00    +0.260 A 
ATOM      7  O   UNL     1       6.255  -8.215   0.961  0.00  0.00    -0.267 OA
ATOM      8  N   UNL     1       5.378  -7.307   2.796  0.00  0.00    -0.312 N 
ATOM      9  H   UNL     1       5.688  -6.426   2.534  0.00  0.00    +0.170 HD
ATOM     10  C   UNL     1       4.691  -7.452   3.958  0.00  0.00    +0.094 A 
ATOM     11  N   UNL     1       4.248  -8.620   4.340  0.00  0.00    -0.229 NA
ENDROOT
BRANCH   1  17
ATOM     12  C   UNL     1       5.305 -11.880  -3.187  0.00  0.00    +0.044 C 
ATOM     13  C   UNL     1       6.041 -11.477  -1.936  0.00  0.00    -0.050 A 
ATOM     14  C   UNL     1       7.393 -11.189  -1.992  0.00  0.00    +0.003 A 
ATOM     15  C   UNL     1       8.075 -10.819  -0.847  0.00  0.00    +0.004 A 
ATOM     16  C   UNL     1       7.410 -10.736   0.359  0.00  0.00    -0.043 A 
ATOM     17  C   UNL     1       6.048 -11.025   0.422  0.00  0.00    -0.013 A 
ATOM     18  C   UNL     1       5.364 -11.392  -0.736  0.00  0.00    +0.012 A 
ATOM     19  C   UNL     1       8.155 -10.334   1.606  0.00  0.00    +0.044 C 
ENDBRANCH   1  17
BRANCH  10  20
ATOM     20  C   UNL     1       4.424  -6.242   4.816  0.00  0.00    -0.003 C 
BRANCH  20  21
ATOM     21  N   UNL     1       3.781  -6.662   6.069  0.00  0.00    +0.386 N 
ATOM     22  H   UNL     1       2.967  -7.220   5.858  0.00  0.00    -0.081 HD
BRANCH  21  23
ATOM     23  C   UNL     1       4.728  -7.457   6.862  0.00  0.00    -0.044 C 
BRANCH  23  24
ATOM     24  C   UNL     1       4.021  -7.999   8.107  0.00  0.00    +0.124 C 
BRANCH  24  25
ATOM     25  O   UNL     1       2.997  -8.914   7.712  0.00  0.00    -0.391 OA
ATOM     26  H   UNL     1       3.321  -9.676   7.213  0.00  0.00    +0.210 HD
ENDBRANCH  24  25
BRANCH  24  27
ATOM     27  C   UNL     1       5.036  -8.721   8.995  0.00  0.00    +0.189 C 
BRANCH  27  28
ATOM     28  O   UNL     1       4.402  -9.125  10.210  0.00  0.00    -0.375 OA
BRANCH  28  29
ATOM     29  C   UNL     1       5.267  -9.813  11.117  0.00  0.00    +0.112 C 
ATOM     30  C   UNL     1       5.938  -8.801  12.047  0.00  0.00    +0.037 C 
ATOM     31  C   UNL     1       4.451 -10.806  11.946  0.00  0.00    +0.037 C 
ENDBRANCH  28  29
ENDBRANCH  27  28
ENDBRANCH  24  27
ENDBRANCH  23  24
ENDBRANCH  21  23
BRANCH  21  32
ATOM     32  C   UNL     1       3.377  -5.475   6.834  0.00  0.00    -0.075 C 
BRANCH  32  33
ATOM     33  C   UNL     1       2.279  -4.728   6.073  0.00  0.00    -0.034 C 
ATOM     34  C   UNL     1       1.024  -5.599   6.003  0.00  0.00    +0.005 C 
ATOM     35  C   UNL     1       1.954  -3.422   6.801  0.00  0.00    +0.005 C 
ENDBRANCH  32  33
ENDBRANCH  21  32
ENDBRANCH  20  21
ENDBRANCH  10  20
TORSDOF 11
