REMARK  Name = ZINC02848304
REMARK  7 active torsions:
REMARK  status: ('A' for Active; 'I' for Inactive)
REMARK    1  A    between atoms: C_4  and  C_7
REMARK    2  A    between atoms: C_7  and  N_8
REMARK    3  A    between atoms: C_9  and  C_11
REMARK    4  A    between atoms: C_15  and  N_16
REMARK    5  A    between atoms: C_17  and  C_19
REMARK    6  A    between atoms: C_19  and  S_20
REMARK    7  A    between atoms: S_20  and  C_21
REMARK                            x       y       z     vdW  Elec       q    Type
REMARK                         _______ _______ _______ _____ _____    ______ ____
ROOT
ATOM      1  C   UNL     1      -1.214   3.585   0.027  0.00  0.00    +0.069 A 
ATOM      2  C   UNL     1      -1.224   4.345  -1.211  0.00  0.00    -0.023 A 
ATOM      3  C   UNL     1      -1.248   5.687  -1.062  0.00  0.00    -0.004 A 
ATOM      4  S   UNL     1      -1.242   5.948   0.690  0.00  0.00    -0.077 S 
ATOM      5  C   UNL     1      -1.218   4.298   1.218  0.00  0.00    +0.084 A 
ATOM      6  C   UNL     1      -1.266   6.717  -2.149  0.00  0.00    +0.043 C 
ATOM      7  C   UNL     1      -0.886   6.032  -3.470  0.00  0.00    +0.005 C 
ATOM      8  C   UNL     1      -1.707   4.747  -3.614  0.00  0.00    +0.005 C 
ATOM      9  C   UNL     1      -1.231   3.709  -2.596  0.00  0.00    +0.037 C 
ENDROOT
BRANCH   1  11
ATOM     10  N   UNL     1      -0.018   1.461   0.010  0.00  0.00    -0.307 N 
ATOM     11  C   UNL     1      -1.194   2.119   0.019  0.00  0.00    +0.247 C 
ATOM     12  O   UNL     1      -2.240   1.496   0.021  0.00  0.00    -0.270 OA
ATOM     13  H   UNL     1       0.816   1.957   0.005  0.00  0.00    +0.149 HD
BRANCH  10  14
ATOM     14  C   UNL     1       0.002  -0.004   0.002  0.00  0.00    +0.139 C 
BRANCH  14  18
ATOM     15  C   UNL     1       4.048  -1.373  -0.044  0.00  0.00    +0.000 A 
ATOM     16  C   UNL     1       3.405  -1.158   1.161  0.00  0.00    +0.000 A 
ATOM     17  C   UNL     1       2.096  -0.715   1.175  0.00  0.00    +0.005 A 
ATOM     18  C   UNL     1       1.429  -0.487  -0.014  0.00  0.00    -0.030 A 
ATOM     19  C   UNL     1       2.071  -0.708  -1.219  0.00  0.00    +0.005 A 
ATOM     20  C   UNL     1       3.382  -1.145  -1.234  0.00  0.00    +0.000 A 
ENDBRANCH  14  18
ENDBRANCH  10  14
ENDBRANCH   1  11
BRANCH   5  21
ATOM     21  N   UNL     1      -1.204   3.809   2.515  0.00  0.00    -0.279 N 
ATOM     22  C   UNL     1      -1.210   4.663   3.558  0.00  0.00    +0.228 C 
ATOM     23  O   UNL     1      -1.228   5.859   3.361  0.00  0.00    -0.275 OA
ATOM     24  H   UNL     1      -1.190   2.852   2.672  0.00  0.00    +0.155 HD
BRANCH  22  25
ATOM     25  C   UNL     1      -1.195   4.131   4.968  0.00  0.00    +0.172 C 
BRANCH  25  26
ATOM     26  S   UNL     1      -1.208   5.518   6.137  0.00  0.00    -0.088 S 
BRANCH  26  27
ATOM     27  C   UNL     1      -1.189   4.742   7.719  0.00  0.00    +0.160 A 
ATOM     28  N   UNL     1      -1.169   3.458   8.020  0.00  0.00    -0.133 NA
ATOM     29  N   UNL     1      -1.156   3.064   9.338  0.00  0.00    -0.125 NA
ATOM     30  C   UNL     1      -1.163   3.972  10.294  0.00  0.00    +0.180 A 
ATOM     31  S   UNL     1      -1.183   5.484   9.344  0.00  0.00    -0.025 S 
ATOM     32  N   UNL     1      -1.153   3.798  11.673  0.00  0.00    -0.336 N 
ATOM     33  H   UNL     1      -1.138   2.905  12.050  0.00  0.00    +0.144 HD
ATOM     34  H   UNL     1      -1.160   4.571  12.259  0.00  0.00    +0.144 HD
ENDBRANCH  26  27
ENDBRANCH  25  26
ENDBRANCH  22  25
ENDBRANCH   5  21
TORSDOF 7
