REMARK  Name = ZINC66305301
REMARK  9 active torsions:
REMARK  status: ('A' for Active; 'I' for Inactive)
REMARK    1  A    between atoms: C_1  and  C_2
REMARK    2  A    between atoms: C_5  and  C_12
REMARK    3  A    between atoms: C_8  and  C_10
REMARK    4  A    between atoms: C_8  and  C_11
REMARK    5  A    between atoms: C_12  and  C_13
REMARK    6  A    between atoms: N_15  and  N_16
REMARK    7  A    between atoms: C_17  and  C_19
REMARK    8  A    between atoms: C_22  and  S_25
REMARK    9  A    between atoms: S_25  and  C_28
REMARK                            x       y       z     vdW  Elec       q    Type
REMARK                         _______ _______ _______ _____ _____    ______ ____
ROOT
ATOM      1  C   UNL     1      -4.342  -0.152   0.136  0.00  0.00    +0.229 C 
ATOM      2  O   UNL     1      -3.824   0.803  -0.404  0.00  0.00    -0.274 OA
ATOM      3  N   UNL     1      -5.623  -0.469  -0.141  0.00  0.00    -0.234 N 
ATOM      4  H   UNL     1      -6.037  -1.232   0.291  0.00  0.00    +0.173 HD
ENDROOT
BRANCH   3   5
ATOM      5  N   UNL     1      -6.354   0.304  -1.052  0.00  0.00    -0.230 N 
ATOM      6  C   UNL     1      -7.635  -0.013  -1.329  0.00  0.00    +0.260 C 
ATOM      7  O   UNL     1      -8.155  -0.970  -0.788  0.00  0.00    -0.269 OA
ATOM      8  H   UNL     1      -5.940   1.067  -1.483  0.00  0.00    +0.173 HD
BRANCH   6   9
ATOM      9  C   UNL     1      -8.407   0.802  -2.290  0.00  0.00    +0.038 A 
ATOM     10  C   UNL     1      -7.812   1.898  -2.917  0.00  0.00    +0.015 A 
ATOM     11  C   UNL     1      -8.538   2.655  -3.813  0.00  0.00    +0.027 A 
ATOM     12  C   UNL     1      -9.854   2.330  -4.091  0.00  0.00    +0.088 A 
ATOM     13  C   UNL     1     -10.450   1.245  -3.472  0.00  0.00    +0.027 A 
ATOM     14  C   UNL     1      -9.733   0.477  -2.579  0.00  0.00    +0.015 A 
BRANCH  12  15
ATOM     15  S   UNL     1     -10.774   3.301  -5.237  0.00  0.00    -0.006 S 
ATOM     16  O   UNL     1     -12.130   3.133  -4.847  0.00  0.00    -0.170 OA
ATOM     17  O   UNL     1     -10.163   4.584  -5.198  0.00  0.00    -0.170 OA
ATOM     18  C   UNL     1     -10.486   2.520  -6.848  0.00  0.00    +0.200 C 
ENDBRANCH  12  15
ENDBRANCH   6   9
ENDBRANCH   3   5
BRANCH   1  19
ATOM     19  C   UNL     1      -3.555  -0.983   1.116  0.00  0.00    +0.101 C 
BRANCH  19  23
ATOM     20  C   UNL     1      -0.019   1.524   0.010  0.00  0.00    +0.007 C 
ATOM     21  C   UNL     1       0.002  -0.004   0.002  0.00  0.00    -0.013 C 
ATOM     22  C   UNL     1      -1.412  -0.559  -0.088  0.00  0.00    +0.007 C 
ATOM     23  C   UNL     1      -2.138  -0.412   1.248  0.00  0.00    -0.001 C 
ATOM     24  C   UNL     1      -1.378  -1.199   2.313  0.00  0.00    +0.010 C 
ATOM     25  C   UNL     1       0.034  -0.651   2.488  0.00  0.00    -0.034 C 
ATOM     26  C   UNL     1       0.787  -0.561   1.172  0.00  0.00    +0.009 C 
ATOM     27  C   UNL     1       0.803  -1.619   3.413  0.00  0.00    +0.011 C 
ATOM     28  C   UNL     1      -0.015   0.710   3.188  0.00  0.00    +0.011 C 
ENDBRANCH  19  23
ENDBRANCH   1  19
TORSDOF 5
