REMARK  Name = ZINC39521440
REMARK  6 active torsions:
REMARK  status: ('A' for Active; 'I' for Inactive)
REMARK    1  A    between atoms: C_1  and  C_2
REMARK    2  A    between atoms: C_2  and  C_3
REMARK    3  A    between atoms: C_2  and  S_4
REMARK    4  A    between atoms: S_4  and  C_7
REMARK    5  A    between atoms: N_19  and  C_20
REMARK    6  A    between atoms: C_25  and  O_26
REMARK                            x       y       z     vdW  Elec       q    Type
REMARK                         _______ _______ _______ _____ _____    ______ ____
ROOT
ATOM      1  C   UNL     1      -2.314   0.161  -1.341  0.00  0.00    +0.133 C 
ATOM      2  C   UNL     1      -1.935   1.643  -1.323  0.00  0.00    +0.026 C 
ATOM      3  C   UNL     1      -2.553   2.342  -2.536  0.00  0.00    +0.004 C 
ATOM      4  C   UNL     1      -4.076   2.205  -2.483  0.00  0.00    +0.026 C 
ATOM      5  C   UNL     1      -4.455   0.724  -2.497  0.00  0.00    +0.038 C 
ATOM      6  C   UNL     1      -3.837   0.023  -1.287  0.00  0.00    +0.052 C 
ATOM      7  C   UNL     1      -3.942   0.073  -3.784  0.00  0.00    +0.026 C 
ATOM      8  C   UNL     1      -4.445  -1.371  -3.856  0.00  0.00    +0.005 C 
ATOM      9  C   UNL     1      -5.975  -1.379  -3.884  0.00  0.00    +0.039 C 
ATOM     10  C   UNL     1      -6.510  -0.745  -2.596  0.00  0.00    +0.166 C 
ATOM     11  N   UNL     1      -5.917   0.591  -2.445  0.00  0.00    -0.305 N 
ATOM     12 CL   UNL     1      -8.305  -0.607  -2.691  0.00  0.00    -0.101 Cl
ENDROOT
BRANCH  11  13
ATOM     13  C   UNL     1      -6.729   1.715  -2.256  0.00  0.00    +0.073 A 
ATOM     14  C   UNL     1      -7.194   2.429  -3.351  0.00  0.00    +0.027 A 
ATOM     15  C   UNL     1      -7.996   3.538  -3.161  0.00  0.00    +0.002 A 
ATOM     16  C   UNL     1      -8.338   3.939  -1.883  0.00  0.00    +0.004 A 
ATOM     17  C   UNL     1      -7.878   3.232  -0.787  0.00  0.00    +0.047 A 
ATOM     18  C   UNL     1      -7.078   2.116  -0.968  0.00  0.00    +0.138 A 
BRANCH  18  19
ATOM     19  O   UNL     1      -6.629   1.417   0.109  0.00  0.00    -0.505 OA
ATOM     20  H   UNL     1      -5.781   1.728   0.454  0.00  0.00    +0.292 HD
ENDBRANCH  18  19
ENDBRANCH  11  13
BRANCH   1  21
ATOM     21  S   UNL     1      -1.580  -0.668   0.097  0.00  0.00    -0.026 S 
ATOM     22  O   UNL     1      -2.205  -0.168   1.271  0.00  0.00    -0.174 OA
ATOM     23  O   UNL     1      -0.166  -0.597  -0.018  0.00  0.00    -0.174 OA
BRANCH  21  25
ATOM     24  C   UNL     1      -1.507  -2.927  -1.444  0.00  0.00    +0.031 C 
ATOM     25  C   UNL     1      -2.089  -2.394  -0.133  0.00  0.00    +0.125 C 
ATOM     26  C   UNL     1      -1.572  -3.237   1.034  0.00  0.00    +0.031 C 
ENDBRANCH  21  25
ENDBRANCH   1  21
TORSDOF 4
