REMARK  Name = ZINC12978074
REMARK  8 active torsions:
REMARK  status: ('A' for Active; 'I' for Inactive)
REMARK    1  A    between atoms: C_1  and  N_2
REMARK    2  A    between atoms: N_2  and  C_3
REMARK    3  A    between atoms: C_8  and  C_9
REMARK    4  A    between atoms: N_11  and  C_12
REMARK    5  A    between atoms: C_12  and  C_13
REMARK    6  A    between atoms: C_18  and  C_20
REMARK    7  A    between atoms: C_20  and  N_63
REMARK    8  A    between atoms: C_23  and  C_26
REMARK                            x       y       z     vdW  Elec       q    Type
REMARK                         _______ _______ _______ _____ _____    ______ ____
ROOT
ATOM      1  C   UNL     1       4.143   9.978  -0.421  0.00  0.00    +0.138 C 
ATOM      2  N   UNL     1       4.598   8.906  -1.309  0.00  0.00    -0.275 N 
ATOM      3  C   UNL     1       4.166   7.643  -1.118  0.00  0.00    +0.203 C 
ATOM      4  O   UNL     1       4.543   6.755  -1.853  0.00  0.00    -0.277 OA
ENDROOT
BRANCH   2   5
ATOM      5  C   UNL     1       5.477   9.190  -2.352  0.00  0.00    +0.048 A 
ATOM      6  C   UNL     1       4.985   9.535  -3.604  0.00  0.00    +0.024 A 
ATOM      7  C   UNL     1       5.858   9.822  -4.634  0.00  0.00    +0.002 A 
ATOM      8  C   UNL     1       7.227   9.758  -4.432  0.00  0.00    +0.001 A 
ATOM      9  C   UNL     1       7.733   9.412  -3.198  0.00  0.00    +0.015 A 
ATOM     10  C   UNL     1       6.862   9.124  -2.144  0.00  0.00    +0.058 A 
BRANCH  10  11
ATOM     11  C   UNL     1       7.397   8.752  -0.820  0.00  0.00    +0.246 C 
ATOM     12  O   UNL     1       6.636   8.502   0.094  0.00  0.00    -0.270 OA
ATOM     13  N   UNL     1       8.729   8.690  -0.625  0.00  0.00    -0.304 N 
ATOM     14  H   UNL     1       9.336   8.890  -1.355  0.00  0.00    +0.149 HD
BRANCH  13  15
ATOM     15  C   UNL     1       9.260   8.321   0.690  0.00  0.00    +0.179 C 
BRANCH  15  16
ATOM     16  C   UNL     1      10.767   8.325   0.642  0.00  0.00    +0.122 A 
ATOM     17  C   UNL     1      11.559   9.379   0.910  0.00  0.00    +0.046 A 
ATOM     18  C   UNL     1      12.893   8.940   0.745  0.00  0.00    +0.041 A 
ATOM     19  C   UNL     1      12.836   7.645   0.386  0.00  0.00    +0.195 A 
ATOM     20  O   UNL     1      11.546   7.276   0.331  0.00  0.00    -0.466 OA
ENDBRANCH  15  16
ENDBRANCH  13  15
ENDBRANCH  10  11
ENDBRANCH   2   5
BRANCH   3  21
ATOM     21  C   UNL     1       3.216   7.335   0.011  0.00  0.00    +0.019 C 
BRANCH  21  27
ATOM     22  C   UNL     1       2.170   5.519   1.222  0.00  0.00    -0.078 C 
ATOM     23  C   UNL     1       1.985   4.000   1.252  0.00  0.00    -0.009 C 
ATOM     24  C   UNL     1       1.207   3.561   0.009  0.00  0.00    +0.041 C 
ATOM     25  C   UNL     1       1.962   4.013  -1.244  0.00  0.00    -0.009 C 
ATOM     26  C   UNL     1       2.148   5.532  -1.201  0.00  0.00    -0.078 C 
ATOM     27  N   UNL     1       2.925   5.887   0.006  0.00  0.00    +0.385 N 
ATOM     28  H   UNL     1       3.812   5.369  -0.004  0.00  0.00    -0.081 HD
BRANCH  24  29
ATOM     29  C   UNL     1       1.073   2.060   0.003  0.00  0.00    +0.082 A 
ATOM     30  N   UNL     1      -0.016   1.345   0.009  0.00  0.00    -0.244 NA
ATOM     31  C   UNL     1       0.002  -0.004   0.002  0.00  0.00    +0.078 A 
ATOM     32  C   UNL     1      -1.082  -0.909   0.007  0.00  0.00    +0.029 A 
ATOM     33  C   UNL     1      -0.866  -2.252  -0.002  0.00  0.00    +0.002 A 
ATOM     34  C   UNL     1       0.417  -2.783  -0.017  0.00  0.00    +0.001 A 
ATOM     35  C   UNL     1       1.504  -1.931  -0.023  0.00  0.00    +0.017 A 
ATOM     36  C   UNL     1       1.296  -0.573  -0.013  0.00  0.00    +0.039 A 
ATOM     37  S   UNL     1       2.335   0.867  -0.016  0.00  0.00    -0.072 S 
ENDBRANCH  24  29
ENDBRANCH  21  27
ENDBRANCH   3  21
TORSDOF 7
