REMARK  Name = ZINC66902625
REMARK  11 active torsions:
REMARK  status: ('A' for Active; 'I' for Inactive)
REMARK    1  A    between atoms: C_1  and  C_2
REMARK    2  A    between atoms: C_2  and  C_3
REMARK    3  A    between atoms: C_3  and  C_4
REMARK    4  A    between atoms: C_4  and  C_6
REMARK    5  A    between atoms: C_4  and  N_7
REMARK    6  A    between atoms: C_8  and  C_10
REMARK    7  A    between atoms: C_10  and  C_12
REMARK    8  A    between atoms: C_10  and  N_13
REMARK    9  A    between atoms: C_16  and  N_19
REMARK   10  A    between atoms: C_20  and  C_22
REMARK   11  A    between atoms: C_22  and  C_23
REMARK                            x       y       z     vdW  Elec       q    Type
REMARK                         _______ _______ _______ _____ _____    ______ ____
ROOT
ATOM      1  N   UNL     1       1.775  -5.613  -1.900  0.00  0.00    +0.387 N 
ATOM      2  C   UNL     1       0.374  -5.677  -2.332  0.00  0.00    -0.076 C 
ATOM      3  C   UNL     1      -0.026  -7.135  -2.567  0.00  0.00    +0.004 C 
ATOM      4  C   UNL     1       0.872  -7.737  -3.651  0.00  0.00    +0.069 C 
ATOM      5  C   UNL     1       2.336  -7.598  -3.224  0.00  0.00    +0.004 C 
ATOM      6  C   UNL     1       2.648  -6.122  -2.965  0.00  0.00    -0.076 C 
ATOM      7  H   UNL     1       1.895  -6.175  -1.071  0.00  0.00    -0.081 HD
ENDROOT
BRANCH   4   8
ATOM      8  N   UNL     1       0.546  -9.154  -3.828  0.00  0.00    -0.313 N 
ATOM      9  C   UNL     1       0.803  -9.764  -5.001  0.00  0.00    +0.213 C 
ATOM     10  O   UNL     1       1.305  -9.140  -5.912  0.00  0.00    -0.276 OA
ATOM     11  H   UNL     1       0.144  -9.653  -3.099  0.00  0.00    +0.149 HD
BRANCH   9  12
ATOM     12  C   UNL     1       0.467 -11.222  -5.182  0.00  0.00    +0.099 C 
BRANCH  12  13
ATOM     13  C   UNL     1       0.858 -11.664  -6.594  0.00  0.00    -0.002 C 
ATOM     14  C   UNL     1      -0.003 -10.920  -7.617  0.00  0.00    +0.004 C 
ATOM     15  C   UNL     1       0.388 -11.362  -9.029  0.00  0.00    +0.000 C 
ATOM     16  C   UNL     1       0.163 -12.869  -9.173  0.00  0.00    +0.000 C 
ATOM     17  C   UNL     1       1.023 -13.612  -8.149  0.00  0.00    +0.000 C 
ATOM     18  C   UNL     1       0.633 -13.171  -6.737  0.00  0.00    +0.004 C 
ENDBRANCH  12  13
ENDBRANCH   9  12
ENDBRANCH   4   8
BRANCH   1  19
ATOM     19  C   UNL     1       2.131  -4.220  -1.602  0.00  0.00    +0.016 C 
ATOM     20  C   UNL     1       3.605  -4.145  -1.198  0.00  0.00    -0.004 C 
BRANCH  19  22
ATOM     21  N   UNL     1       1.002  -2.398  -0.367  0.00  0.00    -0.314 N 
ATOM     22  C   UNL     1       1.274  -3.714  -0.470  0.00  0.00    +0.199 C 
ATOM     23  O   UNL     1       0.830  -4.491   0.348  0.00  0.00    -0.278 OA
ATOM     24  H   UNL     1       1.358  -1.776  -1.021  0.00  0.00    +0.149 HD
BRANCH  21  25
ATOM     25  C   UNL     1       0.169  -1.906   0.734  0.00  0.00    +0.070 C 
ATOM     26  C   UNL     1       1.041  -1.673   1.969  0.00  0.00    +0.028 C 
BRANCH  25  27
ATOM     27  C   UNL     1      -0.495  -0.590   0.322  0.00  0.00    +0.022 C 
BRANCH  27  29
ATOM     28  C   UNL     1      -2.126   0.468  -1.246  0.00  0.00    +0.004 C 
ATOM     29  C   UNL     1      -1.462  -0.847  -0.835  0.00  0.00    -0.002 C 
ENDBRANCH  27  29
ENDBRANCH  25  27
ENDBRANCH  21  25
ENDBRANCH  19  22
ENDBRANCH   1  19
TORSDOF 8
