REMARK  Name = ZINC15003665
REMARK  8 active torsions:
REMARK  status: ('A' for Active; 'I' for Inactive)
REMARK    1  A    between atoms: C_1  and  C_2
REMARK    2  A    between atoms: C_2  and  C_3
REMARK    3  A    between atoms: C_2  and  C_4
REMARK    4  A    between atoms: C_4  and  N_73
REMARK    5  A    between atoms: C_7  and  C_10
REMARK    6  A    between atoms: C_7  and  O_35
REMARK    7  A    between atoms: C_17  and  C_19
REMARK    8  A    between atoms: C_25  and  C_29
REMARK                            x       y       z     vdW  Elec       q    Type
REMARK                         _______ _______ _______ _____ _____    ______ ____
ROOT
ATOM      1  C   UNL     1      -7.139  -4.887  -2.700  0.00  0.00    -0.015 A 
ATOM      2  C   UNL     1      -6.116  -4.941  -3.637  0.00  0.00    +0.010 A 
ATOM      3  C   UNL     1      -4.834  -4.565  -3.302  0.00  0.00    +0.047 A 
ATOM      4  C   UNL     1      -4.556  -4.125  -2.012  0.00  0.00    +0.136 A 
ATOM      5  C   UNL     1      -5.597  -4.072  -1.067  0.00  0.00    +0.021 A 
ATOM      6  C   UNL     1      -6.890  -4.458  -1.427  0.00  0.00    +0.018 A 
ATOM      7  C   UNL     1      -4.986  -3.582   0.168  0.00  0.00    +0.063 A 
ATOM      8  C   UNL     1      -3.674  -3.376  -0.117  0.00  0.00    +0.191 A 
ATOM      9  O   UNL     1      -3.431  -3.702  -1.404  0.00  0.00    -0.450 OA
ENDROOT
BRANCH   8  10
ATOM     10  C   UNL     1      -2.670  -2.878   0.834  0.00  0.00    +0.282 C 
ATOM     11  O   UNL     1      -2.960  -2.737   2.006  0.00  0.00    -0.267 OA
ATOM     12  N   UNL     1      -1.427  -2.578   0.406  0.00  0.00    -0.295 N 
ATOM     13  C   UNL     1      -0.460  -2.025   1.374  0.00  0.00    +0.108 C 
ATOM     14  C   UNL     1       0.941  -2.641   1.211  0.00  0.00    +0.020 C 
ATOM     15  C   UNL     1       0.829  -4.123   0.948  0.00  0.00    +0.010 C 
ATOM     16  C   UNL     1       0.785  -4.368  -0.557  0.00  0.00    +0.021 C 
ATOM     17  C   UNL     1      -0.555  -4.253  -1.152  0.00  0.00    +0.027 C 
ATOM     18  C   UNL     1      -1.097  -2.812  -0.982  0.00  0.00    +0.109 C 
BRANCH  16  19
ATOM     19  C   UNL     1       1.314  -5.752  -0.832  0.00  0.00    -0.044 A 
ATOM     20  C   UNL     1       0.689  -6.853  -0.277  0.00  0.00    +0.004 A 
ATOM     21  C   UNL     1       1.171  -8.123  -0.533  0.00  0.00    +0.000 A 
ATOM     22  C   UNL     1       2.283  -8.292  -1.336  0.00  0.00    +0.000 A 
ATOM     23  C   UNL     1       2.912  -7.190  -1.886  0.00  0.00    +0.000 A 
ATOM     24  C   UNL     1       2.427  -5.920  -1.634  0.00  0.00    +0.004 A 
ENDBRANCH  16  19
ENDBRANCH   8  10
BRANCH   1  27
ATOM     25  C   UNL     1     -10.150  -5.506  -4.982  0.00  0.00    -0.076 C 
ATOM     26  C   UNL     1      -8.754  -5.025  -4.579  0.00  0.00    +0.021 C 
ATOM     27  C   UNL     1      -8.534  -5.304  -3.090  0.00  0.00    +0.088 C 
ATOM     28  C   UNL     1      -8.713  -6.802  -2.826  0.00  0.00    +0.021 C 
ATOM     29  C   UNL     1     -10.109  -7.232  -3.282  0.00  0.00    -0.076 C 
ATOM     30  N   UNL     1     -10.248  -6.959  -4.728  0.00  0.00    +0.380 N 
ATOM     31  H   UNL     1      -9.492  -7.437  -5.232  0.00  0.00    -0.082 HD
BRANCH  27  32
ATOM     32  O   UNL     1      -9.486  -4.567  -2.320  0.00  0.00    -0.384 OA
ATOM     33  H   UNL     1      -9.406  -4.698  -1.365  0.00  0.00    +0.211 HD
ENDBRANCH  27  32
BRANCH  30  34
ATOM     34  C   UNL     1     -11.547  -7.470  -5.215  0.00  0.00    -0.076 C 
BRANCH  34  36
ATOM     35  C   UNL     1     -12.905  -9.540  -5.549  0.00  0.00    +0.005 C 
ATOM     36  C   UNL     1     -11.533  -8.998  -5.144  0.00  0.00    -0.034 C 
ATOM     37  C   UNL     1     -10.468  -9.543  -6.098  0.00  0.00    +0.005 C 
ENDBRANCH  34  36
ENDBRANCH  30  34
ENDBRANCH   1  27
TORSDOF 6
