REMARK  Name = ZINC17960465
REMARK  10 active torsions:
REMARK  status: ('A' for Active; 'I' for Inactive)
REMARK    1  A    between atoms: C_1  and  C_2
REMARK    2  A    between atoms: C_4  and  C_33
REMARK    3  A    between atoms: C_5  and  N_9
REMARK    4  A    between atoms: C_6  and  C_8
REMARK    5  A    between atoms: C_10  and  C_12
REMARK    6  A    between atoms: C_12  and  N_13
REMARK    7  A    between atoms: C_14  and  C_16
REMARK    8  A    between atoms: C_18  and  N_30
REMARK    9  A    between atoms: C_21  and  S_22
REMARK   10  A    between atoms: S_22  and  C_23
REMARK                            x       y       z     vdW  Elec       q    Type
REMARK                         _______ _______ _______ _____ _____    ______ ____
ROOT
ATOM      1  N   UNL     1      -1.406   2.944   1.361  0.00  0.00    -0.303 N 
ATOM      2  C   UNL     1      -2.416   3.806   1.591  0.00  0.00    +0.246 C 
ATOM      3  O   UNL     1      -3.461   3.697   0.978  0.00  0.00    -0.270 OA
ATOM      4  H   UNL     1      -0.573   3.031   1.850  0.00  0.00    +0.150 HD
ENDROOT
BRANCH   2   5
ATOM      5  C   UNL     1      -2.254   4.882   2.586  0.00  0.00    +0.053 A 
ATOM      6  C   UNL     1      -1.056   5.012   3.293  0.00  0.00    +0.047 A 
ATOM      7  C   UNL     1      -0.910   6.019   4.221  0.00  0.00    +0.127 A 
ATOM      8  C   UNL     1      -1.948   6.907   4.459  0.00  0.00    +0.034 A 
ATOM      9  C   UNL     1      -3.137   6.793   3.770  0.00  0.00    +0.018 A 
ATOM     10  C   UNL     1      -3.301   5.787   2.825  0.00  0.00    +0.025 A 
BRANCH   7  11
ATOM     11  N   UNL     1       0.360   6.154   4.968  0.00  0.00    +0.056 N 
ATOM     12  O   UNL     1       1.274   5.375   4.761  0.00  0.00    -0.126 OA
ATOM     13  O   UNL     1       0.492   7.043   5.790  0.00  0.00    -0.126 OA
ENDBRANCH   7  11
BRANCH  10  14
ATOM     14  S   UNL     1      -4.816   5.643   1.937  0.00  0.00    -0.089 S 
BRANCH  14  15
ATOM     15  C   UNL     1      -4.442   6.300   0.346  0.00  0.00    +0.013 A 
ATOM     16  C   UNL     1      -3.159   6.754   0.064  0.00  0.00    +0.016 A 
ATOM     17  C   UNL     1      -2.867   7.263  -1.186  0.00  0.00    +0.021 A 
ATOM     18  C   UNL     1      -3.853   7.330  -2.155  0.00  0.00    +0.041 A 
ATOM     19  C   UNL     1      -5.133   6.884  -1.875  0.00  0.00    +0.021 A 
ATOM     20  C   UNL     1      -5.430   6.369  -0.629  0.00  0.00    +0.016 A 
ATOM     21 CL   UNL     1      -3.484   7.976  -3.723  0.00  0.00    -0.084 Cl
ENDBRANCH  14  15
ENDBRANCH  10  14
ENDBRANCH   2   5
BRANCH   1  22
ATOM     22  C   UNL     1      -1.567   1.875   0.372  0.00  0.00    +0.200 C 
BRANCH  22  24
ATOM     23  N   UNL     1      -0.220   0.011  -0.540  0.00  0.00    -0.284 N 
ATOM     24  C   UNL     1      -0.303   1.057   0.307  0.00  0.00    +0.234 C 
ATOM     25  O   UNL     1       0.641   1.342   1.012  0.00  0.00    -0.274 OA
ATOM     26  H   UNL     1      -0.997  -0.260  -1.053  0.00  0.00    +0.155 HD
BRANCH  23  31
ATOM     27  C   UNL     1       4.675  -2.800  -1.106  0.00  0.00    +0.044 C 
ATOM     28  C   UNL     1       3.374  -2.053  -0.956  0.00  0.00    -0.050 A 
ATOM     29  C   UNL     1       2.207  -2.747  -0.695  0.00  0.00    +0.008 A 
ATOM     30  C   UNL     1       1.014  -2.065  -0.557  0.00  0.00    -0.029 A 
ATOM     31  C   UNL     1       0.987  -0.682  -0.679  0.00  0.00    +0.039 A 
ATOM     32  C   UNL     1       2.161   0.011  -0.946  0.00  0.00    -0.029 A 
ATOM     33  C   UNL     1       3.352  -0.676  -1.078  0.00  0.00    +0.008 A 
ATOM     34  C   UNL     1       2.136   1.511  -1.085  0.00  0.00    +0.045 C 
ATOM     35  C   UNL     1      -0.259  -2.821  -0.273  0.00  0.00    +0.045 C 
ENDBRANCH  23  31
ENDBRANCH  22  24
ENDBRANCH   1  22
TORSDOF 7
