REMARK  Name = ZINC03311418
REMARK  4 active torsions:
REMARK  status: ('A' for Active; 'I' for Inactive)
REMARK    1  A    between atoms: C_10  and  N_12
REMARK    2  A    between atoms: C_13  and  C_15
REMARK    3  A    between atoms: C_15  and  O_16
REMARK    4  A    between atoms: O_16  and  N_17
REMARK                            x       y       z     vdW  Elec       q    Type
REMARK                         _______ _______ _______ _____ _____    ______ ____
ROOT
ATOM      1  C   UNL     1      -1.720   7.377  -1.361  0.00  0.00    +0.358 C 
ENDROOT
BRANCH   1   3
ATOM      2  N   UNL     1      -2.411   5.059  -0.843  0.00  0.00    -0.306 N 
ATOM      3  C   UNL     1      -1.838   6.204  -0.422  0.00  0.00    +0.254 C 
ATOM      4  O   UNL     1      -1.416   6.290   0.712  0.00  0.00    -0.272 OA
ATOM      5  H   UNL     1      -2.748   4.989  -1.750  0.00  0.00    +0.149 HD
BRANCH   2  15
ATOM      6  C   UNL     1       1.176   1.776   0.000  0.00  0.00    +0.000 A 
ATOM      7  C   UNL     1       1.158   3.159   0.007  0.00  0.00    +0.000 A 
ATOM      8  C   UNL     1      -0.048   3.828   0.024  0.00  0.00    +0.006 A 
ATOM      9  C   UNL     1      -1.246   3.125   0.036  0.00  0.00    -0.024 A 
ATOM     10  C   UNL     1      -1.228   1.748   0.017  0.00  0.00    -0.042 A 
ATOM     11  C   UNL     1      -0.013   1.076   0.008  0.00  0.00    +0.004 A 
ATOM     12  C   UNL     1      -2.487   0.921   0.006  0.00  0.00    +0.035 C 
ATOM     13  C   UNL     1      -3.683   1.759   0.454  0.00  0.00    +0.007 C 
ATOM     14  C   UNL     1      -3.706   3.050  -0.372  0.00  0.00    +0.027 C 
ATOM     15  C   UNL     1      -2.525   3.919   0.070  0.00  0.00    +0.104 C 
ENDBRANCH   2  15
ENDBRANCH   1   3
BRANCH   1  16
ATOM     16  O   UNL     1      -1.082   8.464  -0.688  0.00  0.00    -0.384 OA
BRANCH  16  17
ATOM     17  N   UNL     1      -0.922   9.621  -1.487  0.00  0.00    -0.083 NA
ATOM     18  C   UNL     1      -0.354  10.682  -0.990  0.00  0.00    +0.118 C 
ATOM     19  C   UNL     1       0.170  10.838   0.388  0.00  0.00    +0.012 A 
ATOM     20  C   UNL     1       0.223   9.970   1.473  0.00  0.00    +0.011 A 
ATOM     21  C   UNL     1       0.788  10.389   2.663  0.00  0.00    +0.001 A 
ATOM     22  C   UNL     1       1.306  11.667   2.778  0.00  0.00    +0.001 A 
ATOM     23  C   UNL     1       1.265  12.538   1.707  0.00  0.00    +0.009 A 
ATOM     24  C   UNL     1       0.700  12.133   0.501  0.00  0.00    -0.008 A 
ATOM     25  C   UNL     1       0.520  12.835  -0.791  0.00  0.00    -0.008 A 
ATOM     26  C   UNL     1      -0.114  11.965  -1.692  0.00  0.00    +0.012 A 
ATOM     27  C   UNL     1      -0.396  12.392  -2.986  0.00  0.00    +0.011 A 
ATOM     28  C   UNL     1      -0.051  13.671  -3.380  0.00  0.00    +0.001 A 
ATOM     29  C   UNL     1       0.574  14.530  -2.493  0.00  0.00    +0.001 A 
ATOM     30  C   UNL     1       0.861  14.120  -1.205  0.00  0.00    +0.009 A 
ENDBRANCH  16  17
ENDBRANCH   1  16
TORSDOF 4
