REMARK  Name = ZINC20590328
REMARK  8 active torsions:
REMARK  status: ('A' for Active; 'I' for Inactive)
REMARK    1  A    between atoms: C_1  and  C_2
REMARK    2  A    between atoms: C_6  and  O_36
REMARK    3  A    between atoms: C_7  and  O_35
REMARK    4  A    between atoms: C_12  and  C_13
REMARK    5  A    between atoms: C_13  and  C_14
REMARK    6  A    between atoms: N_19  and  C_22
REMARK    7  A    between atoms: C_22  and  C_23
REMARK    8  A    between atoms: C_22  and  C_29
REMARK                            x       y       z     vdW  Elec       q    Type
REMARK                         _______ _______ _______ _____ _____    ______ ____
ROOT
ATOM      1  C   UNL     1       0.441   3.832   1.555  0.00  0.00    +0.220 C 
ATOM      2  O   UNL     1       0.523   3.101   2.519  0.00  0.00    -0.275 OA
ATOM      3  N   UNL     1       0.559   5.166   1.710  0.00  0.00    -0.299 N 
ATOM      4  C   UNL     1       0.470   6.071   0.554  0.00  0.00    +0.123 C 
ATOM      5  C   UNL     1      -0.558   7.167   0.878  0.00  0.00    +0.104 C 
ATOM      6  N   UNL     1      -0.193   7.814   2.146  0.00  0.00    -0.289 NA
ATOM      7  C   UNL     1      -0.247   6.863   3.264  0.00  0.00    +0.104 C 
ATOM      8  C   UNL     1       0.788   5.755   3.038  0.00  0.00    +0.123 C 
ENDROOT
BRANCH   1   9
ATOM      9  C   UNL     1       0.208   3.251   0.185  0.00  0.00    +0.138 C 
BRANCH   9  21
ATOM     10  C   UNL     1       2.579   1.621  -0.061  0.00  0.00    +0.045 C 
ATOM     11  C   UNL     1       1.231   0.988   0.170  0.00  0.00    -0.029 A 
ATOM     12  C   UNL     1       1.092  -0.467   0.274  0.00  0.00    +0.025 A 
ATOM     13  C   UNL     1       2.205  -1.307   0.162  0.00  0.00    +0.015 A 
ATOM     14  C   UNL     1       2.049  -2.660   0.263  0.00  0.00    +0.050 A 
ATOM     15  C   UNL     1       0.789  -3.211   0.476  0.00  0.00    +0.162 A 
ATOM     16  C   UNL     1      -0.328  -2.394   0.590  0.00  0.00    +0.202 A 
ATOM     17  C   UNL     1      -0.186  -1.014   0.489  0.00  0.00    +0.184 A 
ATOM     18  O   UNL     1      -1.258  -0.200   0.597  0.00  0.00    -0.418 OA
ATOM     19  C   UNL     1      -1.137   1.133   0.502  0.00  0.00    +0.341 A 
ATOM     20  O   UNL     1      -2.132   1.828   0.599  0.00  0.00    -0.245 OA
ATOM     21  C   UNL     1       0.113   1.750   0.286  0.00  0.00    +0.049 A 
BRANCH  16  22
ATOM     22  O   UNL     1      -1.557  -2.941   0.798  0.00  0.00    -0.501 OA
ATOM     23  H   UNL     1      -2.440  -2.291   0.888  0.00  0.00    +0.292 HD
ENDBRANCH  16  22
BRANCH  15  24
ATOM     24  O   UNL     1       0.651  -4.559   0.574  0.00  0.00    -0.503 OA
ATOM     25  H   UNL     1      -0.343  -4.999   0.743  0.00  0.00    +0.292 HD
ENDBRANCH  15  24
ENDBRANCH   9  21
ENDBRANCH   1   9
BRANCH   6  26
ATOM     26  C   UNL     1      -1.046   8.981   2.406  0.00  0.00    +0.117 C 
BRANCH  26  27
ATOM     27  C   UNL     1      -0.620   9.637   3.694  0.00  0.00    -0.026 A 
ATOM     28  C   UNL     1       0.723   9.824   3.964  0.00  0.00    +0.005 A 
ATOM     29  C   UNL     1       1.113  10.430   5.143  0.00  0.00    +0.000 A 
ATOM     30  C   UNL     1       0.161  10.840   6.057  0.00  0.00    +0.000 A 
ATOM     31  C   UNL     1      -1.182  10.649   5.790  0.00  0.00    +0.000 A 
ATOM     32  C   UNL     1      -1.572  10.047   4.608  0.00  0.00    +0.005 A 
ENDBRANCH  26  27
BRANCH  26  33
ATOM     33  C   UNL     1      -0.910   9.965   1.272  0.00  0.00    -0.026 A 
ATOM     34  C   UNL     1       0.340  10.267   0.765  0.00  0.00    +0.005 A 
ATOM     35  C   UNL     1       0.464  11.166  -0.278  0.00  0.00    +0.000 A 
ATOM     36  C   UNL     1      -0.661  11.770  -0.807  0.00  0.00    +0.000 A 
ATOM     37  C   UNL     1      -1.911  11.472  -0.297  0.00  0.00    +0.000 A 
ATOM     38  C   UNL     1      -2.035  10.569   0.743  0.00  0.00    +0.005 A 
ENDBRANCH  26  33
ENDBRANCH   6  26
TORSDOF 7
