REMARK  Name = ZINC03295779
REMARK  9 active torsions:
REMARK  status: ('A' for Active; 'I' for Inactive)
REMARK    1  A    between atoms: C_1  and  C_2
REMARK    2  A    between atoms: C_2  and  C_3
REMARK    3  A    between atoms: C_7  and  C_27
REMARK    4  A    between atoms: C_8  and  N_9
REMARK    5  A    between atoms: C_10  and  C_12
REMARK    6  A    between atoms: C_12  and  S_13
REMARK    7  A    between atoms: S_13  and  C_14
REMARK    8  A    between atoms: C_17  and  C_20
REMARK    9  A    between atoms: N_18  and  N_19
REMARK                            x       y       z     vdW  Elec       q    Type
REMARK                         _______ _______ _______ _____ _____    ______ ____
ROOT
ATOM      1  S   UNL     1      -1.335  -3.908  -1.516  0.00  0.00    -0.075 S 
ENDROOT
BRANCH   1   2
ATOM      2  C   UNL     1      -0.491  -2.361  -1.528  0.00  0.00    +0.209 A 
ATOM      3  N   UNL     1       0.699  -2.119  -1.027  0.00  0.00    -0.121 NA
ATOM      4  N   UNL     1       1.014  -0.887  -1.213  0.00  0.00    -0.127 NA
ATOM      5  C   UNL     1       0.040  -0.265  -1.837  0.00  0.00    +0.182 A 
ATOM      6  N   UNL     1      -0.952  -1.191  -2.061  0.00  0.00    -0.224 N 
BRANCH   5   7
ATOM      7  C   UNL     1       0.017   1.160  -2.230  0.00  0.00    +0.021 A 
ATOM      8  C   UNL     1      -0.918   1.615  -3.160  0.00  0.00    +0.013 A 
ATOM      9  C   UNL     1      -0.939   2.947  -3.519  0.00  0.00    +0.021 A 
ATOM     10  C   UNL     1      -0.026   3.830  -2.966  0.00  0.00    +0.041 A 
ATOM     11  C   UNL     1       0.909   3.383  -2.047  0.00  0.00    +0.021 A 
ATOM     12  C   UNL     1       0.935   2.054  -1.677  0.00  0.00    +0.013 A 
ATOM     13 CL   UNL     1      -0.053   5.503  -3.428  0.00  0.00    -0.084 Cl
ENDBRANCH   5   7
BRANCH   6  14
ATOM     14  N   UNL     1      -2.149  -0.984  -2.686  0.00  0.00    -0.295 N 
ATOM     15  H   UNL     1      -2.072  -1.151  -3.679  0.00  0.00    +0.163 HD
ATOM     16  H   UNL     1      -2.873  -1.555  -2.279  0.00  0.00    +0.163 HD
ENDBRANCH   6  14
ENDBRANCH   1   2
BRANCH   1  17
ATOM     17  C   UNL     1      -0.109  -4.928  -0.659  0.00  0.00    +0.173 C 
BRANCH  17  19
ATOM     18  N   UNL     1       0.119  -7.278   0.078  0.00  0.00    -0.284 N 
ATOM     19  C   UNL     1      -0.629  -6.336  -0.530  0.00  0.00    +0.228 C 
ATOM     20  O   UNL     1      -1.722  -6.622  -0.974  0.00  0.00    -0.275 OA
ATOM     21  H   UNL     1       1.013  -7.063   0.386  0.00  0.00    +0.155 HD
BRANCH  18  27
ATOM     22  C   UNL     1       0.332  -9.673  -0.154  0.00  0.00    -0.026 A 
ATOM     23  C   UNL     1      -0.178 -10.943   0.032  0.00  0.00    +0.005 A 
ATOM     24  C   UNL     1      -1.410 -11.113   0.635  0.00  0.00    +0.001 A 
ATOM     25  C   UNL     1      -2.136 -10.013   1.054  0.00  0.00    +0.005 A 
ATOM     26  C   UNL     1      -1.630  -8.741   0.876  0.00  0.00    -0.029 A 
ATOM     27  C   UNL     1      -0.395  -8.566   0.265  0.00  0.00    +0.040 A 
ATOM     28  C   UNL     1      -2.419  -7.543   1.339  0.00  0.00    +0.045 C 
BRANCH  22  30
ATOM     29  C   UNL     1       2.757  -9.368   0.262  0.00  0.00    +0.009 C 
ATOM     30  C   UNL     1       1.675  -9.488  -0.812  0.00  0.00    +0.033 C 
ENDBRANCH  22  30
ENDBRANCH  18  27
ENDBRANCH  17  19
ENDBRANCH   1  17
TORSDOF 7
