REMARK  Name = ZINC20866729
REMARK  10 active torsions:
REMARK  status: ('A' for Active; 'I' for Inactive)
REMARK    1  A    between atoms: C_1  and  C_2
REMARK    2  A    between atoms: N_6  and  C_32
REMARK    3  A    between atoms: C_10  and  C_31
REMARK    4  A    between atoms: N_11  and  C_12
REMARK    5  A    between atoms: C_12  and  C_14
REMARK    6  A    between atoms: C_12  and  C_15
REMARK    7  A    between atoms: N_17  and  C_18
REMARK    8  A    between atoms: C_18  and  C_19
REMARK    9  A    between atoms: C_19  and  C_20
REMARK   10  A    between atoms: C_20  and  N_21
REMARK                            x       y       z     vdW  Elec       q    Type
REMARK                         _______ _______ _______ _____ _____    ______ ____
ROOT
ATOM      1  C   UNL     1       1.658  -1.806  -0.542  0.00  0.00    +0.170 C 
ATOM      2  C   UNL     1       0.825  -2.444  -1.655  0.00  0.00    +0.041 C 
ENDROOT
BRANCH   1  13
ATOM      3  C   UNL     1      -1.181  -0.907   0.219  0.00  0.00    +0.064 C 
ATOM      4  C   UNL     1      -0.002  -0.003  -0.032  0.00  0.00    +0.026 A 
ATOM      5  C   UNL     1      -0.012   1.350   0.040  0.00  0.00    +0.028 A 
ATOM      6  C   UNL     1      -1.002   2.385   0.348  0.00  0.00    +0.143 A 
ATOM      7  N   UNL     1      -0.656   3.637   0.321  0.00  0.00    -0.171 NA
ATOM      8  N   UNL     1       0.632   4.073   0.019  0.00  0.00    -0.196 N 
ATOM      9  C   UNL     1       1.638   3.225  -0.278  0.00  0.00    +0.281 A 
ATOM     10  O   UNL     1       2.751   3.647  -0.536  0.00  0.00    -0.265 OA
ATOM     11  C   UNL     1       1.365   1.786  -0.284  0.00  0.00    +0.071 A 
ATOM     12  C   UNL     1       2.074   0.653  -0.520  0.00  0.00    +0.030 A 
ATOM     13  N   UNL     1       1.253  -0.408  -0.368  0.00  0.00    -0.335 N 
ATOM     14  C   UNL     1       3.533   0.589  -0.891  0.00  0.00    +0.064 C 
BRANCH   8  15
ATOM     15  C   UNL     1       0.893   5.448   0.025  0.00  0.00    +0.069 A 
ATOM     16  C   UNL     1       1.993   5.944   0.711  0.00  0.00    +0.028 A 
ATOM     17  C   UNL     1       2.251   7.301   0.710  0.00  0.00    +0.002 A 
ATOM     18  C   UNL     1       1.409   8.166   0.036  0.00  0.00    +0.000 A 
ATOM     19  C   UNL     1       0.309   7.675  -0.644  0.00  0.00    +0.002 A 
ATOM     20  C   UNL     1       0.048   6.319  -0.651  0.00  0.00    +0.028 A 
ENDBRANCH   8  15
ENDBRANCH   1  13
BRANCH   1  21
ATOM     21  C   UNL     1       1.436  -2.557   0.746  0.00  0.00    +0.236 C 
ATOM     22  O   UNL     1       0.984  -1.982   1.713  0.00  0.00    -0.274 OA
ATOM     23  N   UNL     1       1.740  -3.868   0.822  0.00  0.00    -0.314 N 
ATOM     24  H   UNL     1       2.150  -4.389  -0.055  0.00  0.00    +0.149 HD
BRANCH  23  25
ATOM     25  C   UNL     1       1.524  -4.598   2.074  0.00  0.00    +0.102 C 
BRANCH  25  26
ATOM     26  C   UNL     1       1.947  -6.057   1.892  0.00  0.00    +0.000 C 
BRANCH  26  27
ATOM     27  C   UNL     1       1.721  -6.819   3.199  0.00  0.00    -0.077 C 
BRANCH  27  28
ATOM     28  N   UNL     1       2.127  -8.220   3.025  0.00  0.00    +0.383 N 
ATOM     29  C   UNL     1       2.150  -8.927   4.316  0.00  0.00    -0.074 C 
ATOM     30  C   UNL     1       2.213 -10.430   4.045  0.00  0.00    +0.017 C 
ATOM     31  C   UNL     1       3.321 -10.732   3.069  0.00  0.00    -0.048 A 
ATOM     32  C   UNL     1       3.771 -12.039   2.962  0.00  0.00    +0.004 A 
ATOM     33  C   UNL     1       4.781 -12.359   2.077  0.00  0.00    +0.000 A 
ATOM     34  C   UNL     1       5.347 -11.371   1.294  0.00  0.00    +0.000 A 
ATOM     35  C   UNL     1       4.902 -10.069   1.401  0.00  0.00    +0.002 A 
ATOM     36  C   UNL     1       3.887  -9.746   2.290  0.00  0.00    -0.061 A 
ATOM     37  C   UNL     1       3.438  -8.310   2.374  0.00  0.00    -0.043 C 
ATOM     38  H   UNL     1       1.385  -8.704   2.374  0.00  0.00    -0.081 HD
ENDBRANCH  27  28
ENDBRANCH  26  27
ENDBRANCH  25  26
ENDBRANCH  23  25
ENDBRANCH   1  21
TORSDOF 7
