REMARK  Name = ZINC18248285
REMARK  9 active torsions:
REMARK  status: ('A' for Active; 'I' for Inactive)
REMARK    1  A    between atoms: C_6  and  N_11
REMARK    2  A    between atoms: C_12  and  C_14
REMARK    3  A    between atoms: C_14  and  O_15
REMARK    4  A    between atoms: O_15  and  C_16
REMARK    5  A    between atoms: C_16  and  C_18
REMARK    6  A    between atoms: C_18  and  C_20
REMARK    7  A    between atoms: C_18  and  N_31
REMARK    8  A    between atoms: C_20  and  C_21
REMARK    9  A    between atoms: C_32  and  C_34
REMARK                            x       y       z     vdW  Elec       q    Type
REMARK                         _______ _______ _______ _____ _____    ______ ____
ROOT
ATOM      1  C   UNL     1      -5.063   1.136  -0.307  0.00  0.00    +0.186 C 
ENDROOT
BRANCH   1   2
ATOM      2  N   UNL     1      -3.712   1.698  -0.376  0.00  0.00    -0.298 N 
ATOM      3  C   UNL     1      -2.639   0.891  -0.254  0.00  0.00    +0.251 C 
ATOM      4  O   UNL     1      -2.794  -0.305  -0.087  0.00  0.00    -0.270 OA
ATOM      5  H   UNL     1      -3.589   2.651  -0.509  0.00  0.00    +0.150 HD
BRANCH   3   6
ATOM      6  C   UNL     1      -1.288   1.453  -0.324  0.00  0.00    +0.074 A 
ATOM      7  C   UNL     1      -0.066   0.805  -0.224  0.00  0.00    +0.021 A 
ATOM      8  C   UNL     1       1.062   1.579  -0.330  0.00  0.00    +0.008 A 
ATOM      9  C   UNL     1       0.933   2.919  -0.519  0.00  0.00    +0.046 A 
ATOM     10  S   UNL     1      -0.785   3.149  -0.556  0.00  0.00    -0.092 S 
ENDBRANCH   3   6
ENDBRANCH   1   2
BRANCH   1  11
ATOM     11  C   UNL     1      -5.261   0.466   1.029  0.00  0.00    +0.328 C 
ATOM     12  O   UNL     1      -4.303   0.135   1.686  0.00  0.00    -0.249 OA
BRANCH  11  13
ATOM     13  O   UNL     1      -6.502   0.237   1.488  0.00  0.00    -0.454 OA
BRANCH  13  14
ATOM     14  C   UNL     1      -6.617  -0.412   2.781  0.00  0.00    +0.328 C 
BRANCH  14  16
ATOM     15  N   UNL     1      -8.423  -1.168   4.292  0.00  0.00    -0.283 N 
ATOM     16  C   UNL     1      -8.073  -0.585   3.129  0.00  0.00    +0.255 C 
ATOM     17  O   UNL     1      -8.929  -0.199   2.362  0.00  0.00    -0.272 OA
ATOM     18  H   UNL     1      -7.742  -1.546   4.870  0.00  0.00    +0.155 HD
BRANCH  15  24
ATOM     19  C   UNL     1     -14.261  -2.446   6.471  0.00  0.00    +0.001 A 
ATOM     20  C   UNL     1     -13.406  -3.487   6.827  0.00  0.00    +0.001 A 
ATOM     21  C   UNL     1     -12.090  -3.463   6.480  0.00  0.00    +0.008 A 
ATOM     22  C   UNL     1     -11.582  -2.373   5.752  0.00  0.00    -0.016 A 
ATOM     23  C   UNL     1     -10.230  -2.315   5.378  0.00  0.00    +0.031 A 
ATOM     24  C   UNL     1      -9.770  -1.230   4.666  0.00  0.00    +0.034 A 
ATOM     25  C   UNL     1     -10.634  -0.185   4.317  0.00  0.00    +0.024 A 
ATOM     26  C   UNL     1     -11.948  -0.221   4.662  0.00  0.00    +0.010 A 
ATOM     27  C   UNL     1     -12.452  -1.313   5.390  0.00  0.00    -0.018 A 
ATOM     28  C   UNL     1     -13.805  -1.374   5.766  0.00  0.00    +0.008 A 
ENDBRANCH  15  24
ENDBRANCH  14  16
ENDBRANCH  13  14
ENDBRANCH  11  13
ENDBRANCH   1  11
BRANCH   1  29
ATOM     29  C   UNL     1      -5.246   0.108  -1.425  0.00  0.00    +0.071 C 
BRANCH  29  30
ATOM     30  C   UNL     1      -5.170   0.801  -2.761  0.00  0.00    -0.020 A 
ATOM     31  C   UNL     1      -6.206   1.249  -3.489  0.00  0.00    +0.087 A 
ATOM     32  N   UNL     1      -5.751   1.823  -4.644  0.00  0.00    -0.360 N 
ATOM     33  H   UNL     1      -6.313   2.217  -5.329  0.00  0.00    +0.165 HD
ATOM     34  C   UNL     1      -4.376   1.757  -4.690  0.00  0.00    +0.047 A 
ATOM     35  C   UNL     1      -3.952   1.119  -3.510  0.00  0.00    +0.003 A 
ATOM     36  C   UNL     1      -2.590   0.916  -3.279  0.00  0.00    +0.010 A 
ATOM     37  C   UNL     1      -1.675   1.342  -4.200  0.00  0.00    +0.001 A 
ATOM     38  C   UNL     1      -2.088   1.975  -5.364  0.00  0.00    +0.002 A 
ATOM     39  C   UNL     1      -3.427   2.178  -5.616  0.00  0.00    +0.026 A 
ENDBRANCH  29  30
ENDBRANCH   1  29
TORSDOF 9
