REMARK  Name = ZINC02349803
REMARK  5 active torsions:
REMARK  status: ('A' for Active; 'I' for Inactive)
REMARK    1  A    between atoms: C_4  and  N_8
REMARK    2  A    between atoms: C_9  and  C_11
REMARK    3  A    between atoms: C_11  and  N_12
REMARK    4  A    between atoms: C_15  and  C_18
REMARK    5  A    between atoms: C_15  and  N_21
REMARK                            x       y       z     vdW  Elec       q    Type
REMARK                         _______ _______ _______ _____ _____    ______ ____
ROOT
ATOM      1  N   UNL     1       4.782  -4.129   0.140  0.00  0.00    +0.385 N 
ATOM      2  C   UNL     1       4.137  -4.636  -1.078  0.00  0.00    -0.079 C 
ATOM      3  C   UNL     1       3.781  -6.113  -0.893  0.00  0.00    -0.022 C 
ATOM      4  C   UNL     1       5.059  -6.911  -0.620  0.00  0.00    +0.009 C 
ATOM      5  C   UNL     1       5.761  -6.326   0.609  0.00  0.00    -0.022 C 
ATOM      6  C   UNL     1       6.045  -4.841   0.368  0.00  0.00    -0.079 C 
ATOM      7  H   UNL     1       4.168  -4.273   0.927  0.00  0.00    -0.081 HD
ENDROOT
BRANCH   4   8
ATOM      8  N   UNL     1       4.716  -8.317  -0.366  0.00  0.00    +0.389 N 
ATOM      9  C   UNL     1       3.928  -8.837  -1.490  0.00  0.00    -0.077 C 
ATOM     10  C   UNL     1       3.499 -10.275  -1.195  0.00  0.00    -0.019 C 
ATOM     11  C   UNL     1       4.745 -11.144  -0.998  0.00  0.00    -0.004 C 
ATOM     12  C   UNL     1       5.597 -10.549   0.127  0.00  0.00    -0.019 C 
ATOM     13  C   UNL     1       5.948  -9.100  -0.217  0.00  0.00    -0.077 C 
ATOM     14  H   UNL     1       4.173  -8.381   0.481  0.00  0.00    -0.080 HD
ENDBRANCH   4   8
BRANCH   4  15
ATOM     15  C   UNL     1       5.974  -6.821  -1.814  0.00  0.00    +0.200 C 
ATOM     16  O   UNL     1       5.516  -6.592  -2.913  0.00  0.00    -0.278 OA
ATOM     17  N   UNL     1       7.302  -6.996  -1.660  0.00  0.00    -0.330 N 
ATOM     18  H   UNL     1       7.660  -7.251  -0.796  0.00  0.00    +0.145 HD
ATOM     19  H   UNL     1       7.898  -6.867  -2.414  0.00  0.00    +0.145 HD
ENDBRANCH   4  15
BRANCH   1  20
ATOM     20  C   UNL     1       5.051  -2.693  -0.013  0.00  0.00    +0.019 C 
BRANCH  20  22
ATOM     21  N   UNL     1       3.748  -0.607  -0.273  0.00  0.00    -0.286 N 
ATOM     22  C   UNL     1       3.747  -1.946  -0.125  0.00  0.00    +0.201 C 
ATOM     23  O   UNL     1       2.697  -2.551  -0.082  0.00  0.00    -0.278 OA
ATOM     24  H   UNL     1       4.587  -0.133  -0.391  0.00  0.00    +0.155 HD
BRANCH  21  28
ATOM     25  C   UNL     1       0.152   1.499  -0.227  0.00  0.00    +0.021 A 
ATOM     26  C   UNL     1       1.252   2.027  -0.877  0.00  0.00    +0.023 A 
ATOM     27  C   UNL     1       2.446   1.332  -0.894  0.00  0.00    +0.062 A 
ATOM     28  C   UNL     1       2.541   0.100  -0.257  0.00  0.00    +0.053 A 
ATOM     29  C   UNL     1       1.435  -0.427   0.395  0.00  0.00    +0.044 A 
ATOM     30  C   UNL     1       0.243   0.274   0.409  0.00  0.00    +0.043 A 
ATOM     31 CL   UNL     1      -1.141  -0.385   1.224  0.00  0.00    -0.083 Cl
ATOM     32 CL   UNL     1       3.826   1.996  -1.712  0.00  0.00    -0.082 Cl
ENDBRANCH  21  28
ENDBRANCH  20  22
ENDBRANCH   1  20
TORSDOF 5
