REMARK  Name = ZINC12710921
REMARK  6 active torsions:
REMARK  status: ('A' for Active; 'I' for Inactive)
REMARK    1  A    between atoms: C_4  and  C_7
REMARK    2  A    between atoms: C_7  and  C_8
REMARK    3  A    between atoms: C_8  and  N_9
REMARK    4  A    between atoms: N_9  and  C_10
REMARK    5  A    between atoms: C_10  and  C_11
REMARK    6  A    between atoms: N_28  and  C_29
REMARK                            x       y       z     vdW  Elec       q    Type
REMARK                         _______ _______ _______ _____ _____    ______ ____
ROOT
ATOM      1  N   UNL     1      -5.444   0.916   1.441  0.00  0.00    -0.281 N 
ATOM      2  C   UNL     1      -6.224   1.873   1.982  0.00  0.00    +0.307 C 
ATOM      3  O   UNL     1      -6.532   2.849   1.325  0.00  0.00    -0.252 OA
ATOM      4  N   UNL     1      -6.663   1.748   3.250  0.00  0.00    -0.268 N 
ATOM      5  H   UNL     1      -6.486   0.934   3.746  0.00  0.00    +0.156 HD
ENDROOT
BRANCH   4   6
ATOM      6  C   UNL     1      -7.374   2.794   3.850  0.00  0.00    +0.053 A 
ATOM      7  C   UNL     1      -7.204   4.098   3.403  0.00  0.00    +0.025 A 
ATOM      8  C   UNL     1      -7.910   5.127   3.995  0.00  0.00    +0.002 A 
ATOM      9  C   UNL     1      -8.778   4.862   5.039  0.00  0.00    +0.002 A 
ATOM     10  C   UNL     1      -8.945   3.567   5.491  0.00  0.00    +0.022 A 
ATOM     11  C   UNL     1      -8.246   2.531   4.900  0.00  0.00    +0.062 A 
ATOM     12 CL   UNL     1      -8.456   0.904   5.468  0.00  0.00    -0.082 Cl
ENDBRANCH   4   6
BRANCH   1  13
ATOM     13  C   UNL     1      -5.073  -0.260   2.233  0.00  0.00    +0.114 C 
BRANCH  13  14
ATOM     14  C   UNL     1      -3.769   0.020   2.982  0.00  0.00    +0.054 C 
BRANCH  14  18
ATOM     15  C   UNL     1      -2.688  -3.408   5.290  0.00  0.00    +0.000 A 
ATOM     16  C   UNL     1      -2.238  -3.280   3.989  0.00  0.00    +0.000 A 
ATOM     17  C   UNL     1      -2.588  -2.171   3.242  0.00  0.00    +0.004 A 
ATOM     18  C   UNL     1      -3.388  -1.189   3.796  0.00  0.00    -0.046 A 
ATOM     19  C   UNL     1      -3.833  -1.314   5.099  0.00  0.00    +0.004 A 
ATOM     20  C   UNL     1      -3.488  -2.426   5.844  0.00  0.00    +0.000 A 
ENDBRANCH  14  18
ENDBRANCH  13  14
ENDBRANCH   1  13
BRANCH   1  21
ATOM     21  C   UNL     1      -4.967   1.051   0.063  0.00  0.00    +0.150 C 
BRANCH  21  22
ATOM     22  C   UNL     1      -3.646   1.777   0.057  0.00  0.00    +0.035 A 
ATOM     23  C   UNL     1      -2.487   1.071   0.047  0.00  0.00    +0.020 A 
ATOM     24  C   UNL     1      -1.222   1.804   0.037  0.00  0.00    +0.003 A 
ATOM     25  C   UNL     1       0.005   1.128   0.034  0.00  0.00    +0.059 A 
ATOM     26  C   UNL     1       1.180   1.846   0.029  0.00  0.00    +0.167 A 
ATOM     27  C   UNL     1       1.152   3.246   0.034  0.00  0.00    +0.168 A 
ATOM     28  C   UNL     1      -0.054   3.922   0.043  0.00  0.00    +0.075 A 
ATOM     29  C   UNL     1      -1.249   3.212   0.048  0.00  0.00    +0.053 A 
ATOM     30  N   UNL     1      -2.462   3.870   0.058  0.00  0.00    -0.322 N 
ATOM     31  H   UNL     1      -2.480   4.840   0.062  0.00  0.00    +0.169 HD
ATOM     32  C   UNL     1      -3.619   3.186   0.063  0.00  0.00    +0.254 A 
ATOM     33  O   UNL     1      -4.673   3.800   0.072  0.00  0.00    -0.268 OA
ATOM     34  O   UNL     1       2.437   3.704   0.027  0.00  0.00    -0.453 OA
ATOM     35  C   UNL     1       3.248   2.587   0.434  0.00  0.00    +0.466 C 
ATOM     36  O   UNL     1       2.484   1.438   0.021  0.00  0.00    -0.453 OA
ENDBRANCH  21  22
ENDBRANCH   1  21
TORSDOF 6
