REMARK  Name = ZINC39532129
REMARK  10 active torsions:
REMARK  status: ('A' for Active; 'I' for Inactive)
REMARK    1  A    between atoms: C_1  and  C_2
REMARK    2  A    between atoms: C_2  and  C_3
REMARK    3  A    between atoms: C_6  and  C_9
REMARK    4  A    between atoms: C_9  and  C_11
REMARK    5  A    between atoms: C_9  and  N_22
REMARK    6  A    between atoms: C_11  and  N_12
REMARK    7  A    between atoms: N_12  and  S_13
REMARK    8  A    between atoms: S_13  and  C_16
REMARK    9  A    between atoms: C_26  and  C_29
REMARK   10  A    between atoms: C_34  and  O_35
REMARK                            x       y       z     vdW  Elec       q    Type
REMARK                         _______ _______ _______ _____ _____    ______ ____
ROOT
ATOM      1  C   UNL     1       2.734  -1.755  -4.640  0.00  0.00    +0.102 C 
ENDROOT
BRANCH   1   2
ATOM      2  N   UNL     1       3.821  -2.621  -4.165  0.00  0.00    -0.297 NA
ATOM      3  C   UNL     1       4.691  -3.033  -5.275  0.00  0.00    +0.066 C 
ATOM      4  C   UNL     1       5.841  -3.883  -4.731  0.00  0.00    -0.066 C 
ATOM      5  N   UNL     1       5.297  -5.064  -4.049  0.00  0.00    +0.385 N 
ATOM      6  C   UNL     1       4.450  -4.638  -2.928  0.00  0.00    -0.023 C 
ATOM      7  C   UNL     1       3.288  -3.794  -3.457  0.00  0.00    +0.074 C 
ATOM      8  H   UNL     1       4.746  -5.604  -4.700  0.00  0.00    -0.085 HD
ATOM      9  H   UNL     1       6.056  -5.631  -3.701  0.00  0.00    -0.085 HD
BRANCH   6  10
ATOM     10  C   UNL     1       3.906  -5.852  -2.219  0.00  0.00    -0.019 A 
ATOM     11  C   UNL     1       3.881  -7.074  -2.862  0.00  0.00    +0.005 A 
ATOM     12  C   UNL     1       3.382  -8.188  -2.212  0.00  0.00    +0.000 A 
ATOM     13  C   UNL     1       2.908  -8.082  -0.917  0.00  0.00    +0.004 A 
ATOM     14  C   UNL     1       2.933  -6.862  -0.270  0.00  0.00    +0.045 A 
ATOM     15  C   UNL     1       3.437  -5.744  -0.918  0.00  0.00    +0.118 A 
BRANCH  15  16
ATOM     16  O   UNL     1       3.467  -4.544  -0.281  0.00  0.00    -0.507 OA
ATOM     17  H   UNL     1       2.668  -4.013  -0.403  0.00  0.00    +0.292 HD
ENDBRANCH  15  16
ENDBRANCH   6  10
ENDBRANCH   1   2
BRANCH   1  21
ATOM     18  C   UNL     1       0.399  -0.445  -1.312  0.00  0.00    -0.048 A 
ATOM     19  C   UNL     1      -0.221  -0.797  -2.496  0.00  0.00    +0.004 A 
ATOM     20  C   UNL     1       0.534  -1.220  -3.573  0.00  0.00    +0.005 A 
ATOM     21  C   UNL     1       1.911  -1.292  -3.466  0.00  0.00    -0.029 A 
ATOM     22  C   UNL     1       2.531  -0.940  -2.282  0.00  0.00    +0.005 A 
ATOM     23  C   UNL     1       1.776  -0.512  -1.207  0.00  0.00    +0.004 A 
BRANCH  18  25
ATOM     24  C   UNL     1      -0.602   1.535  -0.204  0.00  0.00    +0.009 C 
ATOM     25  C   UNL     1      -0.424   0.017  -0.137  0.00  0.00    +0.032 C 
ENDBRANCH  18  25
ENDBRANCH   1  21
BRANCH   1  26
ATOM     26  C   UNL     1       3.327  -0.540  -5.358  0.00  0.00    +0.129 C 
BRANCH  26  27
ATOM     27  N   UNL     1       2.244   0.284  -5.899  0.00  0.00    -0.188 NA
ATOM     28  H   UNL     1       1.351  -0.085  -5.986  0.00  0.00    +0.148 HD
BRANCH  27  29
ATOM     29  S   UNL     1       2.544   1.845  -6.364  0.00  0.00    +0.058 S 
ATOM     30  O   UNL     1       1.319   2.362  -6.864  0.00  0.00    -0.153 OA
ATOM     31  O   UNL     1       3.251   2.458  -5.295  0.00  0.00    -0.153 OA
BRANCH  29  32
ATOM     32  C   UNL     1       3.656   1.777  -7.729  0.00  0.00    +0.105 A 
ATOM     33  C   UNL     1       5.021   1.791  -7.510  0.00  0.00    +0.028 A 
ATOM     34  C   UNL     1       5.894   1.738  -8.581  0.00  0.00    +0.002 A 
ATOM     35  C   UNL     1       5.401   1.671  -9.871  0.00  0.00    +0.000 A 
ATOM     36  C   UNL     1       4.036   1.656 -10.090  0.00  0.00    +0.002 A 
ATOM     37  C   UNL     1       3.164   1.705  -9.019  0.00  0.00    +0.028 A 
ENDBRANCH  29  32
ENDBRANCH  27  29
ENDBRANCH  26  27
ENDBRANCH   1  26
TORSDOF 9
