REMARK  Name = ZINC07684673
REMARK  6 active torsions:
REMARK  status: ('A' for Active; 'I' for Inactive)
REMARK    1  A    between atoms: C_1  and  C_2
REMARK    2  A    between atoms: C_2  and  C_4
REMARK    3  A    between atoms: C_2  and  N_13
REMARK    4  A    between atoms: C_14  and  C_16
REMARK    5  A    between atoms: C_16  and  N_59
REMARK    6  A    between atoms: C_20  and  C_22
REMARK                            x       y       z     vdW  Elec       q    Type
REMARK                         _______ _______ _______ _____ _____    ______ ____
ROOT
ATOM      1  C   UNL     1       2.439   6.322  -5.592  0.00  0.00    -0.077 C 
ATOM      2  C   UNL     1       1.410   5.685  -6.549  0.00  0.00    -0.020 C 
ATOM      3  C   UNL     1       0.435   4.957  -5.584  0.00  0.00    -0.013 C 
ATOM      4  C   UNL     1       1.400   4.473  -4.473  0.00  0.00    -0.037 C 
ATOM      5  N   UNL     1       2.376   5.572  -4.327  0.00  0.00    +0.390 N 
ATOM      6  H   UNL     1       2.070   6.200  -3.574  0.00  0.00    -0.080 HD
ENDROOT
BRANCH   4   7
ATOM      7  C   UNL     1       0.653   4.270  -3.180  0.00  0.00    -0.057 A 
ATOM      8  C   UNL     1       0.297   5.363  -2.412  0.00  0.00    +0.006 A 
ATOM      9  C   UNL     1      -0.389   5.184  -1.223  0.00  0.00    +0.049 A 
ATOM     10  C   UNL     1      -0.719   3.906  -0.807  0.00  0.00    +0.162 A 
ATOM     11  C   UNL     1      -0.362   2.809  -1.579  0.00  0.00    +0.162 A 
ATOM     12  C   UNL     1       0.326   2.991  -2.767  0.00  0.00    +0.051 A 
ATOM     13  O   UNL     1      -0.692   1.553  -1.159  0.00  0.00    -0.488 OA
ATOM     14  C   UNL     1      -0.013   1.086   0.008  0.00  0.00    +0.232 C 
ATOM     15  C   UNL     1      -0.712   1.570   1.269  0.00  0.00    +0.082 C 
ATOM     16  C   UNL     1      -0.662   3.083   1.413  0.00  0.00    +0.232 C 
ATOM     17  O   UNL     1      -1.395   3.716   0.363  0.00  0.00    -0.488 OA
ENDBRANCH   4   7
BRANCH   5  18
ATOM     18  C   UNL     1       3.716   5.025  -3.987  0.00  0.00    +0.019 C 
BRANCH  18  20
ATOM     19  N   UNL     1       5.909   5.903  -3.256  0.00  0.00    -0.307 N 
ATOM     20  C   UNL     1       4.634   6.159  -3.610  0.00  0.00    +0.197 C 
ATOM     21  O   UNL     1       4.226   7.301  -3.625  0.00  0.00    -0.278 OA
ATOM     22  H   UNL     1       6.236   4.990  -3.244  0.00  0.00    +0.149 HD
BRANCH  19  24
ATOM     23  C   UNL     1       7.426   7.599  -4.154  0.00  0.00    +0.036 C 
ATOM     24  C   UNL     1       6.802   7.005  -2.889  0.00  0.00    +0.136 C 
BRANCH  24  25
ATOM     25  C   UNL     1       7.892   6.489  -1.986  0.00  0.00    +0.126 A 
ATOM     26  C   UNL     1       8.374   7.138  -0.917  0.00  0.00    +0.055 A 
ATOM     27  C   UNL     1       9.410   6.271  -0.344  0.00  0.00    +0.020 A 
ATOM     28  C   UNL     1      10.267   6.368   0.751  0.00  0.00    +0.011 A 
ATOM     29  C   UNL     1      11.142   5.352   1.019  0.00  0.00    +0.001 A 
ATOM     30  C   UNL     1      11.182   4.226   0.208  0.00  0.00    +0.004 A 
ATOM     31  C   UNL     1      10.342   4.113  -0.879  0.00  0.00    +0.047 A 
ATOM     32  C   UNL     1       9.446   5.134  -1.169  0.00  0.00    +0.135 A 
ATOM     33  O   UNL     1       8.518   5.309  -2.132  0.00  0.00    -0.458 OA
ENDBRANCH  24  25
ENDBRANCH  19  24
ENDBRANCH  18  20
ENDBRANCH   5  18
TORSDOF 5
