REMARK  Name = ZINC02770792
REMARK  4 active torsions:
REMARK  status: ('A' for Active; 'I' for Inactive)
REMARK    1  A    between atoms: C_1  and  C_2
REMARK    2  A    between atoms: C_5  and  C_8
REMARK    3  A    between atoms: C_11  and  C_21
REMARK    4  A    between atoms: C_15  and  C_18
REMARK                            x       y       z     vdW  Elec       q    Type
REMARK                         _______ _______ _______ _____ _____    ______ ____
ROOT
ATOM      1  C   UNL     1       0.059  -4.275  -0.021  0.00  0.00    +0.104 C 
ATOM      2  C   UNL     1      -1.352  -4.810   0.244  0.00  0.00    +0.063 C 
ATOM      3  C   UNL     1      -1.348  -6.342   0.182  0.00  0.00    +0.215 C 
ATOM      4  N   UNL     1      -0.255  -6.847   1.018  0.00  0.00    -0.238 N 
ATOM      5  C   UNL     1       0.802  -6.094   1.408  0.00  0.00    +0.136 A 
ATOM      6  C   UNL     1       1.622  -6.894   2.180  0.00  0.00    +0.111 A 
ATOM      7  C   UNL     1       1.011  -8.171   2.239  0.00  0.00    +0.155 A 
ATOM      8  N   UNL     1      -0.097  -8.127   1.548  0.00  0.00    -0.176 NA
ATOM      9  N   UNL     1       0.958  -4.766   1.042  0.00  0.00    -0.321 N 
ATOM     10  H   UNL     1       1.616  -4.191   1.463  0.00  0.00    +0.148 HD
ENDROOT
BRANCH   1  15
ATOM     11  C   UNL     1      -0.018   1.503   0.010  0.00  0.00    +0.044 C 
ATOM     12  C   UNL     1       0.002  -0.004   0.002  0.00  0.00    -0.050 A 
ATOM     13  C   UNL     1       0.006  -0.689  -1.199  0.00  0.00    +0.004 A 
ATOM     14  C   UNL     1       0.025  -2.071  -1.206  0.00  0.00    +0.006 A 
ATOM     15  C   UNL     1       0.040  -2.768  -0.013  0.00  0.00    -0.027 A 
ATOM     16  C   UNL     1       0.037  -2.084   1.188  0.00  0.00    +0.006 A 
ATOM     17  C   UNL     1       0.023  -0.702   1.195  0.00  0.00    +0.004 A 
ENDBRANCH   1  15
BRANCH   3  18
ATOM     18  C   UNL     1      -2.684  -6.880   0.699  0.00  0.00    +0.412 C 
ATOM     19  F   UNL     1      -3.724  -6.385  -0.094  0.00  0.00    -0.168 F 
ATOM     20  F   UNL     1      -2.678  -8.277   0.641  0.00  0.00    -0.168 F 
ATOM     21  F   UNL     1      -2.871  -6.468   2.023  0.00  0.00    -0.168 F 
ENDBRANCH   3  18
BRANCH   6  22
ATOM     22  C   UNL     1       2.853  -6.507   2.801  0.00  0.00    +0.104 C 
ATOM     23  N   UNL     1       3.830  -6.200   3.294  0.00  0.00    -0.191 NA
ENDBRANCH   6  22
TORSDOF 3
