REMARK  Name = ZINC08992786
REMARK  3 active torsions:
REMARK  status: ('A' for Active; 'I' for Inactive)
REMARK    1  A    between atoms: C_9  and  C_11
REMARK    2  A    between atoms: C_17  and  C_19
REMARK    3  A    between atoms: C_20  and  C_21
REMARK                            x       y       z     vdW  Elec       q    Type
REMARK                         _______ _______ _______ _____ _____    ______ ____
ROOT
ATOM      1  C   UNL     1      -2.688   8.223  -0.707  0.00  0.00    +0.058 C 
ATOM      2  C   UNL     1      -3.930   7.336  -0.815  0.00  0.00    +0.030 C 
ATOM      3  C   UNL     1      -3.876   6.254   0.268  0.00  0.00    +0.109 C 
ATOM      4  N   UNL     1      -2.604   5.528   0.146  0.00  0.00    -0.298 N 
ATOM      5  C   UNL     1      -1.350   6.293   0.152  0.00  0.00    +0.109 C 
ATOM      6  C   UNL     1      -1.433   7.376  -0.934  0.00  0.00    +0.030 C 
ATOM      7  C   UNL     1      -2.588   4.184   0.037  0.00  0.00    +0.239 C 
ATOM      8  O   UNL     1      -3.634   3.569  -0.058  0.00  0.00    -0.271 OA
ENDROOT
BRANCH   1  17
ATOM      9  C   UNL     1      -2.705  12.161  -5.267  0.00  0.00    +0.002 A 
ATOM     10  C   UNL     1      -3.257  12.994  -4.304  0.00  0.00    +0.002 A 
ATOM     11  C   UNL     1      -3.470  12.544  -3.033  0.00  0.00    +0.030 A 
ATOM     12  C   UNL     1      -3.129  11.232  -2.692  0.00  0.00    +0.089 A 
ATOM     13  C   UNL     1      -2.568  10.389  -3.666  0.00  0.00    +0.066 A 
ATOM     14  C   UNL     1      -2.360  10.864  -4.954  0.00  0.00    +0.028 A 
ATOM     15  N   UNL     1      -2.338   9.181  -3.038  0.00  0.00    -0.342 N 
ATOM     16  H   UNL     1      -1.939   8.364  -3.453  0.00  0.00    +0.167 HD
ATOM     17  C   UNL     1      -2.755   9.310  -1.749  0.00  0.00    +0.111 A 
ATOM     18  N   UNL     1      -3.214  10.510  -1.545  0.00  0.00    -0.232 NA
ENDBRANCH   1  17
BRANCH   7  19
ATOM     19  C   UNL     1      -1.313   3.466   0.032  0.00  0.00    +0.068 C 
ATOM     20  C   UNL     1      -1.299   2.117   0.025  0.00  0.00    +0.014 C 
BRANCH  20  21
ATOM     21  C   UNL     1      -0.018   1.395   0.020  0.00  0.00    -0.006 A 
ATOM     22  C   UNL     1       1.189   2.103   0.017  0.00  0.00    +0.011 A 
ATOM     23  C   UNL     1       2.385   1.420   0.008  0.00  0.00    +0.020 A 
ATOM     24  C   UNL     1       2.397   0.034  -0.001  0.00  0.00    +0.042 A 
ATOM     25  C   UNL     1       1.207  -0.675   0.001  0.00  0.00    +0.040 A 
ATOM     26  C   UNL     1       0.001  -0.005   0.012  0.00  0.00    +0.049 A 
ATOM     27 CL   UNL     1      -1.489  -0.895   0.014  0.00  0.00    -0.083 Cl
ATOM     28 CL   UNL     1       3.910  -0.817  -0.014  0.00  0.00    -0.083 Cl
ENDBRANCH  20  21
ENDBRANCH   7  19
TORSDOF 3
