REMARK  Name = ZINC11563467
REMARK  6 active torsions:
REMARK  status: ('A' for Active; 'I' for Inactive)
REMARK    1  A    between atoms: C_5  and  C_7
REMARK    2  A    between atoms: C_7  and  C_9
REMARK    3  A    between atoms: C_7  and  N_53
REMARK    4  A    between atoms: C_9  and  N_10
REMARK    5  A    between atoms: C_11  and  C_13
REMARK    6  A    between atoms: C_13  and  C_14
REMARK                            x       y       z     vdW  Elec       q    Type
REMARK                         _______ _______ _______ _____ _____    ______ ____
ROOT
ATOM      1  N   UNL     1      -0.684   1.142  -2.497  0.00  0.00    -0.316 N 
ATOM      2  C   UNL     1      -1.301   1.424  -1.332  0.00  0.00    +0.215 C 
ATOM      3  O   UNL     1      -2.249   2.181  -1.316  0.00  0.00    -0.276 OA
ATOM      4  H   UNL     1       0.074   0.536  -2.509  0.00  0.00    +0.149 HD
ENDROOT
BRANCH   1   5
ATOM      5  C   UNL     1      -1.157   1.749  -3.743  0.00  0.00    +0.093 C 
BRANCH   5   6
ATOM      6  C   UNL     1      -0.213   1.370  -4.886  0.00  0.00    -0.019 C 
BRANCH   6  11
ATOM      7  C   UNL     1       3.405   1.766  -3.885  0.00  0.00    +0.000 A 
ATOM      8  C   UNL     1       3.632   3.097  -4.186  0.00  0.00    +0.001 A 
ATOM      9  C   UNL     1       2.614   3.869  -4.714  0.00  0.00    +0.020 A 
ATOM     10  C   UNL     1       1.369   3.311  -4.940  0.00  0.00    +0.043 A 
ATOM     11  C   UNL     1       1.143   1.979  -4.639  0.00  0.00    -0.041 A 
ATOM     12  C   UNL     1       2.160   1.209  -4.107  0.00  0.00    +0.003 A 
ATOM     13 CL   UNL     1       0.090   4.280  -5.602  0.00  0.00    -0.083 Cl
ENDBRANCH   6  11
BRANCH   6  18
ATOM     14  C   UNL     1      -1.422  -0.735  -5.071  0.00  0.00    -0.078 C 
ATOM     15  C   UNL     1      -1.092  -2.135  -5.647  0.00  0.00    -0.020 C 
ATOM     16  C   UNL     1       0.062  -1.839  -6.633  0.00  0.00    -0.020 C 
ATOM     17  C   UNL     1       0.665  -0.504  -6.157  0.00  0.00    -0.078 C 
ATOM     18  N   UNL     1      -0.091  -0.116  -4.966  0.00  0.00    +0.385 N 
ATOM     19  H   UNL     1       0.386  -0.461  -4.125  0.00  0.00    -0.081 HD
ENDBRANCH   6  18
ENDBRANCH   5   6
ENDBRANCH   1   5
BRANCH   2  20
ATOM     20  C   UNL     1      -0.814   0.800  -0.050  0.00  0.00    +0.119 C 
BRANCH  20  21
ATOM     21  C   UNL     1      -1.682   1.283   1.114  0.00  0.00    +0.146 C 
ATOM     22  C   UNL     1      -1.278   0.568   2.378  0.00  0.00    +0.231 C 
ATOM     23  O   UNL     1      -1.932  -0.390   2.733  0.00  0.00    -0.274 OA
ATOM     24  N   UNL     1      -0.240   0.936   3.121  0.00  0.00    -0.284 N 
ATOM     25  C   UNL     1       0.555   2.063   2.940  0.00  0.00    +0.048 A 
ATOM     26  C   UNL     1       1.784   2.142   3.588  0.00  0.00    +0.044 A 
ATOM     27  C   UNL     1       2.592   3.249   3.418  0.00  0.00    +0.043 A 
ATOM     28  C   UNL     1       2.186   4.296   2.609  0.00  0.00    +0.021 A 
ATOM     29  C   UNL     1       0.960   4.239   1.973  0.00  0.00    +0.018 A 
ATOM     30  C   UNL     1       0.144   3.133   2.144  0.00  0.00    +0.030 A 
ATOM     31  S   UNL     1      -1.437   3.068   1.360  0.00  0.00    -0.110 S 
ATOM     32 CL   UNL     1       4.128   3.328   4.225  0.00  0.00    -0.083 Cl
ATOM     33  H   UNL     1      -0.014   0.360   3.868  0.00  0.00    +0.155 HD
ENDBRANCH  20  21
ENDBRANCH   2  20
TORSDOF 6
