REMARK  Name = ZINC64793969
REMARK  8 active torsions:
REMARK  status: ('A' for Active; 'I' for Inactive)
REMARK    1  A    between atoms: C_1  and  O_2
REMARK    2  A    between atoms: O_2  and  C_3
REMARK    3  A    between atoms: C_3  and  C_5
REMARK    4  A    between atoms: C_5  and  S_6
REMARK    5  A    between atoms: S_6  and  C_7
REMARK    6  A    between atoms: C_10  and  C_19
REMARK    7  A    between atoms: N_11  and  C_12
REMARK    8  A    between atoms: C_20  and  N_28
REMARK                            x       y       z     vdW  Elec       q    Type
REMARK                         _______ _______ _______ _____ _____    ______ ____
ROOT
ATOM      1  C   UNL     1      -2.876  -4.433   0.006  0.00  0.00    +0.197 A 
ATOM      2  N   UNL     1      -1.777  -5.150  -0.003  0.00  0.00    -0.122 NA
ATOM      3  N   UNL     1      -2.063  -6.403  -0.008  0.00  0.00    -0.127 NA
ATOM      4  C   UNL     1      -3.369  -6.566  -0.004  0.00  0.00    +0.178 A 
ATOM      5  N   UNL     1      -3.932  -5.306   0.011  0.00  0.00    -0.270 N 
ENDROOT
BRANCH   4   6
ATOM      6  C   UNL     1      -4.090  -7.846  -0.008  0.00  0.00    +0.080 A 
ATOM      7  C   UNL     1      -3.572  -9.105  -0.012  0.00  0.00    +0.052 A 
ATOM      8  C   UNL     1      -4.486 -10.237  -0.015  0.00  0.00    +0.029 A 
ATOM      9  C   UNL     1      -4.185 -11.621  -0.020  0.00  0.00    +0.014 A 
ATOM     10  C   UNL     1      -5.219 -12.528  -0.024  0.00  0.00    +0.020 A 
ATOM     11  C   UNL     1      -6.535 -12.091  -0.023  0.00  0.00    +0.112 A 
ATOM     12  N   UNL     1      -6.811 -10.802  -0.018  0.00  0.00    -0.248 NA
ATOM     13  C   UNL     1      -5.859  -9.896  -0.015  0.00  0.00    +0.111 A 
ATOM     14  S   UNL     1      -5.851  -8.121  -0.002  0.00  0.00    -0.064 S 
BRANCH   7  15
ATOM     15  N   UNL     1      -2.186  -9.307  -0.013  0.00  0.00    -0.356 N 
ATOM     16  H   UNL     1      -1.585  -8.546  -0.011  0.00  0.00    +0.142 HD
ATOM     17  H   UNL     1      -1.827 -10.209  -0.015  0.00  0.00    +0.142 HD
ENDBRANCH   7  15
ENDBRANCH   4   6
BRANCH   5  18
ATOM     18  C   UNL     1      -5.298  -4.987   0.026  0.00  0.00    +0.051 A 
ATOM     19  C   UNL     1      -6.078  -5.324   1.123  0.00  0.00    +0.029 A 
ATOM     20  C   UNL     1      -7.423  -5.009   1.136  0.00  0.00    +0.040 A 
ATOM     21  C   UNL     1      -7.993  -4.358   0.055  0.00  0.00    +0.124 A 
ATOM     22  C   UNL     1      -7.216  -4.022  -1.041  0.00  0.00    +0.040 A 
ATOM     23  C   UNL     1      -5.869  -4.330  -1.055  0.00  0.00    +0.029 A 
ATOM     24  F   UNL     1      -9.308  -4.051   0.069  0.00  0.00    -0.205 F 
ENDBRANCH   5  18
BRANCH   1  25
ATOM     25  S   UNL     1      -2.976  -2.674   0.016  0.00  0.00    -0.074 S 
BRANCH  25  26
ATOM     26  C   UNL     1      -1.244  -2.135   0.003  0.00  0.00    +0.197 C 
BRANCH  26  27
ATOM     27  C   UNL     1      -1.185  -0.630   0.010  0.00  0.00    +0.317 C 
ATOM     28  O   UNL     1      -2.208   0.015   0.023  0.00  0.00    -0.250 OA
BRANCH  27  30
ATOM     29  C   UNL     1      -0.017   1.425   0.010  0.00  0.00    +0.280 C 
ATOM     30  O   UNL     1       0.002  -0.004   0.002  0.00  0.00    -0.467 OA
ENDBRANCH  27  30
ENDBRANCH  26  27
ENDBRANCH  25  26
ENDBRANCH   1  25
TORSDOF 7
