REMARK  Name = ZINC33494881
REMARK  7 active torsions:
REMARK  status: ('A' for Active; 'I' for Inactive)
REMARK    1  A    between atoms: C_1  and  C_2
REMARK    2  A    between atoms: C_2  and  C_3
REMARK    3  A    between atoms: C_3  and  C_4
REMARK    4  A    between atoms: C_4  and  N_5
REMARK    5  A    between atoms: N_5  and  C_6
REMARK    6  A    between atoms: C_7  and  C_14
REMARK    7  A    between atoms: N_16  and  N_17
REMARK                            x       y       z     vdW  Elec       q    Type
REMARK                         _______ _______ _______ _____ _____    ______ ____
ROOT
ATOM      1  C   UNL     1      -1.340  -1.898  -0.094  0.00  0.00    +0.058 A 
ATOM      2  C   UNL     1      -1.976  -2.696   0.869  0.00  0.00    +0.061 A 
ATOM      3  C   UNL     1      -1.933  -4.088   0.750  0.00  0.00    +0.030 A 
ATOM      4  C   UNL     1      -1.268  -4.667  -0.309  0.00  0.00    +0.020 A 
ATOM      5  C   UNL     1      -0.640  -3.876  -1.260  0.00  0.00    +0.037 A 
ATOM      6  C   UNL     1      -0.679  -2.500  -1.159  0.00  0.00    +0.064 A 
ATOM      7 CL   UNL     1       0.104  -1.520  -2.359  0.00  0.00    -0.082 Cl
ATOM      8 BR   UNL     1      -1.212  -6.551  -0.467  0.00  0.00    -0.050 Br
ENDROOT
BRANCH   2   9
ATOM      9  C   UNL     1      -2.685  -2.070   2.000  0.00  0.00    +0.259 C 
ATOM     10  O   UNL     1      -2.720  -0.859   2.100  0.00  0.00    -0.269 OA
ATOM     11  N   UNL     1      -3.294  -2.840   2.923  0.00  0.00    -0.250 N 
ATOM     12  H   UNL     1      -3.263  -3.936   2.832  0.00  0.00    +0.169 HD
BRANCH  11  13
ATOM     13  N   UNL     1      -3.951  -2.260   3.971  0.00  0.00    -0.254 NA
ATOM     14  H   UNL     1      -4.381  -3.043   4.613  0.00  0.00    +0.140 HD
ATOM     15  H   UNL     1      -3.244  -1.654   4.556  0.00  0.00    +0.140 HD
ENDBRANCH  11  13
ENDBRANCH   2   9
BRANCH   1  16
ATOM     16  N   UNL     1      -1.376  -0.512   0.012  0.00  0.00    -0.342 N 
ATOM     17  H   UNL     1      -2.162   0.186  -0.310  0.00  0.00    +0.146 HD
BRANCH  16  18
ATOM     18  C   UNL     1      -0.158  -0.002   0.656  0.00  0.00    +0.101 C 
BRANCH  18  19
ATOM     19  C   UNL     1      -0.289   1.507   0.872  0.00  0.00    +0.018 C 
BRANCH  19  21
ATOM     20  C   UNL     1       0.848   3.547   1.758  0.00  0.00    +0.004 C 
ATOM     21  C   UNL     1       0.980   2.038   1.542  0.00  0.00    -0.002 C 
ENDBRANCH  19  21
ENDBRANCH  18  19
ENDBRANCH  16  18
ENDBRANCH   1  16
TORSDOF 6
