REMARK  Name = ZINC38050861
REMARK  6 active torsions:
REMARK  status: ('A' for Active; 'I' for Inactive)
REMARK    1  A    between atoms: C_4  and  S_17
REMARK    2  A    between atoms: C_5  and  N_7
REMARK    3  A    between atoms: N_7  and  C_8
REMARK    4  A    between atoms: C_14  and  N_16
REMARK    5  A    between atoms: S_17  and  N_20
REMARK    6  A    between atoms: N_20  and  C_21
REMARK                            x       y       z     vdW  Elec       q    Type
REMARK                         _______ _______ _______ _____ _____    ______ ____
ROOT
ATOM      1  C   UNL     1       0.695   2.139  -0.558  0.00  0.00    +0.002 A 
ATOM      2  C   UNL     1       1.961   2.590  -0.233  0.00  0.00    +0.002 A 
ATOM      3  C   UNL     1       2.946   1.691   0.134  0.00  0.00    +0.030 A 
ATOM      4  C   UNL     1       2.668   0.339   0.176  0.00  0.00    +0.126 A 
ATOM      5  C   UNL     1       1.397  -0.118  -0.150  0.00  0.00    +0.054 A 
ATOM      6  C   UNL     1       0.410   0.788  -0.518  0.00  0.00    +0.025 A 
ENDROOT
BRANCH   4   7
ATOM      7  S   UNL     1       3.924  -0.805   0.643  0.00  0.00    +0.060 S 
ATOM      8  O   UNL     1       5.099  -0.043   0.883  0.00  0.00    -0.153 OA
ATOM      9  O   UNL     1       3.353  -1.655   1.628  0.00  0.00    -0.153 OA
BRANCH   7  10
ATOM     10  N   UNL     1       4.236  -1.755  -0.677  0.00  0.00    -0.187 NA
ATOM     11  H   UNL     1       4.049  -2.706  -0.646  0.00  0.00    +0.148 HD
BRANCH  10  12
ATOM     12  C   UNL     1       4.794  -1.158  -1.893  0.00  0.00    +0.077 C 
ATOM     13  C   UNL     1       5.764  -2.008  -2.717  0.00  0.00    +0.022 C 
ATOM     14  C   UNL     1       4.349  -1.742  -3.236  0.00  0.00    +0.022 C 
ENDBRANCH  10  12
ENDBRANCH   7  10
ENDBRANCH   4   7
BRANCH   5  15
ATOM     15  N   UNL     1       1.113  -1.484  -0.108  0.00  0.00    -0.341 N 
ATOM     16  H   UNL     1       1.819  -2.121   0.085  0.00  0.00    +0.146 HD
BRANCH  15  17
ATOM     17  C   UNL     1      -0.252  -1.956  -0.355  0.00  0.00    +0.056 C 
ATOM     18  C   UNL     1      -0.499  -2.036  -1.863  0.00  0.00    +0.020 C 
ATOM     19  C   UNL     1       0.500  -3.010  -2.492  0.00  0.00    +0.002 C 
ATOM     20  C   UNL     1       0.319  -4.397  -1.871  0.00  0.00    -0.001 C 
ATOM     21  C   UNL     1       0.566  -4.317  -0.364  0.00  0.00    -0.014 C 
ATOM     22  C   UNL     1      -0.432  -3.343   0.265  0.00  0.00    -0.055 C 
BRANCH  22  23
ATOM     23  N   UNL     1      -0.196  -3.266   1.713  0.00  0.00    +0.381 N 
ATOM     24  H   UNL     1      -0.797  -2.563   2.115  0.00  0.00    -0.090 HD
ATOM     25  H   UNL     1      -0.396  -4.161   2.135  0.00  0.00    -0.090 HD
ATOM     26  H   UNL     1       0.768  -3.022   1.884  0.00  0.00    -0.090 HD
ENDBRANCH  22  23
ENDBRANCH  15  17
ENDBRANCH   5  15
TORSDOF 6
