REMARK  Name = ZINC02500540
REMARK  6 active torsions:
REMARK  status: ('A' for Active; 'I' for Inactive)
REMARK    1  A    between atoms: C_1  and  O_2
REMARK    2  A    between atoms: O_2  and  C_3
REMARK    3  A    between atoms: C_6  and  O_32
REMARK    4  A    between atoms: C_7  and  C_9
REMARK    5  A    between atoms: C_11  and  C_30
REMARK    6  A    between atoms: O_32  and  C_33
REMARK                            x       y       z     vdW  Elec       q    Type
REMARK                         _______ _______ _______ _____ _____    ______ ____
ROOT
ATOM      1  C   UNL     1      -2.747   2.480   2.441  0.00  0.00    +0.101 C 
ATOM      2  C   UNL     1      -4.098   3.129   2.229  0.00  0.00    +0.082 C 
ATOM      3  C   UNL     1      -4.755   2.856   1.035  0.00  0.00    +0.146 C 
ATOM      4  N   UNL     1      -5.935   3.460   0.830  0.00  0.00    -0.215 NA
ATOM      5  C   UNL     1      -6.715   3.146  -0.184  0.00  0.00    +0.127 C 
ATOM      6  C   UNL     1      -6.297   2.057  -1.080  0.00  0.00    +0.036 A 
ATOM      7  C   UNL     1      -7.114   1.618  -2.120  0.00  0.00    +0.013 A 
ATOM      8  C   UNL     1      -6.723   0.540  -2.886  0.00  0.00    +0.001 A 
ATOM      9  C   UNL     1      -5.542  -0.123  -2.596  0.00  0.00    +0.002 A 
ATOM     10  C   UNL     1      -4.721   0.315  -1.575  0.00  0.00    +0.024 A 
ATOM     11  C   UNL     1      -5.037   1.463  -0.869  0.00  0.00    +0.050 A 
ATOM     12  N   UNL     1      -4.191   2.016   0.091  0.00  0.00    -0.256 N 
ATOM     13  C   UNL     1      -2.860   1.693   0.107  0.00  0.00    +0.025 C 
ATOM     14  C   UNL     1      -2.093   1.890   1.208  0.00  0.00    +0.025 C 
ATOM     15  C   UNL     1      -0.730   1.576   1.240  0.00  0.00    +0.162 C 
ATOM     16  O   UNL     1      -0.101   1.705   2.273  0.00  0.00    -0.292 OA
ATOM     17  C   UNL     1      -0.013   1.085   0.008  0.00  0.00    +0.080 C 
ATOM     18  C   UNL     1      -0.766   1.597  -1.225  0.00  0.00    +0.014 C 
ATOM     19  C   UNL     1      -2.216   1.108  -1.128  0.00  0.00    +0.052 C 
ATOM     20  N   UNL     1      -7.889   3.825  -0.395  0.00  0.00    -0.343 N 
ATOM     21  H   UNL     1      -8.150   4.541   0.205  0.00  0.00    +0.144 HD
ATOM     22  H   UNL     1      -8.458   3.588  -1.144  0.00  0.00    +0.144 HD
ENDROOT
BRANCH   1  27
ATOM     23  C   UNL     1      -3.958  -0.683   4.118  0.00  0.00    +0.121 A 
ATOM     24  C   UNL     1      -3.253  -0.651   5.312  0.00  0.00    +0.049 A 
ATOM     25  C   UNL     1      -2.387   0.392   5.576  0.00  0.00    +0.049 A 
ATOM     26  C   UNL     1      -2.222   1.408   4.646  0.00  0.00    +0.124 A 
ATOM     27  C   UNL     1      -2.926   1.376   3.451  0.00  0.00    +0.010 A 
ATOM     28  C   UNL     1      -3.796   0.335   3.190  0.00  0.00    +0.053 A 
BRANCH  23  30
ATOM     29  C   UNL     1      -4.931  -2.721   4.861  0.00  0.00    +0.277 C 
ATOM     30  O   UNL     1      -4.811  -1.710   3.859  0.00  0.00    -0.495 OA
ENDBRANCH  23  30
BRANCH  26  31
ATOM     31  O   UNL     1      -1.369   2.435   4.905  0.00  0.00    -0.495 OA
ATOM     32  C   UNL     1      -0.677   2.404   6.155  0.00  0.00    +0.277 C 
ENDBRANCH  26  31
ENDBRANCH   1  27
BRANCH   2  33
ATOM     33  C   UNL     1      -4.672   3.988   3.219  0.00  0.00    +0.099 C 
ATOM     34  N   UNL     1      -5.128   4.670   4.004  0.00  0.00    -0.191 NA
ENDBRANCH   2  33
TORSDOF 4
