REMARK  Name = ZINC09080150
REMARK  12 active torsions:
REMARK  status: ('A' for Active; 'I' for Inactive)
REMARK    1  A    between atoms: C_1  and  C_2
REMARK    2  A    between atoms: C_5  and  S_8
REMARK    3  A    between atoms: S_8  and  C_11
REMARK    4  A    between atoms: C_11  and  C_13
REMARK    5  A    between atoms: C_11  and  C_30
REMARK    6  A    between atoms: C_13  and  N_14
REMARK    7  A    between atoms: N_14  and  S_15
REMARK    8  A    between atoms: S_15  and  C_18
REMARK    9  A    between atoms: C_24  and  C_29
REMARK   10  A    between atoms: C_33  and  N_36
REMARK   11  A    between atoms: N_36  and  C_37
REMARK   12  A    between atoms: N_36  and  C_38
REMARK                            x       y       z     vdW  Elec       q    Type
REMARK                         _______ _______ _______ _____ _____    ______ ____
ROOT
ATOM      1  C   UNL     1       1.822  -4.974  -0.035  0.00  0.00    +0.181 C 
ENDROOT
BRANCH   1   2
ATOM      2  C   UNL     1       2.489  -4.414   1.195  0.00  0.00    -0.022 A 
ATOM      3  C   UNL     1       2.059  -4.803   2.450  0.00  0.00    +0.007 A 
ATOM      4  C   UNL     1       2.669  -4.292   3.579  0.00  0.00    +0.023 A 
ATOM      5  C   UNL     1       3.715  -3.387   3.453  0.00  0.00    +0.029 A 
ATOM      6  C   UNL     1       4.144  -2.999   2.190  0.00  0.00    +0.023 A 
ATOM      7  C   UNL     1       3.534  -3.518   1.065  0.00  0.00    +0.007 A 
BRANCH   5   8
ATOM      8  N   UNL     1       4.333  -2.869   4.593  0.00  0.00    -0.336 N 
ATOM      9  C   UNL     1       3.879  -3.279   5.924  0.00  0.00    +0.129 C 
ATOM     10  C   UNL     1       5.437  -1.914   4.457  0.00  0.00    +0.129 C 
ENDBRANCH   5   8
ENDBRANCH   1   2
BRANCH   1  11
ATOM     11  S   UNL     1       0.063  -4.530  -0.023  0.00  0.00    +0.005 S 
ATOM     12  O   UNL     1      -0.528  -4.907   1.213  0.00  0.00    -0.169 OA
ATOM     13  O   UNL     1      -0.542  -4.894  -1.256  0.00  0.00    -0.169 OA
BRANCH  11  18
ATOM     14  C   UNL     1      -0.018   1.503   0.010  0.00  0.00    +0.044 C 
ATOM     15  C   UNL     1       0.002  -0.004   0.002  0.00  0.00    -0.050 A 
ATOM     16  C   UNL     1       0.006  -0.689  -1.199  0.00  0.00    +0.005 A 
ATOM     17  C   UNL     1       0.025  -2.071  -1.206  0.00  0.00    +0.027 A 
ATOM     18  C   UNL     1       0.040  -2.768  -0.013  0.00  0.00    +0.089 A 
ATOM     19  C   UNL     1       0.037  -2.084   1.188  0.00  0.00    +0.027 A 
ATOM     20  C   UNL     1       0.023  -0.702   1.195  0.00  0.00    +0.005 A 
ENDBRANCH  11  18
ENDBRANCH   1  11
BRANCH   1  21
ATOM     21  C   UNL     1       1.964  -6.497  -0.044  0.00  0.00    +0.137 C 
BRANCH  21  22
ATOM     22  N   UNL     1       1.315  -7.041  -1.240  0.00  0.00    -0.188 NA
ATOM     23  H   UNL     1       0.706  -6.489  -1.755  0.00  0.00    +0.148 HD
BRANCH  22  24
ATOM     24  S   UNL     1       1.620  -8.599  -1.712  0.00  0.00    +0.058 S 
ATOM     25  O   UNL     1       0.833  -8.833  -2.871  0.00  0.00    -0.153 OA
ATOM     26  O   UNL     1       3.032  -8.755  -1.705  0.00  0.00    -0.153 OA
BRANCH  24  27
ATOM     27  C   UNL     1       0.990  -9.658  -0.452  0.00  0.00    +0.106 A 
ATOM     28  C   UNL     1       1.797 -10.032   0.607  0.00  0.00    +0.030 A 
ATOM     29  C   UNL     1       1.310 -10.861   1.596  0.00  0.00    +0.025 A 
ATOM     30  C   UNL     1      -0.002 -11.327   1.535  0.00  0.00    +0.037 A 
ATOM     31  C   UNL     1      -0.803 -10.943   0.467  0.00  0.00    -0.013 A 
ATOM     32  C   UNL     1      -0.316 -10.112  -0.517  0.00  0.00    +0.034 A 
ATOM     33  C   UNL     1      -2.146 -11.601   0.684  0.00  0.00    +0.104 C 
ATOM     34  C   UNL     1      -1.974 -12.372   1.976  0.00  0.00    +0.224 C 
ATOM     35  O   UNL     1      -2.813 -13.052   2.526  0.00  0.00    -0.275 OA
ATOM     36  N   UNL     1      -0.716 -12.160   2.397  0.00  0.00    -0.285 N 
ATOM     37  C   UNL     1      -3.244 -10.545   0.829  0.00  0.00    +0.022 C 
ATOM     38  H   UNL     1      -0.345 -12.543   3.208  0.00  0.00    +0.155 HD
ENDBRANCH  24  27
ENDBRANCH  22  24
ENDBRANCH  21  22
ENDBRANCH   1  21
TORSDOF 8
