REMARK  Name = ZINC06015558
REMARK  14 active torsions:
REMARK  status: ('A' for Active; 'I' for Inactive)
REMARK    1  A    between atoms: C_1  and  C_2
REMARK    2  A    between atoms: C_3  and  C_34
REMARK    3  A    between atoms: C_4  and  C_25
REMARK    4  A    between atoms: C_10  and  C_15
REMARK    5  A    between atoms: C_18  and  O_23
REMARK    6  A    between atoms: C_19  and  O_21
REMARK    7  A    between atoms: O_21  and  C_22
REMARK    8  A    between atoms: O_23  and  C_24
REMARK    9  A    between atoms: C_29  and  N_31
REMARK   10  A    between atoms: C_34  and  O_36
REMARK   11  A    between atoms: O_36  and  C_37
REMARK   12  A    between atoms: C_37  and  C_38
REMARK   13  A    between atoms: C_38  and  O_39
REMARK   14  A    between atoms: O_39  and  C_40
REMARK                            x       y       z     vdW  Elec       q    Type
REMARK                         _______ _______ _______ _____ _____    ______ ____
ROOT
ATOM      1  C   UNL     1       2.430   0.989  -0.486  0.00  0.00    +0.061 C 
ATOM      2  C   UNL     1       1.167   1.666  -0.021  0.00  0.00    +0.031 C 
ATOM      3  C   UNL     1       1.203   2.950   0.374  0.00  0.00    +0.154 C 
ATOM      4  C   UNL     1      -0.035   3.650   0.863  0.00  0.00    +0.073 C 
ATOM      5  C   UNL     1      -1.276   2.915   0.424  0.00  0.00    +0.025 C 
ATOM      6  C   UNL     1      -1.210   1.628   0.017  0.00  0.00    +0.049 C 
ATOM      7  N   UNL     1      -0.009   0.969  -0.003  0.00  0.00    -0.260 NA
ATOM      8  C   UNL     1      -2.446   0.888  -0.426  0.00  0.00    +0.064 C 
ATOM      9  C   UNL     1      -3.666   1.427   0.328  0.00  0.00    +0.032 C 
ATOM     10  C   UNL     1      -3.784   2.928   0.047  0.00  0.00    +0.088 C 
ATOM     11  C   UNL     1      -2.502   3.604   0.451  0.00  0.00    +0.162 C 
ATOM     12  O   UNL     1      -2.525   4.765   0.806  0.00  0.00    -0.292 OA
ENDROOT
BRANCH   9  13
ATOM     13  C   UNL     1      -4.909   0.723  -0.153  0.00  0.00    -0.040 A 
ATOM     14  C   UNL     1      -5.264   0.785  -1.487  0.00  0.00    +0.008 A 
ATOM     15  C   UNL     1      -6.403   0.141  -1.933  0.00  0.00    +0.049 A 
ATOM     16  C   UNL     1      -7.191  -0.569  -1.042  0.00  0.00    +0.161 A 
ATOM     17  C   UNL     1      -6.834  -0.632   0.301  0.00  0.00    +0.162 A 
ATOM     18  C   UNL     1      -5.688   0.011   0.741  0.00  0.00    +0.053 A 
BRANCH  17  19
ATOM     19  O   UNL     1      -7.604  -1.327   1.180  0.00  0.00    -0.491 OA
ATOM     20  C   UNL     1      -7.176  -1.347   2.543  0.00  0.00    +0.277 C 
ENDBRANCH  17  19
BRANCH  16  21
ATOM     21  O   UNL     1      -8.312  -1.203  -1.479  0.00  0.00    -0.491 OA
ATOM     22  C   UNL     1      -8.618  -1.095  -2.871  0.00  0.00    +0.277 C 
ENDBRANCH  16  21
ENDBRANCH   9  13
BRANCH   4  23
ATOM     23  C   UNL     1      -0.018   3.735   2.368  0.00  0.00    -0.037 A 
ATOM     24  C   UNL     1       0.019   2.578   3.125  0.00  0.00    +0.004 A 
ATOM     25  C   UNL     1       0.035   2.656   4.505  0.00  0.00    +0.003 A 
ATOM     26  C   UNL     1       0.015   3.890   5.128  0.00  0.00    +0.033 A 
ATOM     27  C   UNL     1      -0.022   5.046   4.371  0.00  0.00    +0.126 A 
ATOM     28  C   UNL     1      -0.033   4.968   2.990  0.00  0.00    +0.037 A 
BRANCH  27  29
ATOM     29  N   UNL     1      -0.045   6.367   5.038  0.00  0.00    +0.056 N 
ATOM     30  O   UNL     1      -0.030   6.435   6.254  0.00  0.00    -0.126 OA
ATOM     31  O   UNL     1      -0.077   7.386   4.371  0.00  0.00    -0.126 OA
ENDBRANCH  27  29
ENDBRANCH   4  23
BRANCH   3  32
ATOM     32  C   UNL     1       2.430   3.653   0.337  0.00  0.00    +0.317 C 
ATOM     33  O   UNL     1       3.440   3.094  -0.050  0.00  0.00    -0.250 OA
BRANCH  32  34
ATOM     34  O   UNL     1       2.482   4.943   0.730  0.00  0.00    -0.462 OA
BRANCH  34  35
ATOM     35  C   UNL     1       3.754   5.590   0.666  0.00  0.00    +0.260 C 
BRANCH  35  36
ATOM     36  C   UNL     1       3.615   7.036   1.148  0.00  0.00    +0.200 C 
BRANCH  36  37
ATOM     37  O   UNL     1       3.255   7.045   2.531  0.00  0.00    -0.380 OA
ATOM     38  C   UNL     1       3.099   8.353   3.083  0.00  0.00    +0.194 C 
ENDBRANCH  36  37
ENDBRANCH  35  36
ENDBRANCH  34  35
ENDBRANCH  32  34
ENDBRANCH   3  32
TORSDOF 10
