REMARK  Name = ZINC35486670
REMARK  12 active torsions:
REMARK  status: ('A' for Active; 'I' for Inactive)
REMARK    1  A    between atoms: C_1  and  C_2
REMARK    2  A    between atoms: C_2  and  C_3
REMARK    3  A    between atoms: C_3  and  C_4
REMARK    4  A    between atoms: C_4  and  C_5
REMARK    5  A    between atoms: C_5  and  O_6
REMARK    6  A    between atoms: O_6  and  C_7
REMARK    7  A    between atoms: C_11  and  C_13
REMARK    8  A    between atoms: N_28  and  C_29
REMARK    9  A    between atoms: C_29  and  C_30
REMARK   10  A    between atoms: C_30  and  N_31
REMARK   11  A    between atoms: N_31  and  C_32
REMARK   12  A    between atoms: N_31  and  C_33
REMARK                            x       y       z     vdW  Elec       q    Type
REMARK                         _______ _______ _______ _____ _____    ______ ____
ROOT
ATOM      1  C   UNL     1      -5.370  -8.189   0.021  0.00  0.00    +0.145 C 
ATOM      2  C   UNL     1      -5.703  -8.690  -1.346  0.00  0.00    +0.072 A 
ATOM      3  C   UNL     1      -5.004  -8.539  -2.627  0.00  0.00    +0.199 A 
ATOM      4  O   UNL     1      -3.880  -8.080  -2.724  0.00  0.00    -0.287 OA
ATOM      5  C   UNL     1      -5.798  -8.999  -3.795  0.00  0.00    +0.065 A 
ATOM      6  C   UNL     1      -5.358  -8.740  -5.093  0.00  0.00    +0.030 A 
ATOM      7  C   UNL     1      -6.110  -9.170  -6.164  0.00  0.00    +0.019 A 
ATOM      8  C   UNL     1      -7.299  -9.856  -5.950  0.00  0.00    +0.019 A 
ATOM      9  C   UNL     1      -7.741 -10.118  -4.673  0.00  0.00    +0.048 A 
ATOM     10  C   UNL     1      -6.997  -9.696  -3.572  0.00  0.00    +0.140 A 
ATOM     11  O   UNL     1      -7.449  -9.975  -2.328  0.00  0.00    -0.450 OA
ATOM     12  C   UNL     1      -6.875  -9.385  -1.261  0.00  0.00    +0.199 A 
ATOM     13  C   UNL     1      -7.333  -9.350   0.139  0.00  0.00    +0.283 C 
ATOM     14  O   UNL     1      -8.349  -9.872   0.552  0.00  0.00    -0.267 OA
ATOM     15  N   UNL     1      -6.458  -8.654   0.896  0.00  0.00    -0.285 N 
ATOM     16 BR   UNL     1      -5.524  -8.825  -7.929  0.00  0.00    -0.050 Br
ENDROOT
BRANCH   1  21
ATOM     17  C   UNL     1      -4.031  -4.655   0.015  0.00  0.00    +0.121 A 
ATOM     18  C   UNL     1      -5.205  -3.917   0.025  0.00  0.00    +0.045 A 
ATOM     19  C   UNL     1      -6.426  -4.563   0.033  0.00  0.00    +0.004 A 
ATOM     20  C   UNL     1      -6.479  -5.945   0.031  0.00  0.00    +0.006 A 
ATOM     21  C   UNL     1      -5.310  -6.683   0.022  0.00  0.00    -0.019 A 
ATOM     22  C   UNL     1      -4.086  -6.041   0.009  0.00  0.00    +0.051 A 
BRANCH  17  23
ATOM     23  O   UNL     1      -2.829  -4.022   0.007  0.00  0.00    -0.492 OA
BRANCH  23  24
ATOM     24  C   UNL     1      -2.848  -2.593   0.015  0.00  0.00    +0.229 C 
BRANCH  24  25
ATOM     25  C   UNL     1      -1.413  -2.063   0.004  0.00  0.00    +0.041 C 
BRANCH  25  26
ATOM     26  C   UNL     1      -1.433  -0.534   0.013  0.00  0.00    +0.003 C 
BRANCH  26  28
ATOM     27  C   UNL     1      -0.019   1.526   0.010  0.00  0.00    +0.004 C 
ATOM     28  C   UNL     1       0.002  -0.004   0.002  0.00  0.00    -0.003 C 
ENDBRANCH  26  28
ENDBRANCH  25  26
ENDBRANCH  24  25
ENDBRANCH  23  24
ENDBRANCH  17  23
ENDBRANCH   1  21
BRANCH  15  29
ATOM     29  C   UNL     1      -6.571  -8.405   2.336  0.00  0.00    +0.090 C 
BRANCH  29  30
ATOM     30  C   UNL     1      -7.344  -7.105   2.570  0.00  0.00    -0.060 C 
BRANCH  30  31
ATOM     31  N   UNL     1      -7.457  -6.856   4.013  0.00  0.00    +0.377 N 
ATOM     32  C   UNL     1      -6.121  -6.620   4.575  0.00  0.00    -0.097 C 
ATOM     33  C   UNL     1      -8.300  -5.675   4.241  0.00  0.00    -0.097 C 
ATOM     34  H   UNL     1      -7.874  -7.658   4.461  0.00  0.00    -0.083 HD
ENDBRANCH  30  31
ENDBRANCH  29  30
ENDBRANCH  15  29
TORSDOF 9
