REMARK  Name = ZINC08962186
REMARK  8 active torsions:
REMARK  status: ('A' for Active; 'I' for Inactive)
REMARK    1  A    between atoms: C_1  and  C_2
REMARK    2  A    between atoms: C_2  and  C_3
REMARK    3  A    between atoms: C_10  and  N_16
REMARK    4  A    between atoms: N_16  and  S_17
REMARK    5  A    between atoms: S_17  and  C_20
REMARK    6  A    between atoms: C_23  and  N_26
REMARK    7  A    between atoms: C_27  and  C_29
REMARK    8  A    between atoms: C_29  and  C_30
REMARK                            x       y       z     vdW  Elec       q    Type
REMARK                         _______ _______ _______ _____ _____    ______ ____
ROOT
ATOM      1  N   UNL     1      -0.951   1.888   1.240  0.00  0.00    -0.216 N 
ATOM      2  H   UNL     1      -0.746   2.702   1.725  0.00  0.00    +0.174 HD
ENDROOT
BRANCH   1   9
ATOM      3  C   UNL     1      -6.125   0.701   4.107  0.00  0.00    +0.110 C 
ATOM      4  C   UNL     1      -6.591  -0.280   3.039  0.00  0.00    +0.251 C 
ATOM      5  O   UNL     1      -5.502  -1.007   2.485  0.00  0.00    -0.489 OA
ATOM      6  C   UNL     1      -4.385  -0.304   2.166  0.00  0.00    +0.133 A 
ATOM      7  C   UNL     1      -4.068  -0.031   0.846  0.00  0.00    +0.048 A 
ATOM      8  C   UNL     1      -2.935   0.698   0.544  0.00  0.00    +0.028 A 
ATOM      9  C   UNL     1      -2.098   1.153   1.558  0.00  0.00    +0.049 A 
ATOM     10  C   UNL     1      -2.401   0.886   2.884  0.00  0.00    +0.041 A 
ATOM     11  C   UNL     1      -3.546   0.154   3.194  0.00  0.00    +0.080 A 
ATOM     12  C   UNL     1      -3.896  -0.154   4.594  0.00  0.00    +0.248 C 
ATOM     13  O   UNL     1      -3.061  -0.599   5.357  0.00  0.00    -0.270 OA
ATOM     14  N   UNL     1      -5.166   0.066   5.013  0.00  0.00    -0.305 N 
ATOM     15  H   UNL     1      -5.437  -0.196   5.906  0.00  0.00    +0.149 HD
BRANCH   3  17
ATOM     16  C   UNL     1      -4.933   2.860   4.502  0.00  0.00    +0.006 C 
ATOM     17  C   UNL     1      -5.460   1.902   3.432  0.00  0.00    +0.022 C 
ENDBRANCH   3  17
ENDBRANCH   1   9
BRANCH   1  18
ATOM     18  S   UNL     1       0.058   1.367   0.034  0.00  0.00    +0.072 S 
ATOM     19  O   UNL     1       1.171   2.250   0.024  0.00  0.00    -0.150 OA
ATOM     20  O   UNL     1      -0.756   1.154  -1.112  0.00  0.00    -0.150 OA
BRANCH  18  21
ATOM     21  C   UNL     1       0.672  -0.213   0.515  0.00  0.00    +0.109 A 
ATOM     22  C   UNL     1       1.892  -0.311   1.160  0.00  0.00    +0.030 A 
ATOM     23  C   UNL     1       2.374  -1.548   1.543  0.00  0.00    +0.025 A 
ATOM     24  C   UNL     1       1.639  -2.693   1.270  0.00  0.00    +0.033 A 
ATOM     25  C   UNL     1       0.417  -2.592   0.618  0.00  0.00    +0.025 A 
ATOM     26  C   UNL     1      -0.063  -1.352   0.243  0.00  0.00    +0.030 A 
BRANCH  24  27
ATOM     27  N   UNL     1       2.127  -3.948   1.652  0.00  0.00    -0.286 N 
ATOM     28  C   UNL     1       1.898  -5.025   0.876  0.00  0.00    +0.217 C 
ATOM     29  O   UNL     1       1.195  -4.926  -0.108  0.00  0.00    -0.275 OA
ATOM     30  H   UNL     1       2.631  -4.042   2.476  0.00  0.00    +0.155 HD
BRANCH  28  31
ATOM     31  C   UNL     1       2.515  -6.354   1.229  0.00  0.00    +0.093 C 
ATOM     32  C   UNL     1       2.099  -7.401   0.194  0.00  0.00    +0.013 C 
ENDBRANCH  28  31
ENDBRANCH  24  27
ENDBRANCH  18  21
ENDBRANCH   1  18
TORSDOF 6
