REMARK  Name = ZINC57391229
REMARK  8 active torsions:
REMARK  status: ('A' for Active; 'I' for Inactive)
REMARK    1  A    between atoms: C_4  and  C_7
REMARK    2  A    between atoms: C_8  and  C_9
REMARK    3  A    between atoms: N_11  and  C_12
REMARK    4  A    between atoms: C_12  and  C_13
REMARK    5  A    between atoms: N_15  and  N_16
REMARK    6  A    between atoms: C_17  and  C_19
REMARK    7  A    between atoms: C_22  and  S_25
REMARK    8  A    between atoms: S_25  and  N_28
REMARK                            x       y       z     vdW  Elec       q    Type
REMARK                         _______ _______ _______ _____ _____    ______ ____
ROOT
ATOM      1  N   UNL     1       6.852  -8.524  -0.112  0.00  0.00    -0.230 N 
ATOM      2  C   UNL     1       7.890  -9.382  -0.128  0.00  0.00    +0.260 C 
ATOM      3  O   UNL     1       9.030  -8.958  -0.137  0.00  0.00    -0.269 OA
ATOM      4  H   UNL     1       5.943  -8.862  -0.105  0.00  0.00    +0.173 HD
ENDROOT
BRANCH   2   5
ATOM      5  C   UNL     1       7.644 -10.840  -0.133  0.00  0.00    +0.038 A 
ATOM      6  C   UNL     1       6.338 -11.330  -0.128  0.00  0.00    +0.015 A 
ATOM      7  C   UNL     1       6.115 -12.692  -0.133  0.00  0.00    +0.029 A 
ATOM      8  C   UNL     1       7.184 -13.571  -0.143  0.00  0.00    +0.106 A 
ATOM      9  C   UNL     1       8.481 -13.091  -0.148  0.00  0.00    +0.029 A 
ATOM     10  C   UNL     1       8.718 -11.732  -0.149  0.00  0.00    +0.015 A 
BRANCH   8  11
ATOM     11  S   UNL     1       6.890 -15.308  -0.149  0.00  0.00    +0.061 S 
ATOM     12  O   UNL     1       8.054 -15.918   0.392  0.00  0.00    -0.153 OA
ATOM     13  O   UNL     1       5.598 -15.504   0.408  0.00  0.00    -0.153 OA
BRANCH  11  14
ATOM     14  N   UNL     1       6.800 -15.784  -1.733  0.00  0.00    -0.177 NA
ATOM     15  C   UNL     1       5.576 -15.825  -2.547  0.00  0.00    +0.109 C 
ATOM     16  C   UNL     1       5.972 -16.354  -3.942  0.00  0.00    +0.018 C 
ATOM     17  C   UNL     1       7.294 -17.116  -3.663  0.00  0.00    +0.018 C 
ATOM     18  C   UNL     1       7.935 -16.230  -2.562  0.00  0.00    +0.109 C 
ENDBRANCH  11  14
ENDBRANCH   8  11
ENDBRANCH   2   5
BRANCH   1  21
ATOM     19  C   UNL     1       6.046  -6.284  -0.092  0.00  0.00    +0.246 C 
ATOM     20  O   UNL     1       4.910  -6.707  -0.083  0.00  0.00    -0.273 OA
ATOM     21  N   UNL     1       7.085  -7.142  -0.107  0.00  0.00    -0.233 N 
ATOM     22  H   UNL     1       7.994  -6.804  -0.115  0.00  0.00    +0.173 HD
BRANCH  19  23
ATOM     23  C   UNL     1       6.297  -4.798  -0.087  0.00  0.00    +0.201 C 
BRANCH  23  26
ATOM     24  C   UNL     1       4.994  -2.739  -0.062  0.00  0.00    +0.237 C 
ATOM     25  O   UNL     1       6.037  -2.113  -0.070  0.00  0.00    -0.271 OA
ATOM     26  N   UNL     1       5.016  -4.086  -0.070  0.00  0.00    -0.303 N 
ATOM     27  H   UNL     1       4.184  -4.585  -0.064  0.00  0.00    +0.149 HD
BRANCH  24  29
ATOM     28  C   UNL     1       3.692  -0.680  -0.038  0.00  0.00    +0.013 C 
ATOM     29  C   UNL     1       3.714  -2.028  -0.045  0.00  0.00    +0.068 C 
BRANCH  28  33
ATOM     30  C   UNL     1      -0.017   1.380   0.010  0.00  0.00    +0.000 A 
ATOM     31  C   UNL     1       1.168   2.095   0.002  0.00  0.00    +0.001 A 
ATOM     32  C   UNL     1       2.377   1.433  -0.013  0.00  0.00    +0.008 A 
ATOM     33  C   UNL     1       2.405   0.035  -0.021  0.00  0.00    -0.025 A 
ATOM     34  C   UNL     1       1.203  -0.681  -0.013  0.00  0.00    +0.008 A 
ATOM     35  C   UNL     1       0.002  -0.004   0.002  0.00  0.00    +0.001 A 
ENDBRANCH  28  33
ENDBRANCH  24  29
ENDBRANCH  23  26
ENDBRANCH  19  23
ENDBRANCH   1  21
TORSDOF 8
