REMARK  Name = ZINC57126224
REMARK  10 active torsions:
REMARK  status: ('A' for Active; 'I' for Inactive)
REMARK    1  A    between atoms: C_1  and  C_2
REMARK    2  A    between atoms: C_2  and  C_3
REMARK    3  A    between atoms: C_3  and  C_5
REMARK    4  A    between atoms: C_3  and  O_6
REMARK    5  A    between atoms: O_6  and  C_7
REMARK    6  A    between atoms: C_11  and  N_13
REMARK    7  A    between atoms: N_13  and  S_14
REMARK    8  A    between atoms: S_14  and  C_17
REMARK    9  A    between atoms: C_21  and  S_23
REMARK   10  A    between atoms: S_23  and  N_26
REMARK                            x       y       z     vdW  Elec       q    Type
REMARK                         _______ _______ _______ _____ _____    ______ ____
ROOT
ATOM      1  S   UNL     1       0.923   1.898  -8.274  0.00  0.00    +0.092 S 
ATOM      2  O   UNL     1       1.727   3.019  -7.930  0.00  0.00    -0.148 OA
ATOM      3  O   UNL     1       1.477   0.689  -8.775  0.00  0.00    -0.148 OA
ENDROOT
BRANCH   1   4
ATOM      4  C   UNL     1      -0.234   2.459  -9.479  0.00  0.00    +0.112 A 
ATOM      5  C   UNL     1      -0.812   1.558 -10.354  0.00  0.00    +0.029 A 
ATOM      6  C   UNL     1      -1.720   1.998 -11.299  0.00  0.00    +0.004 A 
ATOM      7  C   UNL     1      -2.050   3.338 -11.369  0.00  0.00    +0.028 A 
ATOM      8  C   UNL     1      -1.472   4.239 -10.494  0.00  0.00    +0.107 A 
ATOM      9  C   UNL     1      -0.567   3.798  -9.546  0.00  0.00    +0.057 A 
BRANCH   8  10
ATOM     10  S   UNL     1      -1.892   5.948 -10.584  0.00  0.00    +0.056 S 
ATOM     11  O   UNL     1      -0.805   6.664 -10.014  0.00  0.00    -0.153 OA
ATOM     12  O   UNL     1      -2.349   6.185 -11.908  0.00  0.00    -0.153 OA
BRANCH  10  13
ATOM     13  N   UNL     1      -3.191   6.186  -9.585  0.00  0.00    -0.204 NA
ATOM     14  H   UNL     1      -3.566   5.440  -9.090  0.00  0.00    +0.144 HD
ATOM     15  H   UNL     1      -3.577   7.071  -9.494  0.00  0.00    +0.144 HD
ENDBRANCH  10  13
ENDBRANCH   8  10
ENDBRANCH   1   4
BRANCH   1  16
ATOM     16  N   UNL     1       0.063   1.499  -6.917  0.00  0.00    -0.098 NA
BRANCH  16  21
ATOM     17  C   UNL     1       0.667   0.206  -3.527  0.00  0.00    +0.123 A 
ATOM     18  C   UNL     1       2.047   0.064  -3.545  0.00  0.00    +0.046 A 
ATOM     19  C   UNL     1       2.763   0.398  -4.679  0.00  0.00    +0.005 A 
ATOM     20  C   UNL     1       2.108   0.874  -5.798  0.00  0.00    +0.027 A 
ATOM     21  C   UNL     1       0.726   1.018  -5.786  0.00  0.00    +0.078 A 
ATOM     22  C   UNL     1       0.004   0.677  -4.649  0.00  0.00    +0.072 A 
BRANCH  17  23
ATOM     23  O   UNL     1      -0.036  -0.123  -2.412  0.00  0.00    -0.489 OA
BRANCH  23  24
ATOM     24  C   UNL     1       0.718  -0.489  -1.254  0.00  0.00    +0.170 C 
ATOM     25  C   UNL     1       1.073  -1.976  -1.326  0.00  0.00    +0.052 C 
BRANCH  24  27
ATOM     26  C   UNL     1      -0.362   1.280   0.140  0.00  0.00    +0.007 C 
ATOM     27  C   UNL     1      -0.113  -0.223   0.002  0.00  0.00    +0.041 C 
ENDBRANCH  24  27
ENDBRANCH  23  24
ENDBRANCH  17  23
ENDBRANCH  16  21
ENDBRANCH   1  16
TORSDOF 8
