REMARK  Name = ZINC09926815
REMARK  5 active torsions:
REMARK  status: ('A' for Active; 'I' for Inactive)
REMARK    1  A    between atoms: C_1  and  C_2
REMARK    2  A    between atoms: C_2  and  C_3
REMARK    3  A    between atoms: C_3  and  N_4
REMARK    4  A    between atoms: C_26  and  N_30
REMARK    5  A    between atoms: C_27  and  C_28
REMARK                            x       y       z     vdW  Elec       q    Type
REMARK                         _______ _______ _______ _____ _____    ______ ____
ROOT
ATOM      1  N   UNL     1       4.483   6.826   0.202  0.00  0.00    -0.270 N 
ATOM      2  C   UNL     1       4.118   6.880  -1.132  0.00  0.00    +0.041 A 
ATOM      3  C   UNL     1       4.770   7.488  -2.206  0.00  0.00    +0.024 A 
ATOM      4  C   UNL     1       4.173   7.383  -3.452  0.00  0.00    +0.002 A 
ATOM      5  C   UNL     1       2.983   6.709  -3.638  0.00  0.00    +0.000 A 
ATOM      6  C   UNL     1       2.323   6.099  -2.576  0.00  0.00    +0.007 A 
ATOM      7  C   UNL     1       2.911   6.201  -1.334  0.00  0.00    -0.001 A 
ATOM      8  C   UNL     1       2.491   5.681   0.006  0.00  0.00    +0.148 C 
ATOM      9  C   UNL     1       3.589   6.141   0.944  0.00  0.00    +0.240 C 
ATOM     10  O   UNL     1       3.651   5.932   2.137  0.00  0.00    -0.274 OA
ATOM     11  C   UNL     1       2.416   4.180  -0.000  0.00  0.00    +0.104 A 
ATOM     12  C   UNL     1       1.206   3.550   0.011  0.00  0.00    +0.152 A 
ATOM     13  C   UNL     1       1.188   2.079   0.002  0.00  0.00    +0.060 A 
ATOM     14  C   UNL     1      -0.017   1.373   0.010  0.00  0.00    +0.015 A 
ATOM     15  C   UNL     1       0.002  -0.004   0.002  0.00  0.00    +0.001 A 
ATOM     16  C   UNL     1       1.209  -0.688  -0.014  0.00  0.00    +0.004 A 
ATOM     17  C   UNL     1       2.405  -0.003  -0.022  0.00  0.00    +0.047 A 
ATOM     18  C   UNL     1       2.409   1.386  -0.014  0.00  0.00    +0.143 A 
ATOM     19  O   UNL     1       3.571   2.075  -0.023  0.00  0.00    -0.422 OA
ATOM     20  C   UNL     1       3.596   3.417  -0.018  0.00  0.00    +0.346 A 
ATOM     21  O   UNL     1       4.672   3.989  -0.029  0.00  0.00    -0.245 OA
ATOM     22  O   UNL     1       0.052   4.243   0.030  0.00  0.00    -0.440 OA
ATOM     23  C   UNL     1       0.044   5.533   0.413  0.00  0.00    +0.199 C 
ATOM     24  C   UNL     1       1.177   6.276   0.424  0.00  0.00    +0.110 C 
ENDROOT
BRANCH  23  25
ATOM     25  N   UNL     1      -1.140   6.109   0.802  0.00  0.00    -0.328 N 
ATOM     26  H   UNL     1      -1.958   5.587   0.799  0.00  0.00    +0.145 HD
ATOM     27  H   UNL     1      -1.159   7.038   1.080  0.00  0.00    +0.145 HD
ENDBRANCH  23  25
BRANCH  24  28
ATOM     28  C   UNL     1       1.121   7.646   0.838  0.00  0.00    +0.102 C 
ATOM     29  N   UNL     1       1.077   8.732   1.167  0.00  0.00    -0.191 NA
ENDBRANCH  24  28
BRANCH   1  30
ATOM     30  C   UNL     1       5.698   7.440   0.743  0.00  0.00    +0.113 C 
BRANCH  30  32
ATOM     31  C   UNL     1       6.661   9.515   1.747  0.00  0.00    +0.005 C 
ATOM     32  C   UNL     1       5.393   8.874   1.181  0.00  0.00    +0.016 C 
ENDBRANCH  30  32
ENDBRANCH   1  30
TORSDOF 4
