REMARK  Name = ZINC38810592
REMARK  5 active torsions:
REMARK  status: ('A' for Active; 'I' for Inactive)
REMARK    1  A    between atoms: C_8  and  C_11
REMARK    2  A    between atoms: C_14  and  N_17
REMARK    3  A    between atoms: C_18  and  C_20
REMARK    4  A    between atoms: C_20  and  S_21
REMARK    5  A    between atoms: S_21  and  C_22
REMARK                            x       y       z     vdW  Elec       q    Type
REMARK                         _______ _______ _______ _____ _____    ______ ____
ROOT
ATOM      1  C   UNL     1       2.969  -3.473   1.203  0.00  0.00    -0.017 A 
ATOM      2  C   UNL     1       2.470  -3.066   2.427  0.00  0.00    +0.008 A 
ATOM      3  C   UNL     1       2.706  -3.823   3.557  0.00  0.00    +0.023 A 
ATOM      4  C   UNL     1       3.446  -4.995   3.464  0.00  0.00    +0.033 A 
ATOM      5  C   UNL     1       3.946  -5.401   2.234  0.00  0.00    +0.023 A 
ATOM      6  C   UNL     1       3.702  -4.642   1.106  0.00  0.00    +0.008 A 
ENDROOT
BRANCH   1  14
ATOM      7  C   UNL     1       0.512   1.692   0.124  0.00  0.00    +0.002 A 
ATOM      8  C   UNL     1       1.761   2.273   0.006  0.00  0.00    +0.001 A 
ATOM      9  C   UNL     1       2.876   1.455  -0.085  0.00  0.00    +0.016 A 
ATOM     10  C   UNL     1       2.726   0.087  -0.058  0.00  0.00    +0.031 A 
ATOM     11  C   UNL     1       1.477  -0.530   0.061  0.00  0.00    +0.042 A 
ATOM     12  C   UNL     1       0.364   0.325   0.152  0.00  0.00    +0.024 A 
ATOM     13  N   UNL     1       1.434  -1.924   0.079  0.00  0.00    -0.327 N 
ATOM     14  C   UNL     1       2.710  -2.644  -0.028  0.00  0.00    +0.164 C 
ATOM     15  S   UNL     1       3.898  -1.248  -0.149  0.00  0.00    -0.096 S 
ATOM     16  H   UNL     1       0.593  -2.400   0.160  0.00  0.00    +0.147 HD
ENDBRANCH   1  14
BRANCH   4  17
ATOM     17  N   UNL     1       3.688  -5.764   4.608  0.00  0.00    -0.285 N 
ATOM     18  C   UNL     1       2.763  -5.825   5.587  0.00  0.00    +0.227 C 
ATOM     19  O   UNL     1       1.684  -5.292   5.436  0.00  0.00    -0.275 OA
ATOM     20  H   UNL     1       4.520  -6.254   4.696  0.00  0.00    +0.155 HD
BRANCH  18  21
ATOM     21  C   UNL     1       3.070  -6.555   6.869  0.00  0.00    +0.173 C 
BRANCH  21  22
ATOM     22  S   UNL     1       1.638  -6.459   7.978  0.00  0.00    -0.077 S 
BRANCH  22  23
ATOM     23  C   UNL     1       2.148  -7.347   9.411  0.00  0.00    +0.184 A 
ATOM     24  H   UNL     1       0.511  -7.232  10.693  0.00  0.00    +0.191 HD
ATOM     25  N   UNL     1       3.315  -7.929   9.588  0.00  0.00    -0.209 NA
ATOM     26  C   UNL     1       3.352  -8.506  10.790  0.00  0.00    +0.245 A 
ATOM     27  N   UNL     1       2.214  -8.303  11.397  0.00  0.00    -0.160 NA
ATOM     28  N   UNL     1       1.413  -7.546  10.527  0.00  0.00    -0.254 N 
ENDBRANCH  22  23
ENDBRANCH  21  22
ENDBRANCH  18  21
ENDBRANCH   4  17
TORSDOF 5
