REMARK  Name = ZINC37274375
REMARK  5 active torsions:
REMARK  status: ('A' for Active; 'I' for Inactive)
REMARK    1  A    between atoms: C_6  and  O_7
REMARK    2  A    between atoms: O_7  and  C_8
REMARK    3  A    between atoms: C_8  and  C_9
REMARK    4  A    between atoms: C_12  and  C_16
REMARK    5  A    between atoms: C_14  and  N_15
REMARK                            x       y       z     vdW  Elec       q    Type
REMARK                         _______ _______ _______ _____ _____    ______ ____
ROOT
ATOM      1  C   UNL     1      -2.454  -2.722   0.012  0.00  0.00    +0.010 A 
ATOM      2  C   UNL     1      -3.561  -1.894   0.021  0.00  0.00    +0.009 A 
ATOM      3  C   UNL     1      -4.831  -2.432   0.031  0.00  0.00    +0.013 A 
ATOM      4  C   UNL     1      -5.002  -3.818   0.031  0.00  0.00    +0.038 A 
ATOM      5  C   UNL     1      -3.886  -4.654   0.021  0.00  0.00    +0.036 A 
ATOM      6  C   UNL     1      -2.614  -4.103   0.006  0.00  0.00    +0.032 A 
ENDROOT
BRANCH   4   7
ATOM      7  C   UNL     1      -6.363  -4.397   0.042  0.00  0.00    +0.242 C 
ATOM      8  O   UNL     1      -6.510  -5.604   0.042  0.00  0.00    -0.270 OA
ATOM      9  N   UNL     1      -7.440  -3.587   0.051  0.00  0.00    -0.325 N 
ATOM     10  H   UNL     1      -7.323  -2.624   0.051  0.00  0.00    +0.145 HD
ATOM     11  H   UNL     1      -8.332  -3.967   0.059  0.00  0.00    +0.145 HD
ENDBRANCH   4   7
BRANCH   6  12
ATOM     12  N   UNL     1      -1.492  -4.936  -0.010  0.00  0.00    -0.358 N 
ATOM     13  H   UNL     1      -0.602  -4.551  -0.016  0.00  0.00    +0.142 HD
ATOM     14  H   UNL     1      -1.603  -5.899  -0.014  0.00  0.00    +0.142 HD
ENDBRANCH   6  12
BRANCH   1  15
ATOM     15  C   UNL     1      -1.070  -2.126   0.001  0.00  0.00    +0.266 C 
BRANCH  15  16
ATOM     16  O   UNL     1      -1.165  -0.701   0.010  0.00  0.00    -0.487 OA
BRANCH  16  22
ATOM     17  C   UNL     1      -0.017   1.383   0.010  0.00  0.00    +0.047 A 
ATOM     18  C   UNL     1       1.171   2.089   0.002  0.00  0.00    +0.019 A 
ATOM     19  C   UNL     1       2.378   1.414  -0.013  0.00  0.00    +0.018 A 
ATOM     20  C   UNL     1       2.399   0.030  -0.022  0.00  0.00    +0.019 A 
ATOM     21  C   UNL     1       1.214  -0.679  -0.014  0.00  0.00    +0.047 A 
ATOM     22  C   UNL     1       0.002  -0.004   0.002  0.00  0.00    +0.121 A 
ATOM     23 BR   UNL     1       4.002   2.383  -0.024  0.00  0.00    -0.050 Br
ENDBRANCH  16  22
ENDBRANCH  15  16
ENDBRANCH   1  15
TORSDOF 5
