REMARK  Name = ZINC19339211
REMARK  3 active torsions:
REMARK  status: ('A' for Active; 'I' for Inactive)
REMARK    1  A    between atoms: C_1  and  C_2
REMARK    2  A    between atoms: C_3  and  N_9
REMARK    3  A    between atoms: C_22  and  C_24
REMARK                            x       y       z     vdW  Elec       q    Type
REMARK                         _______ _______ _______ _____ _____    ______ ____
ROOT
ATOM      1  N   UNL     1       0.016  -0.012  -2.407  0.00  0.00    -0.218 NA
ATOM      2  C   UNL     1       0.103  -0.659  -3.544  0.00  0.00    +0.189 C 
ATOM      3  N   UNL     1       0.123  -2.047  -3.616  0.00  0.00    -0.281 N 
ATOM      4  C   UNL     1      -0.776  -2.655  -4.603  0.00  0.00    +0.235 C 
ATOM      5  C   UNL     1      -2.154  -2.825  -4.016  0.00  0.00    +0.029 A 
ATOM      6  C   UNL     1      -3.088  -1.935  -3.534  0.00  0.00    +0.010 A 
ATOM      7  C   UNL     1      -4.296  -2.398  -3.044  0.00  0.00    +0.001 A 
ATOM      8  C   UNL     1      -4.562  -3.755  -3.040  0.00  0.00    +0.002 A 
ATOM      9  C   UNL     1      -3.628  -4.650  -3.521  0.00  0.00    +0.024 A 
ATOM     10  C   UNL     1      -2.410  -4.191  -4.017  0.00  0.00    +0.052 A 
ATOM     11  N   UNL     1      -1.320  -4.886  -4.552  0.00  0.00    -0.207 N 
ATOM     12  C   UNL     1      -0.324  -4.061  -4.920  0.00  0.00    +0.277 C 
ATOM     13  O   UNL     1       0.736  -4.384  -5.412  0.00  0.00    -0.270 OA
ATOM     14  C   UNL     1      -1.274  -6.226  -4.683  0.00  0.00    +0.223 C 
ATOM     15  O   UNL     1      -2.252  -6.895  -4.427  0.00  0.00    -0.275 OA
ATOM     16  C   UNL     1      -0.006  -6.894  -5.149  0.00  0.00    +0.110 C 
ATOM     17  N   UNL     1      -0.828  -1.847  -5.814  0.00  0.00    -0.216 NA
ATOM     18  C   UNL     1      -0.397  -0.625  -5.864  0.00  0.00    +0.182 C 
ATOM     19  N   UNL     1       0.178  -0.011  -4.771  0.00  0.00    -0.260 N 
ATOM     20  N   UNL     1      -0.521   0.079  -7.037  0.00  0.00    -0.331 N 
ATOM     21  H   UNL     1       0.624   0.846  -4.858  0.00  0.00    +0.157 HD
ATOM     22  H   UNL     1      -0.926  -0.339  -7.813  0.00  0.00    +0.145 HD
ATOM     23  H   UNL     1      -0.203   0.994  -7.090  0.00  0.00    +0.145 HD
ATOM     24  H   UNL     1       0.698  -2.583  -3.047  0.00  0.00    +0.152 HD
ENDROOT
BRANCH   1  27
ATOM     25  C   UNL     1       1.688   1.006  -0.346  0.00  0.00    +0.047 C 
ATOM     26  C   UNL     1       0.862  -0.243  -0.176  0.00  0.00    -0.007 A 
ATOM     27  C   UNL     1       0.058  -0.699  -1.222  0.00  0.00    +0.072 A 
ATOM     28  C   UNL     1      -0.704  -1.857  -1.056  0.00  0.00    +0.028 A 
ATOM     29  C   UNL     1      -0.658  -2.544   0.139  0.00  0.00    +0.004 A 
ATOM     30  C   UNL     1       0.141  -2.088   1.173  0.00  0.00    +0.020 A 
ATOM     31  C   UNL     1       0.903  -0.943   1.014  0.00  0.00    +0.046 A 
ATOM     32 CL   UNL     1       1.907  -0.383   2.314  0.00  0.00    -0.083 Cl
ENDBRANCH   1  27
TORSDOF 1
