REMARK  Name = ZINC06605095
REMARK  10 active torsions:
REMARK  status: ('A' for Active; 'I' for Inactive)
REMARK    1  A    between atoms: C_6  and  C_7
REMARK    2  A    between atoms: C_7  and  C_8
REMARK    3  A    between atoms: C_7  and  O_15
REMARK    4  A    between atoms: O_15  and  C_16
REMARK    5  A    between atoms: C_16  and  C_17
REMARK    6  A    between atoms: C_17  and  C_19
REMARK    7  A    between atoms: C_17  and  O_27
REMARK    8  A    between atoms: C_19  and  N_54
REMARK    9  A    between atoms: C_20  and  N_54
REMARK   10  A    between atoms: C_23  and  O_26
REMARK                            x       y       z     vdW  Elec       q    Type
REMARK                         _______ _______ _______ _____ _____    ______ ____
ROOT
ATOM      1  O   UNL     1       0.002  -0.004   0.002  0.00  0.00    -0.365 OA
ENDROOT
BRANCH   1   2
ATOM      2  C   UNL     1      -0.017   1.425   0.010  0.00  0.00    +0.178 C 
BRANCH   2   8
ATOM      3  C   UNL     1      -1.883   1.273  -1.651  0.00  0.00    +0.009 A 
ATOM      4  C   UNL     1      -2.555   1.732  -2.768  0.00  0.00    +0.039 A 
ATOM      5  C   UNL     1      -2.083   2.840  -3.452  0.00  0.00    +0.123 A 
ATOM      6  C   UNL     1      -0.941   3.488  -3.014  0.00  0.00    +0.039 A 
ATOM      7  C   UNL     1      -0.274   3.029  -1.894  0.00  0.00    +0.009 A 
ATOM      8  C   UNL     1      -0.746   1.924  -1.211  0.00  0.00    -0.014 A 
ATOM      9  F   UNL     1      -2.737   3.287  -4.546  0.00  0.00    -0.205 F 
ENDBRANCH   2   8
BRANCH   2  10
ATOM     10  C   UNL     1      -0.723   1.911   1.250  0.00  0.00    -0.014 A 
ATOM     11  C   UNL     1      -1.796   1.202   1.757  0.00  0.00    +0.009 A 
ATOM     12  C   UNL     1      -2.440   1.644   2.896  0.00  0.00    +0.039 A 
ATOM     13  C   UNL     1      -2.018   2.803   3.525  0.00  0.00    +0.123 A 
ATOM     14  C   UNL     1      -0.946   3.515   3.013  0.00  0.00    +0.039 A 
ATOM     15  C   UNL     1      -0.300   3.068   1.876  0.00  0.00    +0.009 A 
ATOM     16  F   UNL     1      -2.650   3.239   4.636  0.00  0.00    -0.205 F 
ENDBRANCH   2  10
ENDBRANCH   1   2
BRANCH   1  17
ATOM     17  C   UNL     1       1.147  -0.573   0.641  0.00  0.00    +0.190 C 
BRANCH  17  18
ATOM     18  C   UNL     1       1.062  -2.099   0.573  0.00  0.00    +0.123 C 
BRANCH  18  19
ATOM     19  O   UNL     1      -0.059  -2.549   1.336  0.00  0.00    -0.391 OA
ATOM     20  H   UNL     1      -0.021  -2.307   2.272  0.00  0.00    +0.210 HD
ENDBRANCH  18  19
BRANCH  18  21
ATOM     21  C   UNL     1       2.345  -2.707   1.145  0.00  0.00    -0.048 C 
BRANCH  21  22
ATOM     22  N   UNL     1       2.307  -4.171   0.966  0.00  0.00    +0.383 N 
ATOM     23  H   UNL     1       2.235  -4.388  -0.035  0.00  0.00    -0.085 HD
ATOM     24  H   UNL     1       1.491  -4.552   1.459  0.00  0.00    -0.085 HD
BRANCH  22  25
ATOM     25  C   UNL     1       3.534  -4.785   1.510  0.00  0.00    -0.072 C 
ATOM     26  C   UNL     1       4.637  -4.746   0.450  0.00  0.00    -0.013 C 
ATOM     27  C   UNL     1       5.906  -5.391   1.011  0.00  0.00    +0.030 C 
ATOM     28  C   UNL     1       5.614  -6.844   1.391  0.00  0.00    +0.114 C 
ATOM     29  C   UNL     1       4.511  -6.882   2.451  0.00  0.00    +0.030 C 
ATOM     30  C   UNL     1       3.242  -6.238   1.890  0.00  0.00    -0.013 C 
BRANCH  28  31
ATOM     31  O   UNL     1       6.799  -7.446   1.915  0.00  0.00    -0.392 OA
ATOM     32  H   UNL     1       7.542  -7.457   1.296  0.00  0.00    +0.210 HD
ENDBRANCH  28  31
ENDBRANCH  22  25
ENDBRANCH  21  22
ENDBRANCH  18  21
ENDBRANCH  17  18
ENDBRANCH   1  17
TORSDOF 10
