REMARK  Name = ZINC15017764
REMARK  7 active torsions:
REMARK  status: ('A' for Active; 'I' for Inactive)
REMARK    1  A    between atoms: C_1  and  C_2
REMARK    2  A    between atoms: C_5  and  C_8
REMARK    3  A    between atoms: C_8  and  C_10
REMARK    4  A    between atoms: C_8  and  N_25
REMARK    5  A    between atoms: C_10  and  C_12
REMARK    6  A    between atoms: C_10  and  O_24
REMARK    7  A    between atoms: C_12  and  C_14
REMARK                            x       y       z     vdW  Elec       q    Type
REMARK                         _______ _______ _______ _____ _____    ______ ____
ROOT
ATOM      1  C   UNL     1      -0.271   1.474   0.016  0.00  0.00    +0.123 C 
ENDROOT
BRANCH   1   2
ATOM      2  N   UNL     1      -0.443   0.017  -0.066  0.00  0.00    -0.290 NA
ATOM      3  C   UNL     1      -0.476  -0.431  -1.466  0.00  0.00    +0.104 C 
ATOM      4  C   UNL     1      -0.577  -1.958  -1.507  0.00  0.00    +0.123 C 
ATOM      5  N   UNL     1      -1.786  -2.386  -0.791  0.00  0.00    -0.297 N 
ATOM      6  C   UNL     1      -1.752  -1.938   0.609  0.00  0.00    +0.123 C 
ATOM      7  C   UNL     1      -1.652  -0.411   0.650  0.00  0.00    +0.104 C 
ATOM      8  C   UNL     1      -1.948  -3.759  -0.868  0.00  0.00    +0.218 A 
ATOM      9  N   UNL     1      -2.042  -4.463   0.250  0.00  0.00    -0.223 NA
ATOM     10  C   UNL     1      -2.203  -5.775   0.211  0.00  0.00    +0.116 A 
ATOM     11  C   UNL     1      -2.262  -6.413  -1.018  0.00  0.00    +0.039 A 
ATOM     12  C   UNL     1      -2.155  -5.646  -2.168  0.00  0.00    +0.116 A 
ATOM     13  N   UNL     1      -2.000  -4.337  -2.059  0.00  0.00    -0.223 NA
ENDBRANCH   1   2
BRANCH   1  18
ATOM     14  C   UNL     1      -1.852   3.306   5.263  0.00  0.00    +0.044 C 
ATOM     15  C   UNL     1      -1.439   2.828   3.895  0.00  0.00    -0.050 A 
ATOM     16  C   UNL     1      -1.959   3.433   2.766  0.00  0.00    +0.003 A 
ATOM     17  C   UNL     1      -1.581   2.995   1.511  0.00  0.00    +0.005 A 
ATOM     18  C   UNL     1      -0.683   1.952   1.384  0.00  0.00    -0.027 A 
ATOM     19  C   UNL     1      -0.167   1.343   2.513  0.00  0.00    +0.005 A 
ATOM     20  C   UNL     1      -0.541   1.785   3.769  0.00  0.00    +0.003 A 
ENDBRANCH   1  18
BRANCH   1  21
ATOM     21  C   UNL     1       1.198   1.828  -0.227  0.00  0.00    +0.207 C 
BRANCH  21  22
ATOM     22  C   UNL     1       1.581   1.444  -1.633  0.00  0.00    +0.195 C 
ATOM     23  O   UNL     1       2.301   0.485  -1.825  0.00  0.00    -0.289 OA
BRANCH  22  24
ATOM     24  C   UNL     1       1.102   2.202  -2.731  0.00  0.00    +0.045 A 
ATOM     25  C   UNL     1       0.278   3.306  -2.678  0.00  0.00    +0.095 A 
ATOM     26  N   UNL     1       0.043   3.755  -3.925  0.00  0.00    -0.360 N 
ATOM     27  H   UNL     1      -0.593   4.639  -4.081  0.00  0.00    +0.165 HD
ATOM     28  C   UNL     1       0.689   2.968  -4.857  0.00  0.00    +0.047 A 
ATOM     29  C   UNL     1       1.379   1.964  -4.161  0.00  0.00    +0.010 A 
ATOM     30  C   UNL     1       2.126   1.018  -4.856  0.00  0.00    +0.011 A 
ATOM     31  C   UNL     1       2.185   1.072  -6.232  0.00  0.00    +0.001 A 
ATOM     32  C   UNL     1       1.504   2.063  -6.923  0.00  0.00    +0.002 A 
ATOM     33  C   UNL     1       0.761   3.006  -6.246  0.00  0.00    +0.026 A 
ENDBRANCH  22  24
ENDBRANCH  21  22
BRANCH  21  34
ATOM     34  O   UNL     1       2.019   1.118   0.702  0.00  0.00    -0.382 OA
ATOM     35  H   UNL     1       3.112   1.246   0.680  0.00  0.00    +0.210 HD
ENDBRANCH  21  34
ENDBRANCH   1  21
TORSDOF 6
