REMARK  Name = ZINC15226855
REMARK  3 active torsions:
REMARK  status: ('A' for Active; 'I' for Inactive)
REMARK    1  A    between atoms: C_4  and  N_7
REMARK    2  A    between atoms: N_10  and  C_16
REMARK    3  A    between atoms: C_13  and  N_15
REMARK                            x       y       z     vdW  Elec       q    Type
REMARK                         _______ _______ _______ _____ _____    ______ ____
ROOT
ATOM      1  N   UNL     1       3.582   2.122  -0.020  0.00  0.00    -0.200 N 
ATOM      2  C   UNL     1       3.718   3.512  -0.020  0.00  0.00    +0.188 C 
ATOM      3  N   UNL     1       3.084   4.651  -0.002  0.00  0.00    -0.142 NA
ATOM      4  N   UNL     1       3.990   5.715  -0.005  0.00  0.00    -0.138 N 
ATOM      5  N   UNL     1       5.295   5.198  -0.020  0.00  0.00    -0.238 N 
ATOM      6  C   UNL     1       5.161   3.786  -0.026  0.00  0.00    +0.126 C 
ATOM      7  C   UNL     1       5.803   2.600  -0.038  0.00  0.00    +0.124 C 
ATOM      8  N   UNL     1       4.872   1.574  -0.035  0.00  0.00    -0.244 N 
ATOM      9  H   UNL     1       6.123   5.705  -0.025  0.00  0.00    +0.172 HD
ATOM     10  H   UNL     1       5.080   0.627  -0.043  0.00  0.00    +0.172 HD
ENDROOT
BRANCH   4  11
ATOM     11  C   UNL     1       3.654   7.068   0.005  0.00  0.00    +0.091 A 
ATOM     12  C   UNL     1       4.653   8.035   0.008  0.00  0.00    +0.030 A 
ATOM     13  C   UNL     1       4.316   9.373   0.014  0.00  0.00    +0.022 A 
ATOM     14  C   UNL     1       2.985   9.754   0.028  0.00  0.00    +0.042 A 
ATOM     15  C   UNL     1       1.987   8.795   0.031  0.00  0.00    +0.042 A 
ATOM     16  C   UNL     1       2.317   7.453   0.020  0.00  0.00    +0.067 A 
ATOM     17 CL   UNL     1       1.065   6.251   0.023  0.00  0.00    -0.081 Cl
ATOM     18 CL   UNL     1       2.567  11.439   0.041  0.00  0.00    -0.083 Cl
ENDBRANCH   4  11
BRANCH   1  22
ATOM     19  C   UNL     1       0.002  -0.004   0.002  0.00  0.00    +0.000 A 
ATOM     20  C   UNL     1      -0.017   1.379   0.010  0.00  0.00    +0.002 A 
ATOM     21  C   UNL     1       1.169   2.087   0.002  0.00  0.00    +0.025 A 
ATOM     22  C   UNL     1       2.381   1.409  -0.013  0.00  0.00    +0.055 A 
ATOM     23  C   UNL     1       2.396   0.019  -0.020  0.00  0.00    +0.025 A 
ATOM     24  C   UNL     1       1.207  -0.682  -0.013  0.00  0.00    +0.002 A 
ENDBRANCH   1  22
BRANCH   7  25
ATOM     25  N   UNL     1       7.181   2.434  -0.053  0.00  0.00    -0.344 N 
ATOM     26  H   UNL     1       7.562   1.542  -0.061  0.00  0.00    +0.144 HD
ATOM     27  H   UNL     1       7.764   3.210  -0.054  0.00  0.00    +0.144 HD
ENDBRANCH   7  25
TORSDOF 3
