REMARK  Name = ZINC33058941
REMARK  11 active torsions:
REMARK  status: ('A' for Active; 'I' for Inactive)
REMARK    1  A    between atoms: C_1  and  C_2
REMARK    2  A    between atoms: C_3  and  S_16
REMARK    3  A    between atoms: C_4  and  C_7
REMARK    4  A    between atoms: C_8  and  C_9
REMARK    5  A    between atoms: S_16  and  N_19
REMARK    6  A    between atoms: C_22  and  C_25
REMARK    7  A    between atoms: N_27  and  C_28
REMARK    8  A    between atoms: C_28  and  C_29
REMARK    9  A    between atoms: C_29  and  N_30
REMARK   10  A    between atoms: N_30  and  C_31
REMARK   11  A    between atoms: N_30  and  C_32
REMARK                            x       y       z     vdW  Elec       q    Type
REMARK                         _______ _______ _______ _____ _____    ______ ____
ROOT
ATOM      1  N   UNL     1       5.760  -4.455   1.506  0.00  0.00    -0.176 NA
ATOM      2  C   UNL     1       5.634  -3.181   2.227  0.00  0.00    +0.110 C 
ATOM      3  C   UNL     1       6.992  -2.808   2.819  0.00  0.00    +0.030 C 
ATOM      4  C   UNL     1       7.509  -3.967   3.675  0.00  0.00    +0.077 C 
ATOM      5  C   UNL     1       7.686  -5.210   2.800  0.00  0.00    +0.030 C 
ATOM      6  C   UNL     1       6.331  -5.612   2.209  0.00  0.00    +0.110 C 
ENDROOT
BRANCH   4   7
ATOM      7  C   UNL     1       8.834  -3.590   4.285  0.00  0.00    +0.216 C 
ATOM      8  O   UNL     1       9.822  -4.249   4.044  0.00  0.00    -0.276 OA
ATOM      9  N   UNL     1       8.920  -2.518   5.099  0.00  0.00    -0.317 N 
ATOM     10  H   UNL     1       8.023  -1.920   5.317  0.00  0.00    +0.149 HD
BRANCH   9  11
ATOM     11  C   UNL     1      10.208  -2.151   5.692  0.00  0.00    +0.085 C 
BRANCH  11  12
ATOM     12  C   UNL     1      10.031  -0.908   6.567  0.00  0.00    -0.060 C 
BRANCH  12  13
ATOM     13  N   UNL     1      11.323  -0.540   7.162  0.00  0.00    +0.381 N 
ATOM     14  C   UNL     1      11.781  -1.569   8.105  0.00  0.00    -0.096 C 
ATOM     15  H   UNL     1      12.062  -0.473   6.350  0.00  0.00    -0.082 HD
BRANCH  13  16
ATOM     16  C   UNL     1      11.247   0.775   7.813  0.00  0.00    -0.069 C 
ATOM     17  C   UNL     1      10.863   1.835   6.778  0.00  0.00    -0.015 C 
ATOM     18  C   UNL     1      10.784   3.204   7.457  0.00  0.00    -0.002 C 
ATOM     19  C   UNL     1      12.144   3.552   8.063  0.00  0.00    -0.000 C 
ATOM     20  C   UNL     1      12.528   2.492   9.097  0.00  0.00    -0.002 C 
ATOM     21  C   UNL     1      12.608   1.123   8.419  0.00  0.00    -0.015 C 
ENDBRANCH  13  16
ENDBRANCH  12  13
ENDBRANCH  11  12
ENDBRANCH   9  11
ENDBRANCH   4   7
BRANCH   1  22
ATOM     22  S   UNL     1       5.275  -4.583  -0.072  0.00  0.00    +0.066 S 
ATOM     23  O   UNL     1       6.005  -5.664  -0.636  0.00  0.00    -0.153 OA
ATOM     24  O   UNL     1       5.314  -3.271  -0.617  0.00  0.00    -0.153 OA
BRANCH  22  27
ATOM     25  C   UNL     1       3.841  -7.665  -0.073  0.00  0.00    +0.071 C 
ATOM     26  C   UNL     1       3.056  -6.378  -0.059  0.00  0.00    +0.107 A 
ATOM     27  C   UNL     1       3.582  -5.072  -0.059  0.00  0.00    +0.174 A 
ATOM     28  C   UNL     1       2.468  -4.269  -0.044  0.00  0.00    +0.187 A 
ATOM     29  O   UNL     1       1.409  -5.101  -0.032  0.00  0.00    -0.353 OA
ATOM     30  N   UNL     1       1.758  -6.258  -0.046  0.00  0.00    -0.081 NA
BRANCH  28  31
ATOM     31  C   UNL     1       2.437  -2.804  -0.036  0.00  0.00    +0.052 C 
ATOM     32  C   UNL     1       1.257  -2.154  -0.021  0.00  0.00    +0.014 C 
BRANCH  32  33
ATOM     33  C   UNL     1       1.227  -0.683  -0.013  0.00  0.00    +0.010 A 
ATOM     34  C   UNL     1       2.420   0.045  -0.021  0.00  0.00    +0.011 A 
ATOM     35  C   UNL     1       2.384   1.423  -0.013  0.00  0.00    +0.001 A 
ATOM     36  C   UNL     1       1.170   2.088   0.002  0.00  0.00    +0.003 A 
ATOM     37  C   UNL     1      -0.017   1.378   0.010  0.00  0.00    +0.039 A 
ATOM     38  C   UNL     1       0.002  -0.004   0.002  0.00  0.00    +0.131 A 
ATOM     39  F   UNL     1      -1.157  -0.698   0.009  0.00  0.00    -0.205 F 
ENDBRANCH  32  33
ENDBRANCH  28  31
ENDBRANCH  22  27
ENDBRANCH   1  22
TORSDOF 9
