REMARK  Name = ZINC45871977
REMARK  5 active torsions:
REMARK  status: ('A' for Active; 'I' for Inactive)
REMARK    1  A    between atoms: C_1  and  C_2
REMARK    2  A    between atoms: C_5  and  C_31
REMARK    3  A    between atoms: N_8  and  C_10
REMARK    4  A    between atoms: C_10  and  C_11
REMARK    5  A    between atoms: C_17  and  C_19
REMARK                            x       y       z     vdW  Elec       q    Type
REMARK                         _______ _______ _______ _____ _____    ______ ____
ROOT
ATOM      1  C   UNL     1       2.146   0.211   3.650  0.00  0.00    +0.034 A 
ATOM      2  C   UNL     1       1.190  -0.435   4.362  0.00  0.00    +0.070 A 
ATOM      3  S   UNL     1       0.811   0.794   5.601  0.00  0.00    -0.060 S 
ATOM      4  C   UNL     1       1.891   1.980   5.091  0.00  0.00    +0.165 A 
ATOM      5  N   UNL     1       2.476   1.425   4.051  0.00  0.00    -0.231 NA
ATOM      6  N   UNL     1       2.114   3.238   5.638  0.00  0.00    -0.262 N 
ATOM      7  C   UNL     1       1.415   3.636   6.719  0.00  0.00    +0.260 C 
ATOM      8  O   UNL     1       0.591   2.897   7.214  0.00  0.00    -0.271 OA
ATOM      9  H   UNL     1       2.772   3.829   5.241  0.00  0.00    +0.157 HD
ENDROOT
BRANCH   7  10
ATOM     10  C   UNL     1       1.656   5.001   7.311  0.00  0.00    +0.266 C 
ATOM     11  C   UNL     1       3.079   5.071   7.867  0.00  0.00    +0.090 C 
ATOM     12  C   UNL     1       3.263   6.330   8.672  0.00  0.00    -0.029 A 
ATOM     13  C   UNL     1       4.531   6.827   8.901  0.00  0.00    +0.004 A 
ATOM     14  C   UNL     1       4.699   7.982   9.643  0.00  0.00    +0.000 A 
ATOM     15  C   UNL     1       3.603   8.649  10.162  0.00  0.00    +0.001 A 
ATOM     16  C   UNL     1       2.330   8.165   9.940  0.00  0.00    +0.015 A 
ATOM     17  C   UNL     1       2.156   7.002   9.192  0.00  0.00    +0.062 A 
ATOM     18  C   UNL     1       0.799   6.467   8.934  0.00  0.00    +0.340 C 
ATOM     19  O   UNL     1      -0.197   7.103   9.214  0.00  0.00    -0.245 OA
ATOM     20  O   UNL     1       0.719   5.234   8.371  0.00  0.00    -0.448 OA
ENDBRANCH   7  10
BRANCH   1  21
ATOM     21  C   UNL     1       2.808  -0.431   2.458  0.00  0.00    -0.022 C 
BRANCH  21  27
ATOM     22  C   UNL     1      -0.019   1.526   0.010  0.00  0.00    +0.005 C 
ATOM     23  C   UNL     1       0.002  -0.004   0.002  0.00  0.00    -0.031 C 
ATOM     24  C   UNL     1       0.721  -0.499  -1.257  0.00  0.00    +0.003 C 
ATOM     25  C   UNL     1       2.177  -0.027  -1.220  0.00  0.00    -0.031 C 
ATOM     26  C   UNL     1       2.839  -0.534   0.063  0.00  0.00    -0.075 C 
ATOM     27  N   UNL     1       2.123  -0.005   1.230  0.00  0.00    +0.384 N 
ATOM     28  C   UNL     1       0.744  -0.512   1.240  0.00  0.00    -0.075 C 
ATOM     29  C   UNL     1       2.924  -0.581  -2.434  0.00  0.00    +0.005 C 
ATOM     30  H   UNL     1       2.109   1.003   1.187  0.00  0.00    -0.081 HD
ENDBRANCH  21  27
ENDBRANCH   1  21
TORSDOF 3
