REMARK  Name = ZINC14762797
REMARK  10 active torsions:
REMARK  status: ('A' for Active; 'I' for Inactive)
REMARK    1  A    between atoms: C_1  and  C_2
REMARK    2  A    between atoms: C_2  and  C_27
REMARK    3  A    between atoms: C_3  and  C_4
REMARK    4  A    between atoms: C_4  and  C_5
REMARK    5  A    between atoms: C_6  and  O_26
REMARK    6  A    between atoms: C_8  and  O_25
REMARK    7  A    between atoms: C_12  and  C_17
REMARK    8  A    between atoms: C_13  and  O_16
REMARK    9  A    between atoms: C_20  and  O_23
REMARK   10  A    between atoms: O_23  and  C_24
REMARK                            x       y       z     vdW  Elec       q    Type
REMARK                         _______ _______ _______ _____ _____    ______ ____
ROOT
ATOM      1  C   UNL     1       3.568   2.261  -0.049  0.00  0.00    +0.041 A 
ATOM      2  C   UNL     1       3.604   3.646  -0.002  0.00  0.00    +0.127 A 
ATOM      3  C   UNL     1       2.427   4.384   0.048  0.00  0.00    +0.092 A 
ATOM      4  C   UNL     1       1.203   3.742   0.052  0.00  0.00    +0.135 A 
ATOM      5  C   UNL     1       1.159   2.342   0.006  0.00  0.00    +0.109 A 
ATOM      6  C   UNL     1       2.350   1.598  -0.045  0.00  0.00    +0.150 A 
ATOM      7  O   UNL     1       2.299   0.250  -0.090  0.00  0.00    -0.450 OA
ATOM      8  C   UNL     1       1.136  -0.425  -0.088  0.00  0.00    +0.181 A 
ATOM      9  C   UNL     1      -0.073   0.202  -0.041  0.00  0.00    +0.208 A 
ATOM     10  C   UNL     1      -0.123   1.619   0.009  0.00  0.00    +0.238 A 
ATOM     11  O   UNL     1      -1.188   2.215   0.046  0.00  0.00    -0.283 OA
ENDROOT
BRANCH   8  12
ATOM     12  C   UNL     1       1.171  -1.898  -0.138  0.00  0.00    +0.021 A 
ATOM     13  C   UNL     1       1.964  -2.549  -1.087  0.00  0.00    +0.015 A 
ATOM     14  C   UNL     1       1.997  -3.926  -1.127  0.00  0.00    +0.046 A 
ATOM     15  C   UNL     1       1.235  -4.667  -0.232  0.00  0.00    +0.120 A 
ATOM     16  C   UNL     1       0.441  -4.024   0.710  0.00  0.00    +0.046 A 
ATOM     17  C   UNL     1       0.406  -2.648   0.760  0.00  0.00    +0.015 A 
BRANCH  15  18
ATOM     18  O   UNL     1       1.267  -6.024  -0.279  0.00  0.00    -0.495 OA
ATOM     19  C   UNL     1       2.104  -6.620  -1.272  0.00  0.00    +0.277 C 
ENDBRANCH  15  18
ENDBRANCH   8  12
BRANCH   9  20
ATOM     20  O   UNL     1      -1.223  -0.526  -0.041  0.00  0.00    -0.501 OA
ATOM     21  H   UNL     1      -1.574  -0.706  -0.924  0.00  0.00    +0.292 HD
ENDBRANCH   9  20
BRANCH   4  22
ATOM     22  O   UNL     1       0.053   4.461   0.102  0.00  0.00    -0.506 OA
ATOM     23  H   UNL     1      -0.261   4.639   0.999  0.00  0.00    +0.292 HD
ENDBRANCH   4  22
BRANCH   2  24
ATOM     24  O   UNL     1       4.801   4.287  -0.006  0.00  0.00    -0.506 OA
ATOM     25  H   UNL     1       5.166   4.443   0.875  0.00  0.00    +0.292 HD
ENDBRANCH   2  24
BRANCH   1  26
ATOM     26  C   UNL     1       4.853   1.475  -0.103  0.00  0.00    +0.069 C 
BRANCH  26  29
ATOM     27  C   UNL     1       7.465   2.107  -0.957  0.00  0.00    +0.038 C 
ATOM     28  C   UNL     1       6.445   1.610  -1.949  0.00  0.00    -0.079 C 
ATOM     29  C   UNL     1       5.251   1.260  -1.540  0.00  0.00    -0.023 C 
ATOM     30  C   UNL     1       6.800   1.516  -3.410  0.00  0.00    +0.038 C 
ENDBRANCH  26  29
ENDBRANCH   1  26
TORSDOF 7
