REMARK  Name = ZINC11267384
REMARK  6 active torsions:
REMARK  status: ('A' for Active; 'I' for Inactive)
REMARK    1  A    between atoms: C_6  and  C_7
REMARK    2  A    between atoms: C_7  and  N_12
REMARK    3  A    between atoms: C_13  and  C_15
REMARK    4  A    between atoms: C_15  and  O_16
REMARK    5  A    between atoms: O_16  and  C_17
REMARK    6  A    between atoms: C_22  and  C_23
REMARK                            x       y       z     vdW  Elec       q    Type
REMARK                         _______ _______ _______ _____ _____    ______ ____
ROOT
ATOM      1  N   UNL     1       4.770   0.124   0.510  0.00  0.00    -0.303 N 
ATOM      2  C   UNL     1       4.987   1.356   0.008  0.00  0.00    +0.251 C 
ATOM      3  O   UNL     1       4.248   1.803  -0.844  0.00  0.00    -0.272 OA
ATOM      4  H   UNL     1       5.315  -0.204   1.242  0.00  0.00    +0.150 HD
ENDROOT
BRANCH   1   5
ATOM      5  C   UNL     1       3.711  -0.719  -0.050  0.00  0.00    +0.060 C 
ATOM      6  C   UNL     1       3.937  -0.915  -1.563  0.00  0.00    +0.030 C 
ATOM      7  C   UNL     1       4.689  -2.266  -1.662  0.00  0.00    +0.002 C 
ATOM      8  C   UNL     1       4.011  -3.117  -0.560  0.00  0.00    +0.002 C 
ATOM      9  C   UNL     1       3.759  -2.118   0.588  0.00  0.00    +0.030 C 
BRANCH   5  15
ATOM     10  C   UNL     1       2.231   0.904   1.148  0.00  0.00    +0.009 A 
ATOM     11  C   UNL     1       0.997   1.486   1.375  0.00  0.00    +0.050 A 
ATOM     12  C   UNL     1      -0.108   1.077   0.645  0.00  0.00    +0.162 A 
ATOM     13  C   UNL     1       0.027   0.084  -0.318  0.00  0.00    +0.162 A 
ATOM     14  C   UNL     1       1.267  -0.497  -0.539  0.00  0.00    +0.055 A 
ATOM     15  C   UNL     1       2.365  -0.086   0.193  0.00  0.00    -0.020 A 
ATOM     16  O   UNL     1      -1.043  -0.326  -1.051  0.00  0.00    -0.485 OA
ATOM     17  C   UNL     1      -2.339   0.011  -0.543  0.00  0.00    +0.270 C 
ATOM     18  C   UNL     1      -2.321   1.487  -0.123  0.00  0.00    +0.270 C 
ATOM     19  O   UNL     1      -1.318   1.653   0.886  0.00  0.00    -0.485 OA
ENDBRANCH   5  15
ENDBRANCH   1   5
BRANCH   2  20
ATOM     20  C   UNL     1       6.149   2.178   0.504  0.00  0.00    +0.324 C 
BRANCH  20  21
ATOM     21  O   UNL     1       6.167   3.435  -0.175  0.00  0.00    -0.482 OA
BRANCH  21  22
ATOM     22  C   UNL     1       7.158   4.301   0.158  0.00  0.00    +0.133 A 
ATOM     23  C   UNL     1       8.095   3.950   1.118  0.00  0.00    +0.048 A 
ATOM     24  C   UNL     1       9.103   4.831   1.456  0.00  0.00    +0.023 A 
ATOM     25  C   UNL     1       9.187   6.070   0.840  0.00  0.00    +0.042 A 
ATOM     26  C   UNL     1       8.263   6.435  -0.117  0.00  0.00    +0.036 A 
ATOM     27  C   UNL     1       7.241   5.550  -0.472  0.00  0.00    +0.079 A 
ATOM     28 CL   UNL     1      10.460   7.168   1.274  0.00  0.00    -0.084 Cl
BRANCH  27  29
ATOM     29  C   UNL     1       6.253   5.931  -1.499  0.00  0.00    +0.245 C 
ATOM     30  O   UNL     1       5.364   5.159  -1.802  0.00  0.00    -0.270 OA
ATOM     31  N   UNL     1       6.338   7.133  -2.102  0.00  0.00    -0.325 N 
ATOM     32  H   UNL     1       7.047   7.748  -1.860  0.00  0.00    +0.145 HD
ATOM     33  H   UNL     1       5.688   7.383  -2.778  0.00  0.00    +0.145 HD
ENDBRANCH  27  29
ENDBRANCH  21  22
ENDBRANCH  20  21
ENDBRANCH   2  20
TORSDOF 6
