REMARK  Name = ZINC39653185
REMARK  9 active torsions:
REMARK  status: ('A' for Active; 'I' for Inactive)
REMARK    1  A    between atoms: C_1  and  O_2
REMARK    2  A    between atoms: O_2  and  C_3
REMARK    3  A    between atoms: C_5  and  C_11
REMARK    4  A    between atoms: C_7  and  O_9
REMARK    5  A    between atoms: O_9  and  C_10
REMARK    6  A    between atoms: C_11  and  C_12
REMARK    7  A    between atoms: C_12  and  N_13
REMARK    8  A    between atoms: C_14  and  C_16
REMARK    9  A    between atoms: C_27  and  C_29
REMARK                            x       y       z     vdW  Elec       q    Type
REMARK                         _______ _______ _______ _____ _____    ______ ____
ROOT
ATOM      1  C   UNL     1      -2.670  -8.332   2.619  0.00  0.00    +0.100 C 
ATOM      2  C   UNL     1      -1.468  -8.914   1.842  0.00  0.00    +0.121 C 
ATOM      3  N   UNL     1      -0.453  -9.201   2.882  0.00  0.00    -0.296 N 
ATOM      4  C   UNL     1      -1.235  -9.733   4.023  0.00  0.00    +0.115 C 
ATOM      5  C   UNL     1      -2.515  -8.875   4.050  0.00  0.00    -0.004 C 
ATOM      6  C   UNL     1      -3.720  -9.734   4.422  0.00  0.00    -0.010 C 
ATOM      7  C   UNL     1      -3.571 -10.214   5.868  0.00  0.00    -0.082 C 
ATOM      8  N   UNL     1      -3.476  -9.055   6.764  0.00  0.00    +0.379 N 
ATOM      9  C   UNL     1      -2.263  -8.286   6.459  0.00  0.00    -0.082 C 
ATOM     10  C   UNL     1      -2.357  -7.723   5.038  0.00  0.00    -0.010 C 
ATOM     11  C   UNL     1       0.881  -9.021   2.807  0.00  0.00    +0.252 C 
ATOM     12  O   UNL     1       1.587  -9.308   3.754  0.00  0.00    -0.270 OA
ATOM     13  H   UNL     1      -4.286  -8.467   6.638  0.00  0.00    -0.086 HD
ATOM     14  H   UNL     1      -3.439  -9.373   7.721  0.00  0.00    -0.086 HD
ENDROOT
BRANCH  11  15
ATOM     15  C   UNL     1       1.483  -8.474   1.576  0.00  0.00    +0.108 A 
ATOM     16  C   UNL     1       1.648  -7.093   1.427  0.00  0.00    +0.138 A 
ATOM     17  C   UNL     1       2.213  -6.589   0.271  0.00  0.00    +0.041 A 
ATOM     18  C   UNL     1       2.616  -7.446  -0.738  0.00  0.00    +0.026 A 
ATOM     19  C   UNL     1       2.457  -8.813  -0.599  0.00  0.00    +0.077 A 
ATOM     20  C   UNL     1       1.898  -9.335   0.554  0.00  0.00    +0.156 A 
ATOM     21  F   UNL     1       1.748 -10.670   0.691  0.00  0.00    -0.203 F 
ATOM     22 CL   UNL     1       2.965  -9.878  -1.873  0.00  0.00    -0.081 Cl
ATOM     23  F   UNL     1       1.255  -6.254   2.410  0.00  0.00    -0.205 F 
ENDBRANCH  11  15
BRANCH   1  25
ATOM     24  N   UNL     1      -3.752  -6.109   2.708  0.00  0.00    -0.315 N 
ATOM     25  C   UNL     1      -2.614  -6.825   2.621  0.00  0.00    +0.218 C 
ATOM     26  O   UNL     1      -1.544  -6.258   2.545  0.00  0.00    -0.275 OA
ATOM     27  H   UNL     1      -4.607  -6.562   2.769  0.00  0.00    +0.149 HD
BRANCH  24  28
ATOM     28  C   UNL     1      -3.697  -4.645   2.709  0.00  0.00    +0.109 C 
BRANCH  28  29
ATOM     29  C   UNL     1      -5.115  -4.082   2.816  0.00  0.00    +0.054 C 
BRANCH  29  32
ATOM     30  C   UNL     1      -5.070  -0.495   1.624  0.00  0.00    +0.124 A 
ATOM     31  C   UNL     1      -5.121  -1.882   1.625  0.00  0.00    +0.049 A 
ATOM     32  C   UNL     1      -5.059  -2.576   2.818  0.00  0.00    -0.039 A 
ATOM     33  C   UNL     1      -4.946  -1.891   4.013  0.00  0.00    +0.049 A 
ATOM     34  C   UNL     1      -4.894  -0.504   4.017  0.00  0.00    +0.124 A 
ATOM     35  C   UNL     1      -4.950   0.194   2.821  0.00  0.00    +0.091 A 
BRANCH  30  37
ATOM     36  C   UNL     1      -5.068   1.613   0.524  0.00  0.00    +0.277 C 
ATOM     37  O   UNL     1      -5.132   0.187   0.450  0.00  0.00    -0.495 OA
ENDBRANCH  30  37
BRANCH  34  38
ATOM     38  O   UNL     1      -4.783   0.168   5.193  0.00  0.00    -0.495 OA
ATOM     39  C   UNL     1      -4.735   1.595   5.122  0.00  0.00    +0.277 C 
ENDBRANCH  34  38
ENDBRANCH  29  32
ENDBRANCH  28  29
ENDBRANCH  24  28
ENDBRANCH   1  25
TORSDOF 7
