REMARK  Name = ZINC26134000
REMARK  6 active torsions:
REMARK  status: ('A' for Active; 'I' for Inactive)
REMARK    1  A    between atoms: C_1  and  N_2
REMARK    2  A    between atoms: C_3  and  C_5
REMARK    3  A    between atoms: N_14  and  C_15
REMARK    4  A    between atoms: C_15  and  N_16
REMARK    5  A    between atoms: C_19  and  C_23
REMARK    6  A    between atoms: C_19  and  C_29
REMARK                            x       y       z     vdW  Elec       q    Type
REMARK                         _______ _______ _______ _____ _____    ______ ____
ROOT
ATOM      1  N   UNL     1      -4.707  -1.692   1.091  0.00  0.00    -0.210 N 
ATOM      2  C   UNL     1      -5.564  -1.118   0.224  0.00  0.00    +0.257 C 
ATOM      3  O   UNL     1      -5.351  -0.164  -0.493  0.00  0.00    -0.272 OA
ATOM      4  C   UNL     1      -6.849  -1.914   0.330  0.00  0.00    +0.164 C 
ATOM      5  N   UNL     1      -6.538  -2.940   1.340  0.00  0.00    -0.278 N 
ATOM      6  C   UNL     1      -5.264  -2.732   1.720  0.00  0.00    +0.311 C 
ATOM      7  O   UNL     1      -4.686  -3.411   2.546  0.00  0.00    -0.252 OA
ATOM      8  H   UNL     1      -7.134  -3.633   1.665  0.00  0.00    +0.152 HD
ENDROOT
BRANCH   4   9
ATOM      9  C   UNL     1      -7.187  -2.555  -0.991  0.00  0.00    -0.011 A 
ATOM     10  C   UNL     1      -7.498  -3.901  -1.047  0.00  0.00    +0.006 A 
ATOM     11  C   UNL     1      -7.807  -4.490  -2.259  0.00  0.00    +0.000 A 
ATOM     12  C   UNL     1      -7.807  -3.732  -3.415  0.00  0.00    +0.000 A 
ATOM     13  C   UNL     1      -7.497  -2.386  -3.359  0.00  0.00    +0.000 A 
ATOM     14  C   UNL     1      -7.192  -1.797  -2.147  0.00  0.00    +0.006 A 
ENDBRANCH   4   9
BRANCH   4  15
ATOM     15  C   UNL     1      -7.980  -1.035   0.799  0.00  0.00    -0.011 A 
ATOM     16  C   UNL     1      -8.773  -1.435   1.858  0.00  0.00    +0.006 A 
ATOM     17  C   UNL     1      -9.811  -0.629   2.288  0.00  0.00    +0.000 A 
ATOM     18  C   UNL     1     -10.055   0.578   1.659  0.00  0.00    +0.000 A 
ATOM     19  C   UNL     1      -9.261   0.978   0.600  0.00  0.00    +0.000 A 
ATOM     20  C   UNL     1      -8.221   0.174   0.173  0.00  0.00    +0.006 A 
ENDBRANCH   4  15
BRANCH   1  21
ATOM     21  C   UNL     1      -3.332  -1.236   1.312  0.00  0.00    +0.206 C 
BRANCH  21  31
ATOM     22  C   UNL     1      -1.205  -1.147   0.154  0.00  0.00    +0.149 C 
ATOM     23  C   UNL     1      -0.488  -1.714  -1.072  0.00  0.00    +0.063 C 
ATOM     24  C   UNL     1      -0.343  -3.208  -0.937  0.00  0.00    -0.041 A 
ATOM     25  C   UNL     1       0.575  -3.859  -1.748  0.00  0.00    +0.004 A 
ATOM     26  C   UNL     1       0.737  -5.227  -1.660  0.00  0.00    +0.000 A 
ATOM     27  C   UNL     1      -0.020  -5.952  -0.759  0.00  0.00    +0.000 A 
ATOM     28  C   UNL     1      -0.932  -5.306   0.050  0.00  0.00    +0.005 A 
ATOM     29  C   UNL     1      -1.095  -3.930  -0.036  0.00  0.00    -0.030 A 
ATOM     30  C   UNL     1      -2.095  -3.268   0.875  0.00  0.00    +0.122 C 
ATOM     31  N   UNL     1      -2.431  -1.929   0.382  0.00  0.00    -0.271 NA
BRANCH  22  34
ATOM     32  C   UNL     1      -1.084   2.678   0.088  0.00  0.00    +0.128 C 
ATOM     33  N   UNL     1      -0.736   1.275   0.326  0.00  0.00    -0.317 N 
ATOM     34  C   UNL     1      -1.563   0.296  -0.090  0.00  0.00    +0.230 C 
ATOM     35  O   UNL     1      -2.595   0.576  -0.662  0.00  0.00    -0.274 OA
ATOM     36  H   UNL     1       0.090   1.051   0.783  0.00  0.00    +0.148 HD
ENDBRANCH  22  34
ENDBRANCH  21  31
ENDBRANCH   1  21
TORSDOF 5
