REMARK  Name = ZINC03599324
REMARK  5 active torsions:
REMARK  status: ('A' for Active; 'I' for Inactive)
REMARK    1  A    between atoms: C_4  and  C_7
REMARK    2  A    between atoms: C_7  and  C_8
REMARK    3  A    between atoms: C_8  and  C_29
REMARK    4  A    between atoms: N_11  and  C_15
REMARK    5  A    between atoms: C_15  and  C_16
REMARK                            x       y       z     vdW  Elec       q    Type
REMARK                         _______ _______ _______ _____ _____    ______ ____
ROOT
ATOM      1  C   UNL     1      -1.235   2.107   0.018  0.00  0.00    +0.142 C 
ATOM      2  C   UNL     1      -0.014   1.208   0.009  0.00  0.00    +0.252 C 
ATOM      3  O   UNL     1       0.002  -0.004   0.002  0.00  0.00    -0.272 OA
ATOM      4  N   UNL     1       1.048   2.037   0.003  0.00  0.00    -0.215 N 
ATOM      5  C   UNL     1       0.673   3.321   0.013  0.00  0.00    +0.310 C 
ATOM      6  O   UNL     1       1.453   4.253   0.010  0.00  0.00    -0.252 OA
ATOM      7  N   UNL     1      -0.664   3.465   0.026  0.00  0.00    -0.281 N 
ATOM      8  H   UNL     1      -1.157   4.301   0.035  0.00  0.00    +0.152 HD
ENDROOT
BRANCH   1   9
ATOM      9  C   UNL     1      -2.067   1.885  -1.218  0.00  0.00    -0.015 A 
ATOM     10  C   UNL     1      -3.075   0.940  -1.213  0.00  0.00    +0.006 A 
ATOM     11  C   UNL     1      -3.841   0.740  -2.346  0.00  0.00    +0.000 A 
ATOM     12  C   UNL     1      -3.593   1.478  -3.488  0.00  0.00    +0.000 A 
ATOM     13  C   UNL     1      -2.580   2.420  -3.495  0.00  0.00    +0.000 A 
ATOM     14  C   UNL     1      -1.817   2.623  -2.361  0.00  0.00    +0.006 A 
ENDBRANCH   1   9
BRANCH   1  15
ATOM     15  C   UNL     1      -2.068   1.870   1.279  0.00  0.00    +0.075 C 
BRANCH  15  19
ATOM     16  C   UNL     1       0.199   2.998   4.719  0.00  0.00    +0.000 A 
ATOM     17  C   UNL     1      -0.603   3.928   4.084  0.00  0.00    +0.000 A 
ATOM     18  C   UNL     1      -1.337   3.563   2.971  0.00  0.00    +0.004 A 
ATOM     19  C   UNL     1      -1.268   2.268   2.493  0.00  0.00    -0.045 A 
ATOM     20  C   UNL     1      -0.470   1.337   3.131  0.00  0.00    +0.004 A 
ATOM     21  C   UNL     1       0.267   1.703   4.241  0.00  0.00    +0.000 A 
ENDBRANCH  15  19
ENDBRANCH   1  15
BRANCH   4  22
ATOM     22  C   UNL     1       2.443   1.587  -0.013  0.00  0.00    +0.214 C 
BRANCH  22  23
ATOM     23  C   UNL     1       2.907   1.440  -1.439  0.00  0.00    +0.238 C 
ATOM     24  O   UNL     1       2.148   1.687  -2.352  0.00  0.00    -0.273 OA
ATOM     25  N   UNL     1       4.166   1.034  -1.699  0.00  0.00    -0.260 N 
ATOM     26  C   UNL     1       5.107   0.735  -0.610  0.00  0.00    +0.209 C 
ATOM     27  C   UNL     1       6.459   1.295  -0.956  0.00  0.00    +0.235 C 
ATOM     28  O   UNL     1       7.210   1.639  -0.067  0.00  0.00    -0.274 OA
ATOM     29  N   UNL     1       6.845   1.423  -2.240  0.00  0.00    -0.283 N 
ATOM     30  C   UNL     1       5.979   1.082  -3.284  0.00  0.00    +0.055 A 
ATOM     31  C   UNL     1       4.622   0.890  -3.019  0.00  0.00    +0.058 A 
ATOM     32  C   UNL     1       3.752   0.565  -4.044  0.00  0.00    +0.025 A 
ATOM     33  C   UNL     1       4.233   0.425  -5.334  0.00  0.00    +0.002 A 
ATOM     34  C   UNL     1       5.577   0.610  -5.598  0.00  0.00    +0.002 A 
ATOM     35  C   UNL     1       6.452   0.938  -4.578  0.00  0.00    +0.025 A 
ATOM     36  H   UNL     1       7.733   1.756  -2.442  0.00  0.00    +0.155 HD
ENDBRANCH  22  23
ENDBRANCH   4  22
TORSDOF 5
