REMARK  Name = ZINC00814354
REMARK  8 active torsions:
REMARK  status: ('A' for Active; 'I' for Inactive)
REMARK    1  A    between atoms: C_1  and  C_2
REMARK    2  A    between atoms: C_7  and  C_8
REMARK    3  A    between atoms: C_13  and  O_22
REMARK    4  A    between atoms: C_17  and  N_21
REMARK    5  A    between atoms: C_18  and  C_19
REMARK    6  A    between atoms: C_26  and  C_31
REMARK    7  A    between atoms: C_26  and  C_32
REMARK    8  A    between atoms: C_28  and  C_30
REMARK                            x       y       z     vdW  Elec       q    Type
REMARK                         _______ _______ _______ _____ _____    ______ ____
ROOT
ATOM      1  C   UNL     1      -4.915   6.215  -0.764  0.00  0.00    +0.044 C 
ATOM      2  C   UNL     1      -3.813   5.339  -0.226  0.00  0.00    -0.047 A 
ATOM      3  C   UNL     1      -3.948   3.962  -0.324  0.00  0.00    +0.009 A 
ATOM      4  C   UNL     1      -2.967   3.126   0.153  0.00  0.00    -0.022 A 
ATOM      5  C   UNL     1      -1.852   3.731   0.733  0.00  0.00    +0.045 A 
ATOM      6  C   UNL     1      -1.712   5.108   0.831  0.00  0.00    +0.002 A 
ATOM      7  C   UNL     1      -2.697   5.943   0.349  0.00  0.00    -0.041 A 
ATOM      8  C   UNL     1      -2.572   7.442   0.441  0.00  0.00    +0.044 C 
ATOM      9  C   UNL     1      -0.394   5.322   1.502  0.00  0.00    +0.142 C 
ATOM     10  C   UNL     1      -0.569   6.032   2.817  0.00  0.00    +0.020 A 
ATOM     11  C   UNL     1      -1.115   5.355   3.893  0.00  0.00    +0.012 A 
ATOM     12  C   UNL     1      -1.281   5.994   5.105  0.00  0.00    +0.046 A 
ATOM     13  C   UNL     1      -0.902   7.322   5.247  0.00  0.00    +0.120 A 
ATOM     14  C   UNL     1      -0.356   8.003   4.171  0.00  0.00    +0.092 A 
ATOM     15  C   UNL     1      -0.188   7.358   2.953  0.00  0.00    +0.138 A 
ATOM     16  O   UNL     1       0.348   8.038   1.909  0.00  0.00    -0.441 OA
ATOM     17  C   UNL     1       0.863   7.372   0.863  0.00  0.00    +0.199 C 
ATOM     18  C   UNL     1       0.550   6.077   0.613  0.00  0.00    +0.110 C 
ATOM     19  C   UNL     1       0.144   3.921   1.748  0.00  0.00    +0.241 C 
ATOM     20  O   UNL     1       1.198   3.640   2.277  0.00  0.00    -0.274 OA
ATOM     21  N   UNL     1      -0.762   3.052   1.274  0.00  0.00    -0.264 N 
ATOM     22  C   UNL     1      -0.729   1.579   1.267  0.00  0.00    +0.037 C 
ATOM     23  C   UNL     1      -2.172   1.062   1.276  0.00  0.00    +0.033 C 
ATOM     24  C   UNL     1      -2.986   1.626   0.106  0.00  0.00    +0.020 C 
ATOM     25  C   UNL     1      -4.431   1.132   0.208  0.00  0.00    +0.012 C 
ATOM     26  C   UNL     1      -0.013   1.086   0.008  0.00  0.00    +0.032 C 
ATOM     27  C   UNL     1       0.007   1.075   2.510  0.00  0.00    +0.032 C 
ENDROOT
BRANCH  17  28
ATOM     28  N   UNL     1       1.734   8.021   0.023  0.00  0.00    -0.328 N 
ATOM     29  H   UNL     1       1.968   8.947   0.189  0.00  0.00    +0.145 HD
ATOM     30  H   UNL     1       2.115   7.553  -0.737  0.00  0.00    +0.145 HD
ENDBRANCH  17  28
BRANCH  18  31
ATOM     31  C   UNL     1       1.129   5.418  -0.519  0.00  0.00    +0.102 C 
ATOM     32  N   UNL     1       1.589   4.896  -1.417  0.00  0.00    -0.191 NA
ENDBRANCH  18  31
BRANCH  13  33
ATOM     33  O   UNL     1      -1.067   7.953   6.439  0.00  0.00    -0.507 OA
ATOM     34  H   UNL     1      -0.307   7.879   7.032  0.00  0.00    +0.292 HD
ENDBRANCH  13  33
TORSDOF 3
