REMARK  Name = ZINC58949164
REMARK  8 active torsions:
REMARK  status: ('A' for Active; 'I' for Inactive)
REMARK    1  A    between atoms: C_1  and  C_2
REMARK    2  A    between atoms: C_3  and  C_26
REMARK    3  A    between atoms: C_4  and  C_12
REMARK    4  A    between atoms: C_6  and  C_10
REMARK    5  A    between atoms: C_7  and  N_9
REMARK    6  A    between atoms: C_16  and  O_18
REMARK    7  A    between atoms: O_18  and  C_19
REMARK    8  A    between atoms: C_19  and  C_20
REMARK                            x       y       z     vdW  Elec       q    Type
REMARK                         _______ _______ _______ _____ _____    ______ ____
ROOT
ATOM      1  C   UNL     1      -0.018   1.503   0.010  0.00  0.00    +0.087 C 
ATOM      2  C   UNL     1       0.002  -0.004   0.002  0.00  0.00    +0.113 C 
ATOM      3  C   UNL     1      -1.159  -0.669   0.004  0.00  0.00    +0.064 C 
ATOM      4  C   UNL     1      -1.196  -2.173  -0.003  0.00  0.00    +0.103 C 
ATOM      5  C   UNL     1       0.148  -2.717  -0.408  0.00  0.00    +0.098 C 
ATOM      6  C   UNL     1       1.250  -1.929  -0.387  0.00  0.00    +0.198 C 
ATOM      7  O   UNL     1       1.185  -0.639  -0.013  0.00  0.00    -0.445 OA
ENDROOT
BRANCH   4   8
ATOM      8  C   UNL     1      -1.540  -2.671   1.377  0.00  0.00    -0.031 A 
ATOM      9  C   UNL     1      -0.726  -2.356   2.449  0.00  0.00    +0.005 A 
ATOM     10  C   UNL     1      -1.039  -2.812   3.716  0.00  0.00    +0.004 A 
ATOM     11  C   UNL     1      -2.167  -3.585   3.913  0.00  0.00    +0.045 A 
ATOM     12  C   UNL     1      -2.986  -3.902   2.840  0.00  0.00    +0.121 A 
ATOM     13  C   UNL     1      -2.672  -3.439   1.570  0.00  0.00    +0.050 A 
BRANCH  12  14
ATOM     14  O   UNL     1      -4.096  -4.662   3.032  0.00  0.00    -0.487 OA
BRANCH  14  15
ATOM     15  C   UNL     1      -4.360  -5.100   4.366  0.00  0.00    +0.264 C 
BRANCH  15  16
ATOM     16  C   UNL     1      -5.622  -5.924   4.384  0.00  0.00    -0.010 A 
ATOM     17  C   UNL     1      -6.845  -5.311   4.585  0.00  0.00    +0.007 A 
ATOM     18  C   UNL     1      -8.002  -6.067   4.601  0.00  0.00    +0.000 A 
ATOM     19  C   UNL     1      -7.936  -7.435   4.418  0.00  0.00    +0.000 A 
ATOM     20  C   UNL     1      -6.714  -8.048   4.216  0.00  0.00    +0.000 A 
ATOM     21  C   UNL     1      -5.557  -7.292   4.195  0.00  0.00    +0.007 A 
ENDBRANCH  15  16
ENDBRANCH  14  15
ENDBRANCH  12  14
ENDBRANCH   4   8
BRANCH   3  22
ATOM     22  C   UNL     1      -2.414   0.079   0.014  0.00  0.00    +0.242 C 
ATOM     23  O   UNL     1      -2.398   1.296   0.020  0.00  0.00    -0.271 OA
ATOM     24  N   UNL     1      -3.591  -0.579   0.016  0.00  0.00    -0.325 N 
ATOM     25  H   UNL     1      -3.604  -1.548   0.011  0.00  0.00    +0.145 HD
ATOM     26  H   UNL     1      -4.424  -0.082   0.023  0.00  0.00    +0.145 HD
ENDBRANCH   3  22
BRANCH   6  27
ATOM     27  N   UNL     1       2.460  -2.458  -0.761  0.00  0.00    -0.328 N 
ATOM     28  H   UNL     1       2.519  -3.386  -1.037  0.00  0.00    +0.145 HD
ATOM     29  H   UNL     1       3.256  -1.904  -0.750  0.00  0.00    +0.145 HD
ENDBRANCH   6  27
BRANCH   5  30
ATOM     30  C   UNL     1       0.262  -4.084  -0.819  0.00  0.00    +0.101 C 
ATOM     31  N   UNL     1       0.353  -5.168  -1.146  0.00  0.00    -0.191 NA
ENDBRANCH   5  30
TORSDOF 7
