REMARK  Name = ZINC01040678
REMARK  6 active torsions:
REMARK  status: ('A' for Active; 'I' for Inactive)
REMARK    1  A    between atoms: C_5  and  C_7
REMARK    2  A    between atoms: N_8  and  S_9
REMARK    3  A    between atoms: S_9  and  C_12
REMARK    4  A    between atoms: C_15  and  O_19
REMARK    5  A    between atoms: O_19  and  C_20
REMARK    6  A    between atoms: C_23  and  N_27
REMARK                            x       y       z     vdW  Elec       q    Type
REMARK                         _______ _______ _______ _____ _____    ______ ____
ROOT
ATOM      1  C   UNL     1       0.697  -0.368   0.269  0.00  0.00    +0.112 A 
ATOM      2  C   UNL     1       0.822   0.991   0.489  0.00  0.00    +0.052 A 
ATOM      3  C   UNL     1       2.039   1.616   0.287  0.00  0.00    +0.086 A 
ATOM      4  C   UNL     1       3.135   0.877  -0.137  0.00  0.00    +0.165 A 
ATOM      5  C   UNL     1       3.006  -0.487  -0.357  0.00  0.00    +0.086 A 
ATOM      6  C   UNL     1       1.787  -1.106  -0.154  0.00  0.00    +0.052 A 
ATOM      7 CL   UNL     1       4.374  -1.415  -0.888  0.00  0.00    -0.080 Cl
ATOM      8 CL   UNL     1       2.196   3.323   0.563  0.00  0.00    -0.080 Cl
ENDROOT
BRANCH   1   9
ATOM      9  S   UNL     1      -0.855  -1.161   0.527  0.00  0.00    +0.074 S 
ATOM     10  O   UNL     1      -0.575  -2.531   0.777  0.00  0.00    -0.150 OA
ATOM     11  O   UNL     1      -1.577  -0.351   1.446  0.00  0.00    -0.150 OA
BRANCH   9  13
ATOM     12  C   UNL     1      -1.202  -1.779  -2.006  0.00  0.00    +0.135 C 
ATOM     13  N   UNL     1      -1.681  -1.101  -0.907  0.00  0.00    -0.200 N 
ATOM     14  H   UNL     1       0.316  -2.978  -2.636  0.00  0.00    +0.157 HD
ATOM     15  H   UNL     1      -2.502  -0.588  -0.973  0.00  0.00    +0.175 HD
ATOM     16  N   UNL     1      -0.079  -2.459  -1.851  0.00  0.00    -0.384 N 
ATOM     17  H   UNL     1       0.396  -2.466  -0.941  0.00  0.00    +0.157 HD
BRANCH  12  22
ATOM     18  C   UNL     1      -2.154  -2.353  -5.591  0.00  0.00    +0.004 A 
ATOM     19  C   UNL     1      -3.322  -1.607  -5.635  0.00  0.00    +0.020 A 
ATOM     20  C   UNL     1      -3.750  -0.949  -4.495  0.00  0.00    +0.111 A 
ATOM     21  N   UNL     1      -3.067  -1.026  -3.373  0.00  0.00    -0.252 NA
ATOM     22  C   UNL     1      -1.942  -1.725  -3.290  0.00  0.00    +0.102 A 
ATOM     23  C   UNL     1      -1.452  -2.413  -4.398  0.00  0.00    +0.031 A 
ENDBRANCH  12  22
ENDBRANCH   9  13
ENDBRANCH   1   9
BRANCH   4  24
ATOM     24  O   UNL     1       4.333   1.489  -0.336  0.00  0.00    -0.452 OA
BRANCH  24  25
ATOM     25  C   UNL     1       4.597   1.989  -1.572  0.00  0.00    +0.147 A 
ATOM     26  C   UNL     1       3.658   1.867  -2.586  0.00  0.00    +0.050 A 
ATOM     27  C   UNL     1       3.928   2.376  -3.841  0.00  0.00    +0.036 A 
ATOM     28  C   UNL     1       5.133   3.007  -4.088  0.00  0.00    +0.128 A 
ATOM     29  C   UNL     1       6.072   3.130  -3.080  0.00  0.00    +0.056 A 
ATOM     30  C   UNL     1       5.804   2.627  -1.821  0.00  0.00    +0.085 A 
ATOM     31 CL   UNL     1       6.980   2.787  -0.553  0.00  0.00    -0.080 Cl
BRANCH  28  32
ATOM     32  N   UNL     1       5.420   3.552  -5.434  0.00  0.00    +0.056 N 
ATOM     33  O   UNL     1       4.594   3.444  -6.323  0.00  0.00    -0.126 OA
ATOM     34  O   UNL     1       6.481   4.108  -5.653  0.00  0.00    -0.126 OA
ENDBRANCH  28  32
ENDBRANCH  24  25
ENDBRANCH   4  24
TORSDOF 6
