REMARK  Name = ZINC08833959
REMARK  14 active torsions:
REMARK  status: ('A' for Active; 'I' for Inactive)
REMARK    1  A    between atoms: C_1  and  C_2
REMARK    2  A    between atoms: C_2  and  N_63
REMARK    3  A    between atoms: C_3  and  C_4
REMARK    4  A    between atoms: C_3  and  N_63
REMARK    5  A    between atoms: C_5  and  C_6
REMARK    6  A    between atoms: C_5  and  N_63
REMARK    7  A    between atoms: C_6  and  N_7
REMARK    8  A    between atoms: C_8  and  C_26
REMARK    9  A    between atoms: C_10  and  C_15
REMARK   10  A    between atoms: C_11  and  O_14
REMARK   11  A    between atoms: C_15  and  C_17
REMARK   12  A    between atoms: C_29  and  C_32
REMARK   13  A    between atoms: C_32  and  O_34
REMARK   14  A    between atoms: O_34  and  C_35
REMARK                            x       y       z     vdW  Elec       q    Type
REMARK                         _______ _______ _______ _____ _____    ______ ____
ROOT
ATOM      1  N   UNL     1       0.677  -0.890  -1.295  0.00  0.00    -0.285 N 
ATOM      2  C   UNL     1       2.083  -1.295  -1.415  0.00  0.00    +0.144 C 
ATOM      3  C   UNL     1       2.272  -1.739  -2.847  0.00  0.00    +0.071 C 
ATOM      4  C   UNL     1       1.076  -1.592  -3.463  0.00  0.00    +0.188 C 
ATOM      5  C   UNL     1       0.091  -1.070  -2.493  0.00  0.00    +0.282 C 
ATOM      6  O   UNL     1      -1.075  -0.836  -2.740  0.00  0.00    -0.267 OA
ENDROOT
BRANCH   2   7
ATOM      7  C   UNL     1       2.375  -2.436  -0.476  0.00  0.00    -0.022 A 
ATOM      8  C   UNL     1       1.492  -3.497  -0.385  0.00  0.00    +0.006 A 
ATOM      9  C   UNL     1       1.757  -4.548   0.469  0.00  0.00    +0.015 A 
ATOM     10  C   UNL     1       2.913  -4.534   1.251  0.00  0.00    +0.059 A 
ATOM     11  C   UNL     1       3.797  -3.457   1.159  0.00  0.00    +0.015 A 
ATOM     12  C   UNL     1       3.523  -2.415   0.296  0.00  0.00    +0.006 A 
BRANCH  10  13
ATOM     13  C   UNL     1       3.200  -5.652   2.172  0.00  0.00    +0.339 C 
ATOM     14  O   UNL     1       4.207  -5.636   2.852  0.00  0.00    -0.245 OA
BRANCH  13  15
ATOM     15  O   UNL     1       2.345  -6.689   2.259  0.00  0.00    -0.464 OA
ATOM     16  C   UNL     1       2.690  -7.753   3.185  0.00  0.00    +0.280 C 
ENDBRANCH  13  15
ENDBRANCH  10  13
ENDBRANCH   2   7
BRANCH   4  17
ATOM     17  O   UNL     1       0.821  -1.882  -4.760  0.00  0.00    -0.502 OA
ATOM     18  H   UNL     1      -0.138  -1.684  -4.963  0.00  0.00    +0.292 HD
ENDBRANCH   4  17
BRANCH   3  19
ATOM     19  C   UNL     1       3.512  -2.235  -3.452  0.00  0.00    +0.195 C 
ATOM     20  O   UNL     1       3.591  -3.393  -3.817  0.00  0.00    -0.287 OA
BRANCH  19  21
ATOM     21  C   UNL     1       4.665  -1.328  -3.619  0.00  0.00    +0.026 A 
ATOM     22  C   UNL     1       4.605  -0.020  -3.130  0.00  0.00    +0.015 A 
ATOM     23  C   UNL     1       5.684   0.823  -3.281  0.00  0.00    +0.050 A 
ATOM     24  C   UNL     1       6.831   0.380  -3.928  0.00  0.00    +0.166 A 
ATOM     25  C   UNL     1       6.895  -0.923  -4.424  0.00  0.00    +0.167 A 
ATOM     26  C   UNL     1       5.819  -1.774  -4.271  0.00  0.00    +0.061 A 
ATOM     27  O   UNL     1       8.115  -1.106  -5.010  0.00  0.00    -0.453 OA
ATOM     28  C   UNL     1       8.945  -0.042  -4.508  0.00  0.00    +0.466 C 
ATOM     29  O   UNL     1       8.009   1.009  -4.205  0.00  0.00    -0.453 OA
ENDBRANCH  19  21
ENDBRANCH   3  19
BRANCH   1  30
ATOM     30  C   UNL     1       0.026  -0.385  -0.084  0.00  0.00    +0.090 C 
BRANCH  30  31
ATOM     31  C   UNL     1       0.156   1.138  -0.032  0.00  0.00    -0.060 C 
BRANCH  31  32
ATOM     32  N   UNL     1      -0.626   1.641   1.117  0.00  0.00    +0.380 N 
ATOM     33  H   UNL     1      -1.520   1.138   1.158  0.00  0.00    -0.082 HD
BRANCH  32  35
ATOM     34  C   UNL     1      -0.802   1.728   3.555  0.00  0.00    -0.017 C 
ATOM     35  C   UNL     1       0.115   1.407   2.374  0.00  0.00    -0.082 C 
ENDBRANCH  32  35
BRANCH  32  36
ATOM     36  C   UNL     1      -0.895   3.086   0.952  0.00  0.00    -0.082 C 
ATOM     37  C   UNL     1      -2.026   3.260  -0.063  0.00  0.00    -0.017 C 
ENDBRANCH  32  36
ENDBRANCH  31  32
ENDBRANCH  30  31
ENDBRANCH   1  30
TORSDOF 11
