REMARK  Name = ZINC35964308
REMARK  10 active torsions:
REMARK  status: ('A' for Active; 'I' for Inactive)
REMARK    1  A    between atoms: C_1  and  C_2
REMARK    2  A    between atoms: C_2  and  N_3
REMARK    3  A    between atoms: C_6  and  C_11
REMARK    4  A    between atoms: N_19  and  C_21
REMARK    5  A    between atoms: C_21  and  C_23
REMARK    6  A    between atoms: C_21  and  C_27
REMARK    7  A    between atoms: C_23  and  C_24
REMARK    8  A    between atoms: C_24  and  C_25
REMARK    9  A    between atoms: C_24  and  C_26
REMARK   10  A    between atoms: N_29  and  C_30
REMARK                            x       y       z     vdW  Elec       q    Type
REMARK                         _______ _______ _______ _____ _____    ______ ____
ROOT
ATOM      1  N   UNL     1      -1.980  -1.069  -0.127  0.00  0.00    -0.257 N 
ATOM      2  C   UNL     1      -2.448  -1.198   1.150  0.00  0.00    +0.042 C 
ATOM      3  C   UNL     1      -3.670  -1.712   1.398  0.00  0.00    +0.058 C 
ATOM      4  C   UNL     1      -4.508  -2.142   0.210  0.00  0.00    +0.142 C 
ATOM      5  N   UNL     1      -3.913  -1.962  -1.125  0.00  0.00    -0.288 N 
ATOM      6  C   UNL     1      -2.679  -1.428  -1.212  0.00  0.00    +0.307 C 
ATOM      7  O   UNL     1      -2.181  -1.272  -2.310  0.00  0.00    -0.252 OA
ATOM      8  C   UNL     1      -3.918  -1.739   2.785  0.00  0.00    +0.247 C 
ATOM      9  O   UNL     1      -4.945  -2.154   3.293  0.00  0.00    -0.270 OA
ATOM     10  N   UNL     1      -2.873  -1.248   3.476  0.00  0.00    -0.281 N 
ATOM     11  C   UNL     1      -1.847  -0.861   2.496  0.00  0.00    +0.160 C 
ATOM     12  H   UNL     1      -4.400  -2.219  -1.924  0.00  0.00    +0.151 HD
ENDROOT
BRANCH   4  13
ATOM     13  C   UNL     1      -4.837  -3.603   0.379  0.00  0.00    -0.023 A 
ATOM     14  C   UNL     1      -3.899  -4.565   0.053  0.00  0.00    +0.006 A 
ATOM     15  C   UNL     1      -4.200  -5.905   0.208  0.00  0.00    +0.000 A 
ATOM     16  C   UNL     1      -5.440  -6.283   0.689  0.00  0.00    +0.000 A 
ATOM     17  C   UNL     1      -6.378  -5.321   1.015  0.00  0.00    +0.000 A 
ATOM     18  C   UNL     1      -6.074  -3.981   0.865  0.00  0.00    +0.006 A 
ENDBRANCH   4  13
BRANCH   1  20
ATOM     19  C   UNL     1      -0.749   1.018  -0.457  0.00  0.00    +0.025 C 
ATOM     20  C   UNL     1      -0.643  -0.502  -0.320  0.00  0.00    +0.111 C 
ENDBRANCH   1  20
BRANCH  10  21
ATOM     21  C   UNL     1      -2.776  -1.122   4.932  0.00  0.00    +0.163 C 
BRANCH  21  22
ATOM     22  C   UNL     1      -3.881  -0.228   5.434  0.00  0.00    +0.238 C 
ATOM     23  O   UNL     1      -4.672   0.256   4.652  0.00  0.00    -0.273 OA
ATOM     24  N   UNL     1      -3.990   0.034   6.751  0.00  0.00    -0.284 N 
ATOM     25  H   UNL     1      -3.406  -0.413   7.384  0.00  0.00    +0.155 HD
BRANCH  24  26
ATOM     26  C   UNL     1      -4.946   0.950   7.206  0.00  0.00    +0.034 A 
ATOM     27  C   UNL     1      -5.554   0.765   8.441  0.00  0.00    +0.026 A 
ATOM     28  C   UNL     1      -6.497   1.670   8.888  0.00  0.00    +0.040 A 
ATOM     29  C   UNL     1      -6.837   2.761   8.105  0.00  0.00    +0.124 A 
ATOM     30  C   UNL     1      -6.232   2.947   6.874  0.00  0.00    +0.040 A 
ATOM     31  C   UNL     1      -5.284   2.048   6.426  0.00  0.00    +0.026 A 
ATOM     32  F   UNL     1      -7.760   3.644   8.544  0.00  0.00    -0.205 F 
ENDBRANCH  24  26
ENDBRANCH  21  22
BRANCH  21  33
ATOM     33  C   UNL     1      -2.908  -2.504   5.574  0.00  0.00    +0.035 C 
BRANCH  33  34
ATOM     34  C   UNL     1      -1.717  -3.373   5.162  0.00  0.00    -0.015 C 
ATOM     35  C   UNL     1      -0.430  -2.780   5.739  0.00  0.00    +0.007 C 
ATOM     36  C   UNL     1      -1.911  -4.792   5.701  0.00  0.00    +0.007 C 
ENDBRANCH  33  34
ENDBRANCH  21  33
ENDBRANCH  10  21
TORSDOF 7
