REMARK  Name = ZINC22275177
REMARK  6 active torsions:
REMARK  status: ('A' for Active; 'I' for Inactive)
REMARK    1  A    between atoms: C_4  and  N_7
REMARK    2  A    between atoms: C_11  and  C_12
REMARK    3  A    between atoms: N_14  and  N_15
REMARK    4  A    between atoms: N_15  and  S_16
REMARK    5  A    between atoms: S_16  and  C_19
REMARK    6  A    between atoms: C_22  and  C_25
REMARK                            x       y       z     vdW  Elec       q    Type
REMARK                         _______ _______ _______ _____ _____    ______ ____
ROOT
ATOM      1  N   UNL     1       2.805   0.300  -2.253  0.00  0.00    -0.108 NA
ATOM      2  H   UNL     1       2.884  -0.536  -2.739  0.00  0.00    +0.172 HD
ENDROOT
BRANCH   1   5
ATOM      3  C   UNL     1       4.269   1.696  -3.508  0.00  0.00    +0.277 C 
ATOM      4  O   UNL     1       5.131   0.840  -3.433  0.00  0.00    -0.267 OA
ATOM      5  N   UNL     1       3.082   1.513  -2.898  0.00  0.00    -0.227 N 
ATOM      6  H   UNL     1       2.329   2.315  -2.907  0.00  0.00    +0.171 HD
BRANCH   3  11
ATOM      7  N   UNL     1       5.688   3.268  -4.929  0.00  0.00    -0.295 N 
ATOM      8  C   UNL     1       5.484   4.479  -5.485  0.00  0.00    +0.204 A 
ATOM      9  N   UNL     1       4.278   4.890  -5.188  0.00  0.00    -0.243 NA
ATOM     10  C   UNL     1       3.660   3.972  -4.444  0.00  0.00    +0.144 A 
ATOM     11  C   UNL     1       4.524   2.929  -4.263  0.00  0.00    +0.129 A 
BRANCH   7  15
ATOM     12  C   UNL     1       9.162   0.979  -5.176  0.00  0.00    +0.000 A 
ATOM     13  C   UNL     1       8.527   1.397  -6.332  0.00  0.00    +0.002 A 
ATOM     14  C   UNL     1       7.376   2.156  -6.253  0.00  0.00    +0.026 A 
ATOM     15  C   UNL     1       6.855   2.498  -5.012  0.00  0.00    +0.048 A 
ATOM     16  C   UNL     1       7.498   2.081  -3.854  0.00  0.00    +0.026 A 
ATOM     17  C   UNL     1       8.646   1.318  -3.939  0.00  0.00    +0.002 A 
ENDBRANCH   7  15
ENDBRANCH   3  11
ENDBRANCH   1   5
BRANCH   1  18
ATOM     18  S   UNL     1       2.345   0.294  -0.663  0.00  0.00    +0.074 S 
ATOM     19  O   UNL     1       3.340   1.016   0.051  0.00  0.00    -0.152 OA
ATOM     20  O   UNL     1       2.002  -1.047  -0.344  0.00  0.00    -0.152 OA
BRANCH  18  21
ATOM     21  C   UNL     1       0.860   1.235  -0.547  0.00  0.00    +0.107 A 
ATOM     22  C   UNL     1      -0.366   0.613  -0.691  0.00  0.00    +0.029 A 
ATOM     23  C   UNL     1      -1.531   1.352  -0.606  0.00  0.00    +0.006 A 
ATOM     24  C   UNL     1      -1.470   2.712  -0.366  0.00  0.00    -0.044 A 
ATOM     25  C   UNL     1      -0.245   3.334  -0.221  0.00  0.00    +0.006 A 
ATOM     26  C   UNL     1       0.920   2.596  -0.312  0.00  0.00    +0.029 A 
BRANCH  24  27
ATOM     27  C   UNL     1      -2.741   3.517  -0.267  0.00  0.00    +0.019 C 
ATOM     28  C   UNL     1      -3.596   2.982   0.883  0.00  0.00    +0.008 C 
ATOM     29  C   UNL     1      -4.886   3.799   0.982  0.00  0.00    +0.001 C 
ATOM     30  C   UNL     1      -5.665   3.684  -0.329  0.00  0.00    +0.000 C 
ATOM     31  C   UNL     1      -4.809   4.220  -1.479  0.00  0.00    +0.001 C 
ATOM     32  C   UNL     1      -3.520   3.402  -1.579  0.00  0.00    +0.008 C 
ENDBRANCH  24  27
ENDBRANCH  18  21
ENDBRANCH   1  18
TORSDOF 6
