REMARK  Name = ZINC39606081
REMARK  9 active torsions:
REMARK  status: ('A' for Active; 'I' for Inactive)
REMARK    1  A    between atoms: C_1  and  C_2
REMARK    2  A    between atoms: C_2  and  C_3
REMARK    3  A    between atoms: C_3  and  C_5
REMARK    4  A    between atoms: C_3  and  C_6
REMARK    5  A    between atoms: C_6  and  N_7
REMARK    6  A    between atoms: C_8  and  C_10
REMARK    7  A    between atoms: C_21  and  C_23
REMARK    8  A    between atoms: C_24  and  C_36
REMARK    9  A    between atoms: C_27  and  C_28
REMARK                            x       y       z     vdW  Elec       q    Type
REMARK                         _______ _______ _______ _____ _____    ______ ____
ROOT
ATOM      1  C   UNL     1       2.303  -3.336  -3.527  0.00  0.00    +0.100 C 
ATOM      2  C   UNL     1       1.630  -3.365  -4.918  0.00  0.00    +0.121 C 
ATOM      3  N   UNL     1       2.009  -4.679  -5.489  0.00  0.00    -0.296 N 
ATOM      4  C   UNL     1       1.936  -5.615  -4.343  0.00  0.00    +0.115 C 
ATOM      5  C   UNL     1       2.501  -4.814  -3.153  0.00  0.00    -0.004 C 
ATOM      6  C   UNL     1       3.985  -5.119  -2.970  0.00  0.00    -0.010 C 
ATOM      7  C   UNL     1       4.153  -6.580  -2.543  0.00  0.00    -0.082 C 
ATOM      8  N   UNL     1       3.427  -6.811  -1.288  0.00  0.00    +0.379 N 
ATOM      9  C   UNL     1       1.988  -6.605  -1.497  0.00  0.00    -0.082 C 
ATOM     10  C   UNL     1       1.729  -5.146  -1.880  0.00  0.00    -0.010 C 
ATOM     11  C   UNL     1       2.345  -4.959  -6.764  0.00  0.00    +0.252 C 
ATOM     12  O   UNL     1       2.634  -6.097  -7.081  0.00  0.00    -0.270 OA
ATOM     13  H   UNL     1       3.588  -7.757  -0.977  0.00  0.00    -0.086 HD
ATOM     14  H   UNL     1       3.759  -6.167  -0.586  0.00  0.00    -0.086 HD
ENDROOT
BRANCH  11  15
ATOM     15  C   UNL     1       2.363  -3.886  -7.774  0.00  0.00    +0.106 A 
ATOM     16  C   UNL     1       3.425  -3.097  -8.103  0.00  0.00    +0.147 A 
ATOM     17  O   UNL     1       3.037  -2.249  -9.059  0.00  0.00    -0.359 OA
ATOM     18  N   UNL     1       1.679  -2.484  -9.374  0.00  0.00    -0.077 NA
ATOM     19  C   UNL     1       1.241  -3.465  -8.626  0.00  0.00    +0.130 A 
ATOM     20  C   UNL     1       4.801  -3.167  -7.492  0.00  0.00    +0.090 C 
BRANCH  19  21
ATOM     21  C   UNL     1      -0.126  -4.039  -8.633  0.00  0.00    +0.058 A 
ATOM     22  C   UNL     1      -0.307  -5.418  -8.751  0.00  0.00    +0.134 A 
ATOM     23  C   UNL     1      -1.585  -5.946  -8.757  0.00  0.00    +0.039 A 
ATOM     24  C   UNL     1      -2.681  -5.111  -8.646  0.00  0.00    +0.004 A 
ATOM     25  C   UNL     1      -2.508  -3.744  -8.529  0.00  0.00    +0.021 A 
ATOM     26  C   UNL     1      -1.237  -3.204  -8.517  0.00  0.00    +0.053 A 
ATOM     27 CL   UNL     1      -1.022  -1.488  -8.362  0.00  0.00    -0.083 Cl
ATOM     28  F   UNL     1       0.764  -6.235  -8.860  0.00  0.00    -0.205 F 
ENDBRANCH  19  21
ENDBRANCH  11  15
BRANCH   1  30
ATOM     29  N   UNL     1       1.942  -2.013  -1.468  0.00  0.00    -0.315 N 
ATOM     30  C   UNL     1       1.406  -2.656  -2.525  0.00  0.00    +0.218 C 
ATOM     31  O   UNL     1       0.203  -2.688  -2.668  0.00  0.00    -0.275 OA
ATOM     32  H   UNL     1       2.905  -1.987  -1.354  0.00  0.00    +0.149 HD
BRANCH  29  33
ATOM     33  C   UNL     1       1.070  -1.353  -0.494  0.00  0.00    +0.107 C 
BRANCH  33  34
ATOM     34  C   UNL     1       1.925  -0.703   0.597  0.00  0.00    +0.003 C 
ATOM     35  C   UNL     1       2.768   0.417  -0.016  0.00  0.00    +0.009 C 
BRANCH  34  37
ATOM     36  C   UNL     1       1.867   0.417   2.829  0.00  0.00    +0.004 C 
ATOM     37  C   UNL     1       1.014  -0.121   1.680  0.00  0.00    +0.001 C 
ENDBRANCH  34  37
ENDBRANCH  33  34
ENDBRANCH  29  33
ENDBRANCH   1  30
TORSDOF 6
