REMARK  Name = ZINC39939847
REMARK  8 active torsions:
REMARK  status: ('A' for Active; 'I' for Inactive)
REMARK    1  A    between atoms: C_2  and  C_8
REMARK    2  A    between atoms: N_9  and  C_10
REMARK    3  A    between atoms: C_10  and  C_11
REMARK    4  A    between atoms: C_11  and  O_12
REMARK    5  A    between atoms: C_19  and  C_24
REMARK    6  A    between atoms: N_20  and  C_21
REMARK    7  A    between atoms: C_21  and  C_22
REMARK    8  A    between atoms: C_22  and  O_23
REMARK                            x       y       z     vdW  Elec       q    Type
REMARK                         _______ _______ _______ _____ _____    ______ ____
ROOT
ATOM      1  C   UNL     1       1.206   2.163   0.199  0.00  0.00    +0.102 C 
ATOM      2  N   UNL     1       1.392   1.945  -1.071  0.00  0.00    -0.370 N 
ATOM      3  N   UNL     1       1.978   3.095   0.859  0.00  0.00    -0.313 N 
ATOM      4  C   UNL     1       3.299   2.730   1.390  0.00  0.00    +0.125 C 
ATOM      5  C   UNL     1       4.342   3.697   0.815  0.00  0.00    +0.125 C 
ATOM      6  N   UNL     1       3.860   5.072   0.999  0.00  0.00    -0.313 N 
ATOM      7  C   UNL     1       2.539   5.437   0.467  0.00  0.00    +0.125 C 
ATOM      8  C   UNL     1       1.498   4.472   1.038  0.00  0.00    +0.125 C 
ATOM      9  C   UNL     1       4.632   6.004   1.658  0.00  0.00    +0.102 C 
ATOM     10  N   UNL     1       4.579   6.092   2.957  0.00  0.00    -0.370 N 
ATOM     11  H   UNL     1       2.087   2.424  -1.549  0.00  0.00    +0.161 HD
ATOM     12  H   UNL     1       4.067   5.445   3.466  0.00  0.00    +0.161 HD
ENDROOT
BRANCH   1  14
ATOM     13  C   UNL     1      -1.108   1.259   0.389  0.00  0.00    +0.012 A 
ATOM     14  C   UNL     1       0.166   1.409   0.935  0.00  0.00    +0.013 A 
ATOM     15  C   UNL     1       0.457   0.846   2.178  0.00  0.00    +0.012 A 
ATOM     16  C   UNL     1      -0.515   0.144   2.859  0.00  0.00    +0.020 A 
ATOM     17  C   UNL     1      -1.779  -0.002   2.312  0.00  0.00    +0.041 A 
ATOM     18  C   UNL     1      -2.073   0.556   1.079  0.00  0.00    +0.020 A 
ATOM     19 CL   UNL     1      -2.998  -0.886   3.174  0.00  0.00    -0.084 Cl
ENDBRANCH   1  14
BRANCH   9  20
ATOM     20  C   UNL     1       5.521   6.905   0.891  0.00  0.00    +0.013 A 
ATOM     21  C   UNL     1       6.853   7.066   1.273  0.00  0.00    +0.012 A 
ATOM     22  C   UNL     1       7.677   7.907   0.554  0.00  0.00    +0.020 A 
ATOM     23  C   UNL     1       7.185   8.590  -0.545  0.00  0.00    +0.041 A 
ATOM     24  C   UNL     1       5.863   8.434  -0.929  0.00  0.00    +0.020 A 
ATOM     25  C   UNL     1       5.032   7.591  -0.221  0.00  0.00    +0.012 A 
ATOM     26 CL   UNL     1       8.228   9.646  -1.446  0.00  0.00    -0.084 Cl
ENDBRANCH   9  20
BRANCH   2  27
ATOM     27  C   UNL     1       0.551   0.977  -1.779  0.00  0.00    +0.141 C 
BRANCH  27  28
ATOM     28  C   UNL     1       1.091   0.772  -3.196  0.00  0.00    +0.176 C 
BRANCH  28  29
ATOM     29  O   UNL     1       2.385   0.171  -3.130  0.00  0.00    -0.393 OA
ATOM     30  H   UNL     1       2.789   0.012  -3.994  0.00  0.00    +0.209 HD
ENDBRANCH  28  29
ENDBRANCH  27  28
ENDBRANCH   2  27
BRANCH  10  31
ATOM     31  C   UNL     1       5.293   7.169   3.647  0.00  0.00    +0.141 C 
BRANCH  31  32
ATOM     32  C   UNL     1       5.002   7.094   5.148  0.00  0.00    +0.176 C 
BRANCH  32  33
ATOM     33  O   UNL     1       5.542   5.881   5.677  0.00  0.00    -0.393 OA
ATOM     34  H   UNL     1       5.395   5.766   6.626  0.00  0.00    +0.209 HD
ENDBRANCH  32  33
ENDBRANCH  31  32
ENDBRANCH  10  31
TORSDOF 8
