REMARK  Name = ZINC39927526
REMARK  4 active torsions:
REMARK  status: ('A' for Active; 'I' for Inactive)
REMARK    1  A    between atoms: C_4  and  C_7
REMARK    2  A    between atoms: C_7  and  N_8
REMARK    3  A    between atoms: C_19  and  C_24
REMARK    4  A    between atoms: C_21  and  N_23
REMARK                            x       y       z     vdW  Elec       q    Type
REMARK                         _______ _______ _______ _____ _____    ______ ____
ROOT
ATOM      1  N   UNL     1       4.152  -0.952   1.338  0.00  0.00    -0.323 N 
ATOM      2  C   UNL     1       4.940  -0.089   2.082  0.00  0.00    +0.143 A 
ATOM      3  C   UNL     1       5.195  -0.601   3.365  0.00  0.00    +0.092 A 
ATOM      4  N   UNL     1       5.924   0.065   4.228  0.00  0.00    -0.246 NA
ATOM      5  C   UNL     1       6.440   1.253   3.892  0.00  0.00    +0.090 A 
ATOM      6  C   UNL     1       7.225   1.986   4.797  0.00  0.00    +0.030 A 
ATOM      7  C   UNL     1       7.736   3.192   4.425  0.00  0.00    +0.002 A 
ATOM      8  C   UNL     1       7.491   3.712   3.155  0.00  0.00    +0.002 A 
ATOM      9  C   UNL     1       6.735   3.030   2.253  0.00  0.00    +0.030 A 
ATOM     10  C   UNL     1       6.191   1.781   2.601  0.00  0.00    +0.091 A 
ATOM     11  N   UNL     1       5.445   1.089   1.734  0.00  0.00    -0.229 NA
ATOM     12  C   UNL     1       4.504  -1.942   3.484  0.00  0.00    +0.109 C 
ATOM     13  C   UNL     1       3.816  -2.142   2.124  0.00  0.00    +0.031 C 
ENDROOT
BRANCH  12  14
ATOM     14  C   UNL     1       3.480  -1.910   4.589  0.00  0.00    +0.117 A 
ATOM     15  N   UNL     1       3.175  -2.918   5.352  0.00  0.00    -0.232 NA
ATOM     16  C   UNL     1       2.217  -2.546   6.240  0.00  0.00    +0.089 A 
ATOM     17  C   UNL     1       1.541  -3.214   7.264  0.00  0.00    +0.030 A 
ATOM     18  C   UNL     1       0.604  -2.551   8.006  0.00  0.00    +0.002 A 
ATOM     19  C   UNL     1       0.314  -1.219   7.753  0.00  0.00    +0.002 A 
ATOM     20  C   UNL     1       0.969  -0.540   6.746  0.00  0.00    +0.028 A 
ATOM     21  C   UNL     1       1.924  -1.196   5.983  0.00  0.00    +0.066 A 
ATOM     22  N   UNL     1       2.743  -0.821   4.937  0.00  0.00    -0.341 N 
ATOM     23  H   UNL     1       2.784   0.057   4.525  0.00  0.00    +0.167 HD
ENDBRANCH  12  14
BRANCH  13  24
ATOM     24  N   UNL     1       4.336  -3.349   1.467  0.00  0.00    +0.391 N 
ATOM     25  H   UNL     1       5.337  -3.270   1.362  0.00  0.00    -0.087 HD
ATOM     26  H   UNL     1       4.119  -4.158   2.029  0.00  0.00    -0.087 HD
ATOM     27  H   UNL     1       3.909  -3.447   0.558  0.00  0.00    -0.087 HD
ENDBRANCH  13  24
BRANCH   1  28
ATOM     28  C   UNL     1       3.711  -0.707  -0.038  0.00  0.00    +0.139 C 
BRANCH  28  32
ATOM     29  C   UNL     1      -0.017   1.378   0.010  0.00  0.00    +0.000 A 
ATOM     30  C   UNL     1       1.171   2.086   0.002  0.00  0.00    +0.000 A 
ATOM     31  C   UNL     1       2.377   1.411  -0.013  0.00  0.00    +0.005 A 
ATOM     32  C   UNL     1       2.396   0.029  -0.020  0.00  0.00    -0.030 A 
ATOM     33  C   UNL     1       1.208  -0.679  -0.012  0.00  0.00    +0.005 A 
ATOM     34  C   UNL     1       0.002  -0.004   0.002  0.00  0.00    +0.000 A 
ENDBRANCH  28  32
ENDBRANCH   1  28
TORSDOF 4
