REMARK  Name = ZINC00651418
REMARK  6 active torsions:
REMARK  status: ('A' for Active; 'I' for Inactive)
REMARK    1  A    between atoms: C_4  and  S_10
REMARK    2  A    between atoms: C_5  and  N_7
REMARK    3  A    between atoms: S_10  and  C_11
REMARK    4  A    between atoms: C_16  and  C_34
REMARK    5  A    between atoms: C_22  and  S_30
REMARK    6  A    between atoms: S_30  and  N_33
REMARK                            x       y       z     vdW  Elec       q    Type
REMARK                         _______ _______ _______ _____ _____    ______ ____
ROOT
ATOM      1  C   UNL     1      -2.795   0.935  -0.133  0.00  0.00    +0.070 C 
ATOM      2  C   UNL     1      -4.198   1.554  -0.390  0.00  0.00    +0.022 C 
ATOM      3  C   UNL     1      -4.800   1.623   1.015  0.00  0.00    +0.024 C 
ATOM      4  C   UNL     1      -6.315   1.669   1.106  0.00  0.00    +0.104 C 
ATOM      5  N   UNL     1      -6.634   1.663   2.549  0.00  0.00    -0.336 N 
ATOM      6  C   UNL     1      -5.847   0.945   3.457  0.00  0.00    +0.031 A 
ATOM      7  C   UNL     1      -6.199   0.941   4.803  0.00  0.00    +0.025 A 
ATOM      8  C   UNL     1      -5.421   0.270   5.723  0.00  0.00    +0.030 A 
ATOM      9  C   UNL     1      -4.286  -0.405   5.314  0.00  0.00    +0.105 A 
ATOM     10  C   UNL     1      -3.932  -0.413   3.977  0.00  0.00    +0.034 A 
ATOM     11  C   UNL     1      -4.706   0.251   3.049  0.00  0.00    -0.020 A 
ATOM     12  C   UNL     1      -4.366   0.252   1.603  0.00  0.00    +0.045 C 
ATOM     13  C   UNL     1      -2.904   0.145   1.198  0.00  0.00    +0.101 C 
ATOM     14 CL   UNL     1      -2.450  -1.581   0.941  0.00  0.00    -0.120 Cl
ATOM     15  H   UNL     1      -7.399   2.164   2.872  0.00  0.00    +0.147 HD
ENDROOT
BRANCH   4  16
ATOM     16  C   UNL     1      -6.836   2.929   0.464  0.00  0.00    -0.027 A 
ATOM     17  C   UNL     1      -6.807   4.122   1.160  0.00  0.00    +0.007 A 
ATOM     18  C   UNL     1      -7.279   5.279   0.570  0.00  0.00    +0.020 A 
ATOM     19  C   UNL     1      -7.792   5.240  -0.714  0.00  0.00    +0.041 A 
ATOM     20  C   UNL     1      -7.827   4.044  -1.409  0.00  0.00    +0.020 A 
ATOM     21  C   UNL     1      -7.348   2.889  -0.820  0.00  0.00    +0.007 A 
ATOM     22 CL   UNL     1      -8.393   6.692  -1.454  0.00  0.00    -0.084 Cl
ENDBRANCH   4  16
BRANCH   9  23
ATOM     23  S   UNL     1      -3.291  -1.253   6.495  0.00  0.00    +0.056 S 
ATOM     24  O   UNL     1      -4.135  -1.550   7.598  0.00  0.00    -0.153 OA
ATOM     25  O   UNL     1      -2.585  -2.260   5.782  0.00  0.00    -0.153 OA
BRANCH  23  26
ATOM     26  N   UNL     1      -2.156  -0.178   7.042  0.00  0.00    -0.204 NA
ATOM     27  H   UNL     1      -2.143   0.729   6.699  0.00  0.00    +0.144 HD
ATOM     28  H   UNL     1      -1.506  -0.455   7.705  0.00  0.00    +0.144 HD
ENDBRANCH  23  26
ENDBRANCH   9  23
BRANCH   1  29
ATOM     29  S   UNL     1      -1.553   2.248   0.022  0.00  0.00    -0.118 S 
BRANCH  29  33
ATOM     30  C   UNL     1       2.401   0.046  -0.150  0.00  0.00    +0.002 A 
ATOM     31  C   UNL     1       1.219  -0.640  -0.368  0.00  0.00    +0.001 A 
ATOM     32  C   UNL     1       0.012   0.028  -0.315  0.00  0.00    +0.017 A 
ATOM     33  C   UNL     1      -0.015   1.390  -0.041  0.00  0.00    +0.038 A 
ATOM     34  C   UNL     1       1.173   2.076   0.178  0.00  0.00    +0.140 A 
ATOM     35  C   UNL     1       2.377   1.401   0.122  0.00  0.00    +0.034 A 
BRANCH  34  36
ATOM     36  N   UNL     1       1.150   3.526   0.469  0.00  0.00    +0.058 N 
ATOM     37  O   UNL     1       2.192   4.126   0.661  0.00  0.00    -0.126 OA
ATOM     38  O   UNL     1       0.088   4.120   0.517  0.00  0.00    -0.126 OA
ENDBRANCH  34  36
ENDBRANCH  29  33
ENDBRANCH   1  29
TORSDOF 6
