REMARK  Name = ZINC64053184
REMARK  8 active torsions:
REMARK  status: ('A' for Active; 'I' for Inactive)
REMARK    1  A    between atoms: C_7  and  C_10
REMARK    2  A    between atoms: C_10  and  C_11
REMARK    3  A    between atoms: C_11  and  C_12
REMARK    4  A    between atoms: C_12  and  C_13
REMARK    5  A    between atoms: C_13  and  O_15
REMARK    6  A    between atoms: O_15  and  C_16
REMARK    7  A    between atoms: C_16  and  C_17
REMARK    8  A    between atoms: N_19  and  C_20
REMARK                            x       y       z     vdW  Elec       q    Type
REMARK                         _______ _______ _______ _____ _____    ______ ____
ROOT
ATOM      1  C   UNL     1      -2.644  -7.915  -4.562  0.00  0.00    +0.255 C 
ATOM      2  O   UNL     1      -3.108  -8.389  -3.547  0.00  0.00    -0.272 OA
ATOM      3  N   UNL     1      -2.959  -8.449  -5.759  0.00  0.00    -0.283 N 
ATOM      4  H   UNL     1      -2.642  -8.031  -6.575  0.00  0.00    +0.155 HD
ENDROOT
BRANCH   3   5
ATOM      5  C   UNL     1      -3.739  -9.603  -5.825  0.00  0.00    +0.034 A 
ATOM      6  C   UNL     1      -3.496 -10.548  -6.814  0.00  0.00    +0.024 A 
ATOM      7  C   UNL     1      -4.263 -11.694  -6.889  0.00  0.00    +0.014 A 
ATOM      8  C   UNL     1      -5.287 -11.908  -5.968  0.00  0.00    +0.033 A 
ATOM      9  C   UNL     1      -5.537 -10.953  -4.964  0.00  0.00    +0.035 A 
ATOM     10  C   UNL     1      -4.755  -9.806  -4.894  0.00  0.00    +0.035 A 
ATOM     11  C   UNL     1      -6.622 -11.175  -3.985  0.00  0.00    +0.195 C 
ATOM     12  O   UNL     1      -6.838 -10.351  -3.118  0.00  0.00    -0.287 OA
ATOM     13  C   UNL     1      -7.445 -12.400  -4.063  0.00  0.00    +0.033 A 
ATOM     14  C   UNL     1      -8.470 -12.617  -3.146  0.00  0.00    +0.012 A 
ATOM     15  C   UNL     1      -9.235 -13.767  -3.227  0.00  0.00    +0.001 A 
ATOM     16  C   UNL     1      -8.989 -14.704  -4.214  0.00  0.00    +0.001 A 
ATOM     17  C   UNL     1      -7.975 -14.504  -5.134  0.00  0.00    +0.012 A 
ATOM     18  C   UNL     1      -7.195 -13.353  -5.066  0.00  0.00    +0.033 A 
ATOM     19  C   UNL     1      -6.109 -13.130  -6.045  0.00  0.00    +0.195 C 
ATOM     20  O   UNL     1      -5.894 -13.954  -6.912  0.00  0.00    -0.287 OA
ENDBRANCH   3   5
BRANCH   1  21
ATOM     21  C   UNL     1      -1.717  -6.730  -4.486  0.00  0.00    +0.328 C 
BRANCH  21  22
ATOM     22  O   UNL     1      -1.540  -6.351  -3.120  0.00  0.00    -0.455 OA
BRANCH  22  23
ATOM     23  C   UNL     1      -0.736  -5.304  -2.878  0.00  0.00    +0.308 C 
ATOM     24  O   UNL     1      -0.200  -4.728  -3.795  0.00  0.00    -0.251 OA
BRANCH  23  25
ATOM     25  C   UNL     1      -0.501  -4.846  -1.461  0.00  0.00    +0.121 C 
BRANCH  25  26
ATOM     26  C   UNL     1       0.447  -3.644  -1.464  0.00  0.00    +0.015 C 
BRANCH  26  27
ATOM     27  C   UNL     1       0.685  -3.180  -0.026  0.00  0.00    +0.034 C 
BRANCH  27  34
ATOM     28  C   UNL     1      -0.052   1.349   0.025  0.00  0.00    +0.001 A 
ATOM     29  C   UNL     1       1.125   2.110   0.015  0.00  0.00    +0.002 A 
ATOM     30  C   UNL     1       2.354   1.552  -0.008  0.00  0.00    +0.026 A 
ATOM     31  C   UNL     1       2.501   0.138  -0.022  0.00  0.00    +0.043 A 
ATOM     32  N   UNL     1       3.564  -0.629  -0.045  0.00  0.00    -0.380 N 
ATOM     33  C   UNL     1       3.130  -2.031  -0.051  0.00  0.00    +0.144 C 
ATOM     34  C   UNL     1       1.618  -1.996  -0.028  0.00  0.00    -0.042 C 
ATOM     35  C   UNL     1       1.273  -0.689  -0.011  0.00  0.00    -0.001 A 
ATOM     36  C   UNL     1      -0.024  -0.003   0.014  0.00  0.00    +0.010 A 
ATOM     37  H   UNL     1       4.484  -0.322  -0.057  0.00  0.00    +0.160 HD
ENDBRANCH  27  34
ENDBRANCH  26  27
ENDBRANCH  25  26
ENDBRANCH  23  25
ENDBRANCH  22  23
ENDBRANCH  21  22
ENDBRANCH   1  21
TORSDOF 8
