REMARK  Name = ZINC11731128
REMARK  4 active torsions:
REMARK  status: ('A' for Active; 'I' for Inactive)
REMARK    1  A    between atoms: C_4  and  N_7
REMARK    2  A    between atoms: N_7  and  C_8
REMARK    3  A    between atoms: C_11  and  N_14
REMARK    4  A    between atoms: C_19  and  N_23
REMARK                            x       y       z     vdW  Elec       q    Type
REMARK                         _______ _______ _______ _____ _____    ______ ____
ROOT
ATOM      1  C   UNL     1       3.552   1.903  -0.076  0.00  0.00    +0.031 A 
ATOM      2  C   UNL     1       3.447   3.285   0.014  0.00  0.00    +0.025 A 
ATOM      3  C   UNL     1       4.583   4.068  -0.042  0.00  0.00    +0.025 A 
ATOM      4  C   UNL     1       5.829   3.475  -0.199  0.00  0.00    +0.030 A 
ATOM      5  C   UNL     1       5.933   2.093  -0.295  0.00  0.00    +0.025 A 
ATOM      6  C   UNL     1       4.798   1.310  -0.234  0.00  0.00    +0.025 A 
ENDROOT
BRANCH   4   7
ATOM      7  N   UNL     1       6.980   4.269  -0.262  0.00  0.00    -0.321 N 
ATOM      8  C   UNL     1       8.002   3.654  -1.138  0.00  0.00    +0.141 C 
ATOM      9  C   UNL     1       8.735   4.809  -1.784  0.00  0.00    -0.025 A 
ATOM     10  C   UNL     1       9.956   4.877  -2.429  0.00  0.00    +0.007 A 
ATOM     11  C   UNL     1      10.403   6.080  -2.939  0.00  0.00    +0.023 A 
ATOM     12  C   UNL     1       9.625   7.223  -2.805  0.00  0.00    +0.025 A 
ATOM     13  C   UNL     1       8.399   7.151  -2.156  0.00  0.00    +0.028 A 
ATOM     14  C   UNL     1       7.957   5.946  -1.648  0.00  0.00    -0.024 A 
ATOM     15  C   UNL     1       6.692   5.569  -0.909  0.00  0.00    +0.141 C 
BRANCH  12  16
ATOM     16  N   UNL     1      10.075   8.441  -3.320  0.00  0.00    -0.358 N 
ATOM     17  H   UNL     1       9.531   9.238  -3.224  0.00  0.00    +0.142 HD
ATOM     18  H   UNL     1      10.931   8.489  -3.772  0.00  0.00    +0.142 HD
ENDBRANCH  12  16
ENDBRANCH   4   7
BRANCH   1  19
ATOM     19  N   UNL     1       2.401   1.108  -0.015  0.00  0.00    -0.314 N 
ATOM     20  H   UNL     1       2.364   0.269  -0.500  0.00  0.00    +0.152 HD
BRANCH  19  24
ATOM     21  C   UNL     1      -0.865   2.348   2.251  0.00  0.00    +0.000 A 
ATOM     22  C   UNL     1      -1.065   1.606   1.101  0.00  0.00    +0.002 A 
ATOM     23  C   UNL     1       0.016   1.189   0.350  0.00  0.00    +0.023 A 
ATOM     24  C   UNL     1       1.305   1.524   0.745  0.00  0.00    +0.031 A 
ATOM     25  C   UNL     1       1.502   2.274   1.898  0.00  0.00    +0.023 A 
ATOM     26  C   UNL     1       0.416   2.683   2.647  0.00  0.00    +0.002 A 
ENDBRANCH  19  24
ENDBRANCH   1  19
TORSDOF 4
