REMARK  Name = ZINC44714120
REMARK  7 active torsions:
REMARK  status: ('A' for Active; 'I' for Inactive)
REMARK    1  A    between atoms: C_1  and  C_2
REMARK    2  A    between atoms: C_3  and  C_9
REMARK    3  A    between atoms: C_4  and  C_8
REMARK    4  A    between atoms: C_9  and  C_11
REMARK    5  A    between atoms: C_9  and  N_12
REMARK    6  A    between atoms: C_13  and  C_15
REMARK    7  A    between atoms: C_26  and  C_28
REMARK                            x       y       z     vdW  Elec       q    Type
REMARK                         _______ _______ _______ _____ _____    ______ ____
ROOT
ATOM      1  C   UNL     1       2.526  -1.343  -5.213  0.00  0.00    +0.100 C 
ATOM      2  C   UNL     1       1.927  -2.694  -5.663  0.00  0.00    +0.121 C 
ATOM      3  N   UNL     1       1.418  -2.441  -7.031  0.00  0.00    -0.297 N 
ATOM      4  C   UNL     1       2.442  -1.567  -7.650  0.00  0.00    +0.115 C 
ATOM      5  C   UNL     1       2.866  -0.607  -6.520  0.00  0.00    -0.004 C 
ATOM      6  C   UNL     1       2.079   0.696  -6.613  0.00  0.00    -0.010 C 
ATOM      7  C   UNL     1       2.476   1.437  -7.893  0.00  0.00    -0.082 C 
ATOM      8  N   UNL     1       3.918   1.713  -7.873  0.00  0.00    +0.379 N 
ATOM      9  C   UNL     1       4.669   0.452  -7.877  0.00  0.00    -0.082 C 
ATOM     10  C   UNL     1       4.364  -0.330  -6.596  0.00  0.00    -0.010 C 
ATOM     11  C   UNL     1       0.280  -2.902  -7.588  0.00  0.00    +0.260 C 
ATOM     12  O   UNL     1      -0.001  -2.604  -8.730  0.00  0.00    -0.271 OA
ATOM     13  H   UNL     1       4.167   2.254  -8.688  0.00  0.00    -0.086 HD
ATOM     14  H   UNL     1       4.147   2.237  -7.042  0.00  0.00    -0.086 HD
ENDROOT
BRANCH  11  15
ATOM     15  C   UNL     1      -0.643  -3.788  -6.792  0.00  0.00    +0.296 C 
ATOM     16  C   UNL     1       0.054  -5.120  -6.486  0.00  0.00    +0.283 C 
ATOM     17  O   UNL     1      -0.854  -5.941  -5.743  0.00  0.00    -0.484 OA
ATOM     18  C   UNL     1      -2.131  -6.016  -6.208  0.00  0.00    +0.162 A 
ATOM     19  C   UNL     1      -2.954  -7.046  -5.774  0.00  0.00    +0.049 A 
ATOM     20  C   UNL     1      -4.254  -7.134  -6.235  0.00  0.00    +0.004 A 
ATOM     21  C   UNL     1      -4.738  -6.196  -7.128  0.00  0.00    +0.004 A 
ATOM     22  C   UNL     1      -3.923  -5.169  -7.565  0.00  0.00    +0.049 A 
ATOM     23  C   UNL     1      -2.617  -5.076  -7.108  0.00  0.00    +0.163 A 
ATOM     24  O   UNL     1      -1.824  -4.062  -7.553  0.00  0.00    -0.473 OA
ENDBRANCH  11  15
BRANCH   1  26
ATOM     25  N   UNL     1       1.926   0.317  -3.480  0.00  0.00    -0.308 N 
ATOM     26  C   UNL     1       1.514  -0.559  -4.418  0.00  0.00    +0.219 C 
ATOM     27  O   UNL     1       0.329  -0.716  -4.622  0.00  0.00    -0.275 OA
ATOM     28  H   UNL     1       2.874   0.443  -3.317  0.00  0.00    +0.149 HD
BRANCH  25  29
ATOM     29  C   UNL     1       0.942   1.079  -2.707  0.00  0.00    +0.104 C 
ATOM     30  C   UNL     1       0.475   0.245  -1.513  0.00  0.00    +0.033 C 
BRANCH  29  33
ATOM     31  C   UNL     1      -0.350   3.927  -2.802  0.00  0.00    +0.065 C 
ATOM     32  C   UNL     1       1.012   3.587  -2.253  0.00  0.00    +0.038 A 
ATOM     33  C   UNL     1       1.571   2.356  -2.213  0.00  0.00    +0.015 A 
ATOM     34  C   UNL     1       2.837   2.478  -1.630  0.00  0.00    +0.065 A 
ATOM     35  N   UNL     1       3.031   3.737  -1.332  0.00  0.00    -0.179 NA
ATOM     36  N   UNL     1       1.894   4.458  -1.721  0.00  0.00    -0.281 N 
ATOM     37  H   UNL     1       1.764   5.414  -1.622  0.00  0.00    +0.189 HD
ATOM     38  C   UNL     1       3.810   1.353  -1.387  0.00  0.00    +0.068 C 
ENDBRANCH  29  33
ENDBRANCH  25  29
ENDBRANCH   1  26
TORSDOF 4
