REMARK  Name = ZINC08455643
REMARK  8 active torsions:
REMARK  status: ('A' for Active; 'I' for Inactive)
REMARK    1  A    between atoms: C_1  and  C_2
REMARK    2  A    between atoms: C_5  and  C_9
REMARK    3  A    between atoms: C_7  and  C_8
REMARK    4  A    between atoms: C_12  and  C_33
REMARK    5  A    between atoms: C_17  and  C_19
REMARK    6  A    between atoms: C_22  and  C_27
REMARK    7  A    between atoms: C_22  and  O_31
REMARK    8  A    between atoms: C_24  and  C_26
REMARK                            x       y       z     vdW  Elec       q    Type
REMARK                         _______ _______ _______ _____ _____    ______ ____
ROOT
ATOM      1  C   UNL     1       0.059  -4.275  -0.021  0.00  0.00    +0.104 C 
ATOM      2  C   UNL     1      -1.355  -4.807  -0.277  0.00  0.00    +0.063 C 
ATOM      3  C   UNL     1      -1.356  -6.339  -0.218  0.00  0.00    +0.215 C 
ATOM      4  N   UNL     1      -0.277  -6.846  -1.071  0.00  0.00    -0.238 N 
ATOM      5  C   UNL     1       0.787  -6.092  -1.476  0.00  0.00    +0.119 A 
ATOM      6  C   UNL     1       1.580  -6.864  -2.245  0.00  0.00    +0.078 A 
ATOM      7  C   UNL     1       0.988  -8.145  -2.318  0.00  0.00    +0.151 A 
ATOM      8  N   UNL     1      -0.127  -8.124  -1.609  0.00  0.00    -0.164 NA
ATOM      9  N   UNL     1       0.947  -4.754  -1.100  0.00  0.00    -0.322 N 
ATOM     10  H   UNL     1       1.598  -4.174  -1.524  0.00  0.00    +0.148 HD
ENDROOT
BRANCH   1  15
ATOM     11  C   UNL     1      -0.018   1.503   0.010  0.00  0.00    +0.044 C 
ATOM     12  C   UNL     1       0.002  -0.004   0.002  0.00  0.00    -0.048 A 
ATOM     13  C   UNL     1       0.006  -0.689  -1.199  0.00  0.00    +0.004 A 
ATOM     14  C   UNL     1       0.025  -2.071  -1.207  0.00  0.00    +0.006 A 
ATOM     15  C   UNL     1       0.040  -2.768  -0.013  0.00  0.00    -0.027 A 
ATOM     16  C   UNL     1       0.037  -2.084   1.188  0.00  0.00    +0.009 A 
ATOM     17  C   UNL     1       0.023  -0.702   1.195  0.00  0.00    -0.047 A 
ATOM     18  C   UNL     1       0.025   0.045   2.504  0.00  0.00    +0.044 C 
ENDBRANCH   1  15
BRANCH   7  19
ATOM     19  C   UNL     1       1.522  -9.306  -3.059  0.00  0.00    +0.289 C 
ATOM     20  O   UNL     1       2.562  -9.204  -3.680  0.00  0.00    -0.266 OA
ATOM     21  N   UNL     1       0.855 -10.477  -3.047  0.00  0.00    -0.147 N 
ATOM     22  C   UNL     1       1.275 -11.710  -3.734  0.00  0.00    +0.257 C 
ATOM     23  C   UNL     1       0.156 -12.710  -3.380  0.00  0.00    +0.118 C 
ATOM     24  C   UNL     1      -0.787 -11.905  -2.514  0.00  0.00    +0.039 C 
ATOM     25  N   UNL     1      -0.342 -10.724  -2.379  0.00  0.00    -0.183 NA
ATOM     26  C   UNL     1      -2.060 -12.428  -1.900  0.00  0.00    +0.062 C 
BRANCH  22  27
ATOM     27  C   UNL     1       1.343 -11.489  -5.247  0.00  0.00    +0.438 C 
ATOM     28  F   UNL     1       2.291 -10.500  -5.531  0.00  0.00    -0.166 F 
ATOM     29  F   UNL     1       1.711 -12.683  -5.876  0.00  0.00    -0.166 F 
ATOM     30  F   UNL     1       0.089 -11.082  -5.715  0.00  0.00    -0.166 F 
ENDBRANCH  22  27
BRANCH  22  31
ATOM     31  O   UNL     1       2.534 -12.163  -3.232  0.00  0.00    -0.363 OA
ATOM     32  H   UNL     1       3.259 -11.537  -3.365  0.00  0.00    +0.212 HD
ENDBRANCH  22  31
ENDBRANCH   7  19
BRANCH   3  33
ATOM     33  C   UNL     1      -2.701  -6.870  -0.718  0.00  0.00    +0.412 C 
ATOM     34  F   UNL     1      -2.905  -6.455  -2.038  0.00  0.00    -0.168 F 
ATOM     35  F   UNL     1      -2.699  -8.268  -0.663  0.00  0.00    -0.168 F 
ATOM     36  F   UNL     1      -3.728  -6.373   0.091  0.00  0.00    -0.168 F 
ENDBRANCH   3  33
TORSDOF 5
