REMARK  Name = ZINC20533504
REMARK  8 active torsions:
REMARK  status: ('A' for Active; 'I' for Inactive)
REMARK    1  A    between atoms: C_1  and  C_2
REMARK    2  A    between atoms: C_5  and  N_8
REMARK    3  A    between atoms: C_11  and  C_13
REMARK    4  A    between atoms: C_14  and  C_21
REMARK    5  A    between atoms: C_15  and  C_19
REMARK    6  A    between atoms: C_16  and  N_18
REMARK    7  A    between atoms: C_24  and  O_28
REMARK    8  A    between atoms: C_25  and  O_27
REMARK                            x       y       z     vdW  Elec       q    Type
REMARK                         _______ _______ _______ _____ _____    ______ ____
ROOT
ATOM      1  N   UNL     1      -2.300   2.198   2.663  0.00  0.00    -0.214 N 
ATOM      2  C   UNL     1      -1.143   2.169   3.397  0.00  0.00    +0.166 A 
ATOM      3  C   UNL     1      -0.136   1.704   2.531  0.00  0.00    +0.051 A 
ATOM      4  C   UNL     1      -0.742   1.466   1.277  0.00  0.00    +0.070 A 
ATOM      5  N   UNL     1      -2.007   1.764   1.365  0.00  0.00    -0.169 NA
ATOM      6  C   UNL     1      -0.042   0.958   0.043  0.00  0.00    +0.068 C 
ATOM      7  C   UNL     1       1.182   1.568   3.016  0.00  0.00    +0.015 A 
ATOM      8  C   UNL     1       1.427   1.908   4.359  0.00  0.00    +0.100 A 
ATOM      9  C   UNL     1       0.357   2.366   5.153  0.00  0.00    +0.137 A 
ATOM     10  N   UNL     1      -0.862   2.478   4.659  0.00  0.00    -0.212 NA
ENDROOT
BRANCH   1  15
ATOM     11  C   UNL     1      -7.399   3.824   4.551  0.00  0.00    +0.044 C 
ATOM     12  C   UNL     1      -6.045   3.392   4.050  0.00  0.00    -0.050 A 
ATOM     13  C   UNL     1      -5.673   3.664   2.746  0.00  0.00    +0.005 A 
ATOM     14  C   UNL     1      -4.433   3.269   2.283  0.00  0.00    +0.028 A 
ATOM     15  C   UNL     1      -3.559   2.599   3.129  0.00  0.00    +0.068 A 
ATOM     16  C   UNL     1      -3.937   2.323   4.436  0.00  0.00    +0.028 A 
ATOM     17  C   UNL     1      -5.176   2.725   4.894  0.00  0.00    +0.005 A 
ENDBRANCH   1  15
BRANCH   7  18
ATOM     18  C   UNL     1       2.271   1.083   2.142  0.00  0.00    -0.012 A 
ATOM     19  C   UNL     1       2.780   1.908   1.136  0.00  0.00    +0.012 A 
ATOM     20  C   UNL     1       3.795   1.455   0.321  0.00  0.00    +0.050 A 
ATOM     21  C   UNL     1       4.314   0.180   0.498  0.00  0.00    +0.158 A 
ATOM     22  C   UNL     1       3.812  -0.648   1.500  0.00  0.00    +0.159 A 
ATOM     23  C   UNL     1       2.796  -0.198   2.323  0.00  0.00    +0.057 A 
BRANCH  22  24
ATOM     24  O   UNL     1       4.323  -1.896   1.671  0.00  0.00    -0.503 OA
ATOM     25  H   UNL     1       3.926  -2.549   2.462  0.00  0.00    +0.292 HD
ENDBRANCH  22  24
BRANCH  21  26
ATOM     26  O   UNL     1       5.316  -0.262  -0.308  0.00  0.00    -0.503 OA
ATOM     27  H   UNL     1       5.728  -1.272  -0.169  0.00  0.00    +0.292 HD
ENDBRANCH  21  26
ENDBRANCH   7  18
BRANCH   9  28
ATOM     28  N   UNL     1       0.588   2.704   6.475  0.00  0.00    -0.342 N 
ATOM     29  H   UNL     1      -0.241   3.062   7.104  0.00  0.00    +0.144 HD
ATOM     30  H   UNL     1       1.599   2.614   6.897  0.00  0.00    +0.144 HD
ENDBRANCH   9  28
BRANCH   8  31
ATOM     31  C   UNL     1       2.744   1.792   4.910  0.00  0.00    +0.103 C 
ATOM     32  N   UNL     1       3.788   1.700   5.348  0.00  0.00    -0.191 NA
ENDBRANCH   8  31
TORSDOF 6
