REMARK  Name = ZINC20714514
REMARK  9 active torsions:
REMARK  status: ('A' for Active; 'I' for Inactive)
REMARK    1  A    between atoms: C_1  and  C_2
REMARK    2  A    between atoms: C_2  and  C_3
REMARK    3  A    between atoms: C_2  and  C_4
REMARK    4  A    between atoms: C_4  and  C_5
REMARK    5  A    between atoms: C_5  and  C_7
REMARK    6  A    between atoms: C_5  and  N_11
REMARK    7  A    between atoms: C_7  and  O_9
REMARK    8  A    between atoms: O_9  and  C_10
REMARK    9  A    between atoms: C_23  and  C_25
REMARK                            x       y       z     vdW  Elec       q    Type
REMARK                         _______ _______ _______ _____ _____    ______ ____
ROOT
ATOM      1  N   UNL     1      -0.212  -4.510  -0.573  0.00  0.00    -0.286 N 
ATOM      2  C   UNL     1      -0.298  -3.640  -1.598  0.00  0.00    +0.304 C 
ATOM      3  O   UNL     1      -0.901  -2.594  -1.459  0.00  0.00    -0.253 OA
ATOM      4  N   UNL     1       0.286  -3.929  -2.778  0.00  0.00    -0.273 N 
ATOM      5  C   UNL     1       0.306  -2.945  -3.871  0.00  0.00    +0.116 C 
ATOM      6  C   UNL     1      -0.508  -3.486  -5.052  0.00  0.00    +0.076 C 
ATOM      7  C   UNL     1      -0.129  -4.928  -5.285  0.00  0.00    +0.066 A 
ATOM      8  C   UNL     1       0.499  -5.707  -4.378  0.00  0.00    +0.064 A 
ATOM      9  N   UNL     1       0.665  -6.932  -4.945  0.00  0.00    -0.346 N 
ATOM     10  H   UNL     1       1.084  -7.706  -4.536  0.00  0.00    +0.167 HD
ATOM     11  C   UNL     1       0.134  -6.867  -6.188  0.00  0.00    +0.197 A 
ATOM     12  N   UNL     1      -0.338  -5.663  -6.382  0.00  0.00    -0.240 NA
ATOM     13  C   UNL     1       0.925  -5.238  -3.005  0.00  0.00    +0.158 C 
ATOM     14  H   UNL     1       0.206  -5.375  -0.705  0.00  0.00    +0.151 HD
ENDROOT
BRANCH  13  15
ATOM     15  C   UNL     1       2.424  -5.094  -2.949  0.00  0.00    -0.001 A 
ATOM     16  C   UNL     1       3.001  -3.840  -3.031  0.00  0.00    +0.007 A 
ATOM     17  C   UNL     1       4.376  -3.707  -2.980  0.00  0.00    +0.002 A 
ATOM     18  C   UNL     1       5.176  -4.827  -2.847  0.00  0.00    +0.021 A 
ATOM     19  C   UNL     1       4.600  -6.081  -2.765  0.00  0.00    +0.060 A 
ATOM     20  C   UNL     1       3.222  -6.215  -2.810  0.00  0.00    +0.065 A 
ATOM     21 CL   UNL     1       2.498  -7.788  -2.700  0.00  0.00    -0.082 Cl
ATOM     22 CL   UNL     1       5.604  -7.488  -2.599  0.00  0.00    -0.082 Cl
ENDBRANCH  13  15
BRANCH   1  23
ATOM     23  C   UNL     1      -0.751  -4.150   0.741  0.00  0.00    +0.183 C 
BRANCH  23  24
ATOM     24  C   UNL     1       0.281  -3.366   1.509  0.00  0.00    +0.327 C 
ATOM     25  O   UNL     1       1.357  -3.132   1.011  0.00  0.00    -0.249 OA
BRANCH  24  26
ATOM     26  O   UNL     1       0.006  -2.927   2.748  0.00  0.00    -0.467 OA
ATOM     27  C   UNL     1       1.031  -2.190   3.418  0.00  0.00    +0.280 C 
ENDBRANCH  24  26
ENDBRANCH  23  24
BRANCH  23  28
ATOM     28  C   UNL     1      -1.105  -5.422   1.514  0.00  0.00    +0.036 C 
BRANCH  28  30
ATOM     29  C   UNL     1      -2.510  -7.488   1.499  0.00  0.00    +0.007 C 
ATOM     30  C   UNL     1      -2.241  -6.155   0.797  0.00  0.00    -0.015 C 
ATOM     31  C   UNL     1      -3.505  -5.295   0.834  0.00  0.00    +0.007 C 
ENDBRANCH  28  30
ENDBRANCH  23  28
ENDBRANCH   1  23
TORSDOF 6
