REMARK  Name = ZINC05620159
REMARK  9 active torsions:
REMARK  status: ('A' for Active; 'I' for Inactive)
REMARK    1  A    between atoms: C_1  and  C_2
REMARK    2  A    between atoms: C_2  and  C_4
REMARK    3  A    between atoms: C_2  and  O_15
REMARK    4  A    between atoms: N_6  and  C_7
REMARK    5  A    between atoms: O_15  and  C_16
REMARK    6  A    between atoms: C_16  and  C_18
REMARK    7  A    between atoms: C_20  and  N_26
REMARK    8  A    between atoms: C_23  and  N_24
REMARK    9  A    between atoms: N_24  and  C_25
REMARK                            x       y       z     vdW  Elec       q    Type
REMARK                         _______ _______ _______ _____ _____    ______ ____
ROOT
ATOM      1  O   UNL     1      -2.631   1.283  -0.098  0.00  0.00    -0.449 OA
ENDROOT
BRANCH   1   3
ATOM      2  C   UNL     1      -4.390   2.140   1.352  0.00  0.00    +0.062 C 
ATOM      3  C   UNL     1      -3.886   2.013  -0.087  0.00  0.00    +0.259 C 
BRANCH   3   4
ATOM      4  C   UNL     1      -4.905   1.271  -0.913  0.00  0.00    +0.258 C 
ATOM      5  O   UNL     1      -4.633   0.186  -1.382  0.00  0.00    -0.271 OA
ATOM      6  N   UNL     1      -6.120   1.814  -1.130  0.00  0.00    -0.281 N 
ATOM      7  H   UNL     1      -6.310   2.715  -0.825  0.00  0.00    +0.155 HD
BRANCH   6   8
ATOM      8  C   UNL     1      -7.106   1.078  -1.797  0.00  0.00    +0.053 A 
ATOM      9  C   UNL     1      -7.066  -0.310  -1.783  0.00  0.00    +0.044 A 
ATOM     10  C   UNL     1      -8.042  -1.034  -2.443  0.00  0.00    +0.043 A 
ATOM     11  C   UNL     1      -9.058  -0.377  -3.115  0.00  0.00    +0.021 A 
ATOM     12  C   UNL     1      -9.100   1.004  -3.130  0.00  0.00    +0.023 A 
ATOM     13  C   UNL     1      -8.131   1.734  -2.468  0.00  0.00    +0.062 A 
ATOM     14 CL   UNL     1      -8.189   3.469  -2.482  0.00  0.00    -0.082 Cl
ATOM     15 CL   UNL     1      -7.993  -2.770  -2.426  0.00  0.00    -0.083 Cl
ENDBRANCH   6   8
ENDBRANCH   3   4
ENDBRANCH   1   3
BRANCH   1  16
ATOM     16  C   UNL     1      -1.500   2.007   0.017  0.00  0.00    +0.342 C 
ATOM     17  O   UNL     1      -1.562   3.216   0.124  0.00  0.00    -0.245 OA
BRANCH  16  18
ATOM     18  C   UNL     1      -0.191   1.334   0.014  0.00  0.00    +0.082 A 
ATOM     19  C   UNL     1      -0.117  -0.062   0.001  0.00  0.00    +0.049 A 
ATOM     20  C   UNL     1       1.111  -0.686  -0.007  0.00  0.00    +0.127 A 
ATOM     21  C   UNL     1       2.277   0.064  -0.003  0.00  0.00    +0.034 A 
ATOM     22  C   UNL     1       2.222   1.442   0.009  0.00  0.00    +0.026 A 
ATOM     23  C   UNL     1       0.993   2.090   0.018  0.00  0.00    +0.041 A 
BRANCH  23  24
ATOM     24  N   UNL     1       0.934   3.477   0.031  0.00  0.00    -0.346 N 
ATOM     25  C   UNL     1       2.166   4.263  -0.079  0.00  0.00    +0.125 C 
ATOM     26  H   UNL     1       0.079   3.926   0.112  0.00  0.00    +0.146 HD
ENDBRANCH  23  24
BRANCH  20  27
ATOM     27  N   UNL     1       1.186  -2.164  -0.022  0.00  0.00    +0.056 N 
ATOM     28  O   UNL     1       0.163  -2.826  -0.026  0.00  0.00    -0.126 OA
ATOM     29  O   UNL     1       2.270  -2.719  -0.029  0.00  0.00    -0.126 OA
ENDBRANCH  20  27
ENDBRANCH  16  18
ENDBRANCH   1  16
TORSDOF 7
