REMARK  Name = ZINC14547987
REMARK  5 active torsions:
REMARK  status: ('A' for Active; 'I' for Inactive)
REMARK    1  A    between atoms: C_1  and  O_2
REMARK    2  A    between atoms: O_2  and  C_3
REMARK    3  A    between atoms: C_3  and  C_5
REMARK    4  A    between atoms: C_12  and  C_21
REMARK    5  A    between atoms: C_30  and  O_31
REMARK                            x       y       z     vdW  Elec       q    Type
REMARK                         _______ _______ _______ _____ _____    ______ ____
ROOT
ATOM      1  C   UNL     1       3.467   1.252   1.542  0.00  0.00    +0.080 A 
ATOM      2  C   UNL     1       3.232  -0.121   1.600  0.00  0.00    +0.017 A 
ATOM      3  C   UNL     1       2.043  -0.639   1.135  0.00  0.00    +0.001 A 
ATOM      4  C   UNL     1       1.084   0.207   0.604  0.00  0.00    +0.006 A 
ATOM      5  C   UNL     1       1.299   1.566   0.535  0.00  0.00    -0.019 A 
ATOM      6  C   UNL     1       2.490   2.122   1.013  0.00  0.00    +0.045 A 
ATOM      7  N   UNL     1       2.766   3.478   1.024  0.00  0.00    -0.336 N 
ATOM      8  C   UNL     1       1.775   4.365   0.394  0.00  0.00    +0.109 C 
ATOM      9  C   UNL     1       0.405   3.826   0.749  0.00  0.00    +0.029 C 
ATOM     10  C   UNL     1       0.293   2.485  -0.042  0.00  0.00    +0.049 C 
ATOM     11  C   UNL     1      -1.162   2.200  -0.018  0.00  0.00    -0.023 C 
ATOM     12  C   UNL     1      -1.816   3.354   0.058  0.00  0.00    -0.030 C 
ATOM     13  C   UNL     1      -0.820   4.515   0.138  0.00  0.00    +0.033 C 
ATOM     14  H   UNL     1       2.993   3.794   1.955  0.00  0.00    +0.147 HD
ENDROOT
BRANCH   8  15
ATOM     15  C   UNL     1       1.958   4.358  -1.102  0.00  0.00    +0.022 A 
ATOM     16  C   UNL     1       1.358   5.354  -1.891  0.00  0.00    -0.009 A 
ATOM     17  C   UNL     1       0.590   6.379  -1.312  0.00  0.00    +0.009 A 
ATOM     18  C   UNL     1       0.028   7.330  -2.107  0.00  0.00    +0.001 A 
ATOM     19  C   UNL     1       0.206   7.308  -3.489  0.00  0.00    +0.001 A 
ATOM     20  C   UNL     1       0.948   6.334  -4.084  0.00  0.00    +0.008 A 
ATOM     21  C   UNL     1       1.544   5.334  -3.296  0.00  0.00    -0.017 A 
ATOM     22  C   UNL     1       2.317   4.313  -3.877  0.00  0.00    +0.012 A 
ATOM     23  C   UNL     1       2.880   3.361  -3.086  0.00  0.00    +0.046 A 
ATOM     24  C   UNL     1       2.702   3.381  -1.699  0.00  0.00    +0.122 A 
BRANCH  24  25
ATOM     25  O   UNL     1       3.278   2.416  -0.935  0.00  0.00    -0.506 OA
ATOM     26  H   UNL     1       2.770   1.594  -0.891  0.00  0.00    +0.292 HD
ENDBRANCH  24  25
ENDBRANCH   8  15
BRANCH   1  27
ATOM     27  C   UNL     1       4.743   1.798   2.034  0.00  0.00    +0.341 C 
ATOM     28  O   UNL     1       4.951   2.994   1.985  0.00  0.00    -0.245 OA
BRANCH  27  30
ATOM     29  C   UNL     1       6.913   1.579   3.006  0.00  0.00    +0.280 C 
ATOM     30  O   UNL     1       5.679   0.971   2.540  0.00  0.00    -0.464 OA
ENDBRANCH  27  30
ENDBRANCH   1  27
TORSDOF 4
