REMARK  Name = ZINC08775344
REMARK  3 active torsions:
REMARK  status: ('A' for Active; 'I' for Inactive)
REMARK    1  A    between atoms: C_1  and  C_2
REMARK    2  A    between atoms: C_4  and  C_8
REMARK    3  A    between atoms: N_5  and  O_7
REMARK                            x       y       z     vdW  Elec       q    Type
REMARK                         _______ _______ _______ _____ _____    ______ ____
ROOT
ATOM      1  C   UNL     1       3.481   0.876  -1.120  0.00  0.00    +0.089 C 
ATOM      2  C   UNL     1       2.076   0.781  -0.583  0.00  0.00    +0.143 C 
ATOM      3  C   UNL     1       1.348  -0.315  -0.624  0.00  0.00    +0.103 C 
ATOM      4  C   UNL     1       0.002  -0.004   0.002  0.00  0.00    +0.221 C 
ATOM      5  N   UNL     1      -0.018   1.482   0.010  0.00  0.00    +0.012 NA
ATOM      6  O   UNL     1       1.418   1.814  -0.002  0.00  0.00    -0.380 OA
ATOM      7 CL   UNL     1      -1.340  -0.656  -1.010  0.00  0.00    -0.083 Cl
ATOM      8 CL   UNL     1       1.841  -1.845  -1.279  0.00  0.00    -0.081 Cl
ENDROOT
BRANCH   4   9
ATOM      9  C   UNL     1      -0.077  -0.547   1.405  0.00  0.00    -0.002 A 
ATOM     10  C   UNL     1      -0.558  -1.824   1.626  0.00  0.00    +0.007 A 
ATOM     11  C   UNL     1      -0.626  -2.325   2.913  0.00  0.00    +0.000 A 
ATOM     12  C   UNL     1      -0.223  -1.544   3.980  0.00  0.00    +0.000 A 
ATOM     13  C   UNL     1       0.253  -0.265   3.760  0.00  0.00    +0.000 A 
ATOM     14  C   UNL     1       0.326   0.233   2.473  0.00  0.00    +0.007 A 
ENDBRANCH   4   9
BRANCH   5  15
ATOM     15  O   UNL     1      -0.664   1.991   1.220  0.00  0.00    -0.278 OA
ATOM     16  H   UNL     1      -0.701   2.956   1.270  0.00  0.00    +0.240 HD
ENDBRANCH   5  15
TORSDOF 2
