REMARK  Name = ZINC25168793
REMARK  5 active torsions:
REMARK  status: ('A' for Active; 'I' for Inactive)
REMARK    1  A    between atoms: C_1  and  O_2
REMARK    2  A    between atoms: O_2  and  C_3
REMARK    3  A    between atoms: C_3  and  C_5
REMARK    4  A    between atoms: C_5  and  N_11
REMARK    5  A    between atoms: C_12  and  C_14
REMARK                            x       y       z     vdW  Elec       q    Type
REMARK                         _______ _______ _______ _____ _____    ______ ____
ROOT
ATOM      1  N   UNL     1       4.768   0.800  -0.039  0.00  0.00    -0.295 N 
ATOM      2  C   UNL     1       3.775   1.711  -0.024  0.00  0.00    +0.253 C 
ATOM      3  O   UNL     1       4.038   2.899  -0.020  0.00  0.00    -0.270 OA
ATOM      4  H   UNL     1       4.529  -0.273  -0.043  0.00  0.00    +0.150 HD
ENDROOT
BRANCH   2   5
ATOM      5  C   UNL     1       2.375   1.270  -0.014  0.00  0.00    +0.093 A 
ATOM      6  C   UNL     1       1.246   2.031   0.001  0.00  0.00    +0.068 A 
ATOM      7  C   UNL     1      -0.017   1.411   0.010  0.00  0.00    +0.008 A 
ATOM      8  C   UNL     1      -1.296   2.025   0.031  0.00  0.00    +0.013 A 
ATOM      9  C   UNL     1      -2.427   1.275   0.033  0.00  0.00    +0.039 A 
ATOM     10  C   UNL     1      -2.380  -0.116   0.025  0.00  0.00    +0.124 A 
ATOM     11  C   UNL     1      -1.154  -0.755   0.009  0.00  0.00    +0.054 A 
ATOM     12  C   UNL     1       0.002  -0.004   0.002  0.00  0.00    +0.024 A 
ATOM     13  S   UNL     1       1.734  -0.395  -0.017  0.00  0.00    -0.082 S 
ATOM     14  F   UNL     1      -3.523  -0.837   0.032  0.00  0.00    -0.205 F 
ATOM     15 CL   UNL     1       1.365   3.763   0.009  0.00  0.00    -0.082 Cl
ENDBRANCH   2   5
BRANCH   1  16
ATOM     16  C   UNL     1       6.165   1.241  -0.049  0.00  0.00    +0.132 C 
ATOM     17  C   UNL     1       6.423   2.089  -1.296  0.00  0.00    +0.037 C 
ATOM     18  C   UNL     1       6.142   1.255  -2.548  0.00  0.00    +0.003 C 
ATOM     19  C   UNL     1       7.062   0.032  -2.563  0.00  0.00    +0.000 C 
ATOM     20  C   UNL     1       6.803  -0.816  -1.316  0.00  0.00    +0.003 C 
ATOM     21  C   UNL     1       7.085   0.018  -0.065  0.00  0.00    +0.037 C 
BRANCH  16  22
ATOM     22  C   UNL     1       6.442   2.062   1.183  0.00  0.00    +0.331 C 
ATOM     23  O   UNL     1       7.524   2.002   1.719  0.00  0.00    -0.248 OA
BRANCH  22  25
ATOM     24  C   UNL     1       5.825   3.623   2.875  0.00  0.00    +0.280 C 
ATOM     25  O   UNL     1       5.488   2.861   1.686  0.00  0.00    -0.466 OA
ENDBRANCH  22  25
ENDBRANCH  16  22
ENDBRANCH   1  16
TORSDOF 4
