REMARK  Name = ZINC13640011
REMARK  6 active torsions:
REMARK  status: ('A' for Active; 'I' for Inactive)
REMARK    1  A    between atoms: C_4  and  C_7
REMARK    2  A    between atoms: C_7  and  N_8
REMARK    3  A    between atoms: C_9  and  C_11
REMARK    4  A    between atoms: C_18  and  C_27
REMARK    5  A    between atoms: C_30  and  O_34
REMARK    6  A    between atoms: C_32  and  O_33
REMARK                            x       y       z     vdW  Elec       q    Type
REMARK                         _______ _______ _______ _____ _____    ______ ____
ROOT
ATOM      1  C   UNL     1       3.658  -2.962   1.615  0.00  0.00    +0.058 A 
ATOM      2  C   UNL     1       2.801  -4.052   1.754  0.00  0.00    +0.015 A 
ATOM      3  C   UNL     1       1.497  -3.966   1.319  0.00  0.00    +0.001 A 
ATOM      4  C   UNL     1       1.041  -2.795   0.735  0.00  0.00    +0.006 A 
ATOM      5  C   UNL     1       1.876  -1.710   0.583  0.00  0.00    -0.019 A 
ATOM      6  C   UNL     1       3.200  -1.765   1.027  0.00  0.00    +0.044 A 
ATOM      7  N   UNL     1       4.098  -0.715   0.932  0.00  0.00    -0.336 N 
ATOM      8  C   UNL     1       3.630   0.501   0.247  0.00  0.00    +0.108 C 
ATOM      9  C   UNL     1       2.184   0.708   0.647  0.00  0.00    +0.029 C 
ATOM     10  C   UNL     1       1.414  -0.456  -0.052  0.00  0.00    +0.049 C 
ATOM     11  C   UNL     1       0.002  -0.004   0.002  0.00  0.00    -0.023 C 
ATOM     12  C   UNL     1      -0.016   1.324   0.009  0.00  0.00    -0.030 C 
ATOM     13  C   UNL     1       1.416   1.865  -0.001  0.00  0.00    +0.033 C 
ATOM     14  H   UNL     1       4.980  -1.026   0.554  0.00  0.00    +0.147 HD
ENDROOT
BRANCH   8  15
ATOM     15  C   UNL     1       3.730   0.320  -1.246  0.00  0.00    +0.015 A 
ATOM     16  C   UNL     1       3.747  -0.951  -1.787  0.00  0.00    +0.012 A 
ATOM     17  C   UNL     1       3.838  -1.120  -3.155  0.00  0.00    +0.046 A 
ATOM     18  C   UNL     1       3.912  -0.013  -3.989  0.00  0.00    +0.120 A 
ATOM     19  C   UNL     1       3.895   1.263  -3.448  0.00  0.00    +0.091 A 
ATOM     20  C   UNL     1       3.798   1.430  -2.075  0.00  0.00    +0.125 A 
BRANCH  20  21
ATOM     21  O   UNL     1       3.776   2.680  -1.542  0.00  0.00    -0.506 OA
ATOM     22  H   UNL     1       4.650   3.032  -1.328  0.00  0.00    +0.292 HD
ENDBRANCH  20  21
BRANCH  18  23
ATOM     23  O   UNL     1       4.002  -0.180  -5.335  0.00  0.00    -0.507 OA
ATOM     24  H   UNL     1       3.147  -0.215  -5.785  0.00  0.00    +0.292 HD
ENDBRANCH  18  23
ENDBRANCH   8  15
BRANCH   1  26
ATOM     25  N   UNL     1       5.494  -4.205   2.646  0.00  0.00    -0.307 N 
ATOM     26  C   UNL     1       5.052  -3.062   2.084  0.00  0.00    +0.246 C 
ATOM     27  O   UNL     1       5.803  -2.114   1.963  0.00  0.00    -0.270 OA
ATOM     28  H   UNL     1       4.894  -4.961   2.742  0.00  0.00    +0.149 HD
BRANCH  25  29
ATOM     29  C   UNL     1       6.879  -4.304   3.112  0.00  0.00    +0.139 C 
BRANCH  29  33
ATOM     30  C   UNL     1       7.551  -8.185   4.765  0.00  0.00    +0.000 A 
ATOM     31  C   UNL     1       7.776  -7.958   3.420  0.00  0.00    +0.000 A 
ATOM     32  C   UNL     1       7.558  -6.702   2.885  0.00  0.00    +0.005 A 
ATOM     33  C   UNL     1       7.116  -5.673   3.695  0.00  0.00    -0.030 A 
ATOM     34  C   UNL     1       6.896  -5.899   5.041  0.00  0.00    +0.005 A 
ATOM     35  C   UNL     1       7.109  -7.156   5.575  0.00  0.00    +0.000 A 
ENDBRANCH  29  33
ENDBRANCH  25  29
ENDBRANCH   1  26
TORSDOF 6
