REMARK  Name = ZINC01296705
REMARK  5 active torsions:
REMARK  status: ('A' for Active; 'I' for Inactive)
REMARK    1  A    between atoms: C_4  and  C_7
REMARK    2  A    between atoms: C_13  and  C_27
REMARK    3  A    between atoms: C_14  and  C_21
REMARK    4  A    between atoms: C_16  and  C_19
REMARK    5  A    between atoms: C_17  and  N_18
REMARK                            x       y       z     vdW  Elec       q    Type
REMARK                         _______ _______ _______ _____ _____    ______ ____
ROOT
ATOM      1  C   UNL     1      -8.130   1.992  -1.190  0.00  0.00    +0.028 C 
ATOM      2  C   UNL     1      -6.865   2.416  -0.943  0.00  0.00    +0.079 A 
ATOM      3  C   UNL     1      -6.243   2.801   0.331  0.00  0.00    +0.271 A 
ATOM      4  O   UNL     1      -6.876   2.769   1.369  0.00  0.00    -0.266 OA
ATOM      5  N   UNL     1      -4.952   3.192   0.322  0.00  0.00    -0.257 N 
ATOM      6  C   UNL     1      -4.295   3.204  -0.892  0.00  0.00    +0.099 A 
ATOM      7  C   UNL     1      -3.000   3.570  -1.055  0.00  0.00    +0.057 C 
ATOM      8  C   UNL     1      -2.211   4.000   0.166  0.00  0.00    +0.100 C 
ATOM      9  C   UNL     1      -2.968   3.973   1.478  0.00  0.00    +0.079 C 
ATOM     10  C   UNL     1      -4.261   3.580   1.475  0.00  0.00    +0.118 C 
ATOM     11  S   UNL     1      -5.507   2.653  -2.077  0.00  0.00    -0.065 S 
ENDROOT
BRANCH   1  15
ATOM     12  C   UNL     1      -9.460   1.507  -5.187  0.00  0.00    +0.000 A 
ATOM     13  C   UNL     1     -10.076   0.803  -4.166  0.00  0.00    +0.001 A 
ATOM     14  C   UNL     1      -9.649   0.955  -2.864  0.00  0.00    +0.008 A 
ATOM     15  C   UNL     1      -8.591   1.824  -2.575  0.00  0.00    -0.024 A 
ATOM     16  C   UNL     1      -7.977   2.535  -3.612  0.00  0.00    +0.008 A 
ATOM     17  C   UNL     1      -8.412   2.368  -4.910  0.00  0.00    +0.001 A 
ENDBRANCH   1  15
BRANCH   8  18
ATOM     18  C   UNL     1      -1.012   3.096   0.294  0.00  0.00    -0.035 A 
ATOM     19  C   UNL     1      -1.187   1.741   0.506  0.00  0.00    +0.004 A 
ATOM     20  C   UNL     1      -0.087   0.913   0.628  0.00  0.00    +0.000 A 
ATOM     21  C   UNL     1       1.188   1.437   0.529  0.00  0.00    +0.000 A 
ATOM     22  C   UNL     1       1.363   2.791   0.312  0.00  0.00    +0.000 A 
ATOM     23  C   UNL     1       0.263   3.621   0.195  0.00  0.00    +0.004 A 
ENDBRANCH   8  18
BRANCH   7  24
ATOM     24  C   UNL     1      -2.406   3.552  -2.327  0.00  0.00    +0.241 C 
ATOM     25  O   UNL     1      -3.056   3.203  -3.298  0.00  0.00    -0.271 OA
ATOM     26  N   UNL     1      -1.118   3.920  -2.475  0.00  0.00    -0.326 N 
ATOM     27  H   UNL     1      -0.601   4.197  -1.702  0.00  0.00    +0.145 HD
ATOM     28  H   UNL     1      -0.708   3.907  -3.353  0.00  0.00    +0.145 HD
ENDBRANCH   7  24
BRANCH  10  29
ATOM     29  N   UNL     1      -4.934   3.560   2.672  0.00  0.00    -0.343 N 
ATOM     30  H   UNL     1      -5.895   3.693   2.690  0.00  0.00    +0.144 HD
ATOM     31  H   UNL     1      -4.449   3.414   3.499  0.00  0.00    +0.144 HD
ENDBRANCH  10  29
BRANCH   9  32
ATOM     32  C   UNL     1      -2.325   4.356   2.699  0.00  0.00    +0.099 C 
ATOM     33  N   UNL     1      -1.815   4.660   3.667  0.00  0.00    -0.191 NA
ENDBRANCH   9  32
TORSDOF 5
