REMARK  Name = ZINC39672976
REMARK  8 active torsions:
REMARK  status: ('A' for Active; 'I' for Inactive)
REMARK    1  A    between atoms: C_1  and  O_2
REMARK    2  A    between atoms: O_2  and  C_3
REMARK    3  A    between atoms: C_3  and  C_4
REMARK    4  A    between atoms: C_4  and  C_5
REMARK    5  A    between atoms: C_9  and  C_18
REMARK    6  A    between atoms: N_20  and  C_21
REMARK    7  A    between atoms: C_21  and  C_22
REMARK    8  A    between atoms: C_22  and  N_28
REMARK                            x       y       z     vdW  Elec       q    Type
REMARK                         _______ _______ _______ _____ _____    ______ ____
ROOT
ATOM      1  C   UNL     1      -2.653  -2.891  -0.413  0.00  0.00    +0.218 C 
ATOM      2  O   UNL     1      -3.672  -2.235  -0.450  0.00  0.00    -0.276 OA
ATOM      3  N   UNL     1      -2.720  -4.236  -0.353  0.00  0.00    -0.300 N 
ATOM      4  C   UNL     1      -1.595  -5.199  -0.295  0.00  0.00    +0.121 C 
ATOM      5  C   UNL     1      -2.063  -6.287   0.697  0.00  0.00    +0.100 C 
ATOM      6  C   UNL     1      -3.599  -6.209   0.668  0.00  0.00    -0.004 C 
ATOM      7  C   UNL     1      -3.934  -5.085  -0.323  0.00  0.00    +0.115 C 
ATOM      8  C   UNL     1      -4.186  -7.532   0.188  0.00  0.00    -0.010 C 
ATOM      9  C   UNL     1      -5.715  -7.449   0.223  0.00  0.00    -0.082 C 
ATOM     10  N   UNL     1      -6.160  -7.163   1.592  0.00  0.00    +0.379 N 
ATOM     11  C   UNL     1      -5.667  -5.846   2.013  0.00  0.00    -0.082 C 
ATOM     12  C   UNL     1      -4.136  -5.861   2.054  0.00  0.00    -0.010 C 
ATOM     13  H   UNL     1      -7.168  -7.169   1.625  0.00  0.00    -0.086 HD
ATOM     14  H   UNL     1      -5.801  -7.870   2.216  0.00  0.00    -0.086 HD
ENDROOT
BRANCH   5  15
ATOM     15  C   UNL     1      -1.596  -7.646   0.244  0.00  0.00    +0.218 C 
ATOM     16  O   UNL     1      -1.469  -7.880  -0.939  0.00  0.00    -0.275 OA
ATOM     17  N   UNL     1      -1.319  -8.601   1.154  0.00  0.00    -0.313 N 
ATOM     18  H   UNL     1      -1.421  -8.414   2.100  0.00  0.00    +0.149 HD
BRANCH  17  19
ATOM     19  C   UNL     1      -0.865  -9.923   0.714  0.00  0.00    +0.126 C 
BRANCH  19  20
ATOM     20  C   UNL     1      -0.743 -10.849   1.925  0.00  0.00    +0.038 C 
ATOM     21  C   UNL     1      -0.144 -12.187   1.485  0.00  0.00    +0.024 C 
ATOM     22  C   UNL     1      -1.054 -12.833   0.438  0.00  0.00    +0.002 C 
ATOM     23  C   UNL     1      -2.439 -13.069   1.042  0.00  0.00    +0.000 C 
ATOM     24  C   UNL     1      -3.038 -11.731   1.482  0.00  0.00    +0.002 C 
ATOM     25  C   UNL     1      -2.128 -11.085   2.529  0.00  0.00    +0.024 C 
BRANCH  20  26
ATOM     26  N   UNL     1       0.131 -10.229   2.929  0.00  0.00    -0.291 NA
ATOM     27  C   UNL     1       1.457  -9.936   2.366  0.00  0.00    +0.113 C 
ATOM     28  C   UNL     1       2.313  -9.238   3.426  0.00  0.00    +0.175 C 
ATOM     29  O   UNL     1       2.390 -10.065   4.590  0.00  0.00    -0.377 OA
ATOM     30  C   UNL     1       1.117 -10.370   5.165  0.00  0.00    +0.175 C 
ATOM     31  C   UNL     1       0.249 -11.080   4.123  0.00  0.00    +0.113 C 
ENDBRANCH  20  26
ENDBRANCH  19  20
ENDBRANCH  17  19
ENDBRANCH   5  15
BRANCH   1  32
ATOM     32  C   UNL     1      -1.313  -2.203  -0.435  0.00  0.00    +0.124 C 
BRANCH  32  33
ATOM     33  C   UNL     1      -1.518  -0.688  -0.505  0.00  0.00    +0.168 C 
BRANCH  33  35
ATOM     34  C   UNL     1      -0.326   1.390  -0.590  0.00  0.00    +0.194 C 
ATOM     35  O   UNL     1      -0.247  -0.035  -0.525  0.00  0.00    -0.382 OA
ENDBRANCH  33  35
ENDBRANCH  32  33
ENDBRANCH   1  32
TORSDOF 7
