REMARK  Name = ZINC06193538
REMARK  10 active torsions:
REMARK  status: ('A' for Active; 'I' for Inactive)
REMARK    1  A    between atoms: C_1  and  C_2
REMARK    2  A    between atoms: C_4  and  C_39
REMARK    3  A    between atoms: C_7  and  C_14
REMARK    4  A    between atoms: C_14  and  C_16
REMARK    5  A    between atoms: C_14  and  N_69
REMARK    6  A    between atoms: N_20  and  C_21
REMARK    7  A    between atoms: C_26  and  C_27
REMARK    8  A    between atoms: C_26  and  N_69
REMARK    9  A    between atoms: C_33  and  C_34
REMARK   10  A    between atoms: C_33  and  N_69
REMARK                            x       y       z     vdW  Elec       q    Type
REMARK                         _______ _______ _______ _____ _____    ______ ____
ROOT
ATOM      1  C   UNL     1       0.950  -1.440  -0.357  0.00  0.00    +0.040 C 
ENDROOT
BRANCH   1   8
ATOM      2  C   UNL     1      -1.458   5.992  -1.966  0.00  0.00    +0.044 C 
ATOM      3  C   UNL     1      -0.801   4.651  -1.762  0.00  0.00    -0.048 A 
ATOM      4  C   UNL     1       0.501   4.450  -2.199  0.00  0.00    +0.007 A 
ATOM      5  C   UNL     1       1.115   3.242  -2.023  0.00  0.00    -0.041 A 
ATOM      6  C   UNL     1       0.425   2.199  -1.397  0.00  0.00    +0.002 A 
ATOM      7  C   UNL     1       1.052   0.891  -1.194  0.00  0.00    +0.018 A 
ATOM      8  C   UNL     1       0.334  -0.083  -0.582  0.00  0.00    +0.011 A 
ATOM      9  C   UNL     1      -0.987   0.170  -0.154  0.00  0.00    +0.251 A 
ATOM     10  O   UNL     1      -1.614  -0.720   0.394  0.00  0.00    -0.268 OA
ATOM     11  N   UNL     1      -1.571   1.367  -0.337  0.00  0.00    -0.322 N 
ATOM     12  H   UNL     1      -2.482   1.506  -0.034  0.00  0.00    +0.169 HD
ATOM     13  C   UNL     1      -0.895   2.399  -0.953  0.00  0.00    +0.050 A 
ATOM     14  C   UNL     1      -1.500   3.637  -1.143  0.00  0.00    +0.029 A 
ATOM     15  C   UNL     1       2.529   3.035  -2.502  0.00  0.00    +0.044 C 
ENDBRANCH   1   8
BRANCH   1  16
ATOM     16  C   UNL     1       1.073  -1.696   1.123  0.00  0.00    +0.143 A 
ATOM     17  N   UNL     1       0.102  -2.005   1.947  0.00  0.00    -0.115 NA
ATOM     18  N   UNL     1       0.608  -2.145   3.124  0.00  0.00    -0.023 NA
ATOM     19  N   UNL     1       1.877  -1.933   3.071  0.00  0.00    -0.044 NA
ATOM     20  N   UNL     1       2.203  -1.659   1.853  0.00  0.00    -0.227 N 
BRANCH  20  21
ATOM     21  C   UNL     1       3.549  -1.359   1.359  0.00  0.00    +0.111 C 
ATOM     22  C   UNL     1       4.500  -2.534   1.670  0.00  0.00    +0.027 C 
ATOM     23  C   UNL     1       5.844  -1.850   2.025  0.00  0.00    +0.002 C 
ATOM     24  C   UNL     1       5.392  -0.598   2.818  0.00  0.00    +0.002 C 
ATOM     25  C   UNL     1       4.116  -0.129   2.088  0.00  0.00    +0.027 C 
ENDBRANCH  20  21
ENDBRANCH   1  16
BRANCH   1  26
ATOM     26  N   UNL     1       0.073  -2.473  -0.947  0.00  0.00    +0.397 N 
ATOM     27  H   UNL     1      -0.779  -2.552  -0.379  0.00  0.00    -0.079 HD
BRANCH  26  28
ATOM     28  C   UNL     1      -0.302  -2.090  -2.325  0.00  0.00    -0.039 C 
BRANCH  28  29
ATOM     29  C   UNL     1      -1.464  -2.943  -2.765  0.00  0.00    -0.046 A 
ATOM     30  C   UNL     1      -1.245  -4.140  -3.430  0.00  0.00    +0.005 A 
ATOM     31  C   UNL     1      -2.344  -4.894  -3.811  0.00  0.00    +0.020 A 
ATOM     32  C   UNL     1      -3.613  -4.426  -3.527  0.00  0.00    +0.111 A 
ATOM     33  N   UNL     1      -3.784  -3.281  -2.897  0.00  0.00    -0.263 NA
ATOM     34  C   UNL     1      -2.762  -2.540  -2.515  0.00  0.00    +0.112 A 
ENDBRANCH  28  29
ENDBRANCH  26  28
BRANCH  26  35
ATOM     35  C   UNL     1       0.766  -3.779  -0.957  0.00  0.00    -0.001 C 
BRANCH  35  36
ATOM     36  C   UNL     1       0.677  -4.381   0.421  0.00  0.00    +0.089 A 
ATOM     37  C   UNL     1      -0.370  -5.066   0.915  0.00  0.00    +0.042 A 
ATOM     38  C   UNL     1      -0.027  -5.445   2.233  0.00  0.00    +0.041 A 
ATOM     39  C   UNL     1       1.210  -4.970   2.466  0.00  0.00    +0.195 A 
ATOM     40  O   UNL     1       1.634  -4.332   1.363  0.00  0.00    -0.470 OA
ENDBRANCH  35  36
ENDBRANCH  26  35
ENDBRANCH   1  26
TORSDOF 8
