REMARK  Name = ZINC22527443
REMARK  6 active torsions:
REMARK  status: ('A' for Active; 'I' for Inactive)
REMARK    1  A    between atoms: C_1  and  C_2
REMARK    2  A    between atoms: C_2  and  C_31
REMARK    3  A    between atoms: N_5  and  C_9
REMARK    4  A    between atoms: C_9  and  C_10
REMARK    5  A    between atoms: N_12  and  C_13
REMARK    6  A    between atoms: C_13  and  C_14
REMARK                            x       y       z     vdW  Elec       q    Type
REMARK                         _______ _______ _______ _____ _____    ______ ____
ROOT
ATOM      1  C   UNL     1      -1.081  -5.699  -2.777  0.00  0.00    +0.231 C 
ATOM      2  O   UNL     1      -0.814  -6.560  -1.966  0.00  0.00    -0.274 OA
ATOM      3  N   UNL     1      -0.741  -4.417  -2.536  0.00  0.00    -0.314 N 
ATOM      4  H   UNL     1      -0.984  -3.636  -3.272  0.00  0.00    +0.149 HD
ENDROOT
BRANCH   1   5
ATOM      5  C   UNL     1      -1.795  -6.062  -4.054  0.00  0.00    +0.213 C 
BRANCH   5  10
ATOM      6  C   UNL     1      -2.994 -10.331  -2.500  0.00  0.00    +0.042 C 
ATOM      7  C   UNL     1      -2.995  -9.569  -3.827  0.00  0.00    +0.113 C 
ATOM      8  C   UNL     1      -3.166  -8.082  -3.587  0.00  0.00    +0.247 C 
ATOM      9  O   UNL     1      -4.110  -7.529  -3.065  0.00  0.00    -0.273 OA
ATOM     10  N   UNL     1      -2.051  -7.504  -4.077  0.00  0.00    -0.215 N 
ATOM     11  C   UNL     1      -1.211  -8.409  -4.591  0.00  0.00    +0.310 C 
ATOM     12  O   UNL     1      -0.141  -8.128  -5.095  0.00  0.00    -0.252 OA
ATOM     13  N   UNL     1      -1.681  -9.665  -4.485  0.00  0.00    -0.285 N 
ATOM     14  H   UNL     1      -1.283 -10.648  -4.779  0.00  0.00    +0.151 HD
BRANCH   7  15
ATOM     15  C   UNL     1      -4.098 -10.097  -4.747  0.00  0.00    +0.021 C 
ATOM     16  C   UNL     1      -5.204 -10.942  -4.113  0.00  0.00    +0.006 C 
ATOM     17  C   UNL     1      -4.146 -11.605  -4.999  0.00  0.00    +0.006 C 
ENDBRANCH   7  15
ENDBRANCH   5  10
ENDBRANCH   1   5
BRANCH   3  18
ATOM     18  C   UNL     1      -0.048  -4.064  -1.295  0.00  0.00    +0.108 C 
BRANCH  18  19
ATOM     19  C   UNL     1       0.221  -2.558  -1.271  0.00  0.00    +0.019 C 
ATOM     20  C   UNL     1      -1.111  -1.772  -1.253  0.00  0.00    +0.018 C 
ATOM     21  C   UNL     1      -1.233  -0.891   0.010  0.00  0.00    +0.050 C 
ATOM     22  C   UNL     1       0.002  -0.004   0.002  0.00  0.00    -0.036 A 
ATOM     23  C   UNL     1      -0.016   1.361   0.009  0.00  0.00    +0.004 A 
ATOM     24  C   UNL     1       1.191   2.047   0.002  0.00  0.00    +0.000 A 
ATOM     25  C   UNL     1       2.389   1.356  -0.013  0.00  0.00    +0.000 A 
ATOM     26  C   UNL     1       2.401  -0.033  -0.021  0.00  0.00    +0.004 A 
ATOM     27  C   UNL     1       1.210  -0.700  -0.014  0.00  0.00    -0.036 A 
ATOM     28  C   UNL     1       1.061  -2.214  -0.021  0.00  0.00    +0.054 C 
ATOM     29  C   UNL     1       0.168  -2.534   1.167  0.00  0.00    -0.036 A 
ATOM     30  C   UNL     1      -1.039  -1.838   1.183  0.00  0.00    -0.036 A 
ATOM     31  C   UNL     1      -1.939  -2.025   2.193  0.00  0.00    +0.004 A 
ATOM     32  C   UNL     1      -1.632  -2.924   3.206  0.00  0.00    +0.000 A 
ATOM     33  C   UNL     1      -0.435  -3.615   3.189  0.00  0.00    +0.000 A 
ATOM     34  C   UNL     1       0.477  -3.420   2.159  0.00  0.00    +0.004 A 
ENDBRANCH  18  19
ENDBRANCH   3  18
TORSDOF 5
