REMARK  Name = ZINC10001550
REMARK  11 active torsions:
REMARK  status: ('A' for Active; 'I' for Inactive)
REMARK    1  A    between atoms: C_1  and  C_2
REMARK    2  A    between atoms: C_2  and  C_3
REMARK    3  A    between atoms: C_2  and  C_4
REMARK    4  A    between atoms: C_4  and  C_6
REMARK    5  A    between atoms: C_4  and  N_26
REMARK    6  A    between atoms: N_8  and  N_9
REMARK    7  A    between atoms: C_10  and  C_11
REMARK    8  A    between atoms: C_16  and  O_17
REMARK    9  A    between atoms: O_17  and  C_18
REMARK   10  A    between atoms: C_18  and  C_19
REMARK   11  A    between atoms: C_27  and  C_29
REMARK                            x       y       z     vdW  Elec       q    Type
REMARK                         _______ _______ _______ _____ _____    ______ ____
ROOT
ATOM      1  C   UNL     1      -3.771   7.198   0.075  0.00  0.00    +0.253 C 
ATOM      2  O   UNL     1      -2.728   7.816   0.068  0.00  0.00    -0.272 OA
ATOM      3  N   UNL     1      -3.757   5.851   0.068  0.00  0.00    -0.205 N 
ATOM      4  H   UNL     1      -4.591   5.356   0.073  0.00  0.00    +0.177 HD
ENDROOT
BRANCH   3   5
ATOM      5  N   UNL     1      -2.536   5.163   0.053  0.00  0.00    -0.188 NA
ATOM      6  C   UNL     1      -2.522   3.865   0.046  0.00  0.00    +0.142 C 
BRANCH   6   7
ATOM      7  C   UNL     1      -1.237   3.143   0.031  0.00  0.00    +0.036 A 
ATOM      8  C   UNL     1      -1.218   1.746   0.017  0.00  0.00    +0.013 A 
ATOM      9  C   UNL     1      -0.013   1.076   0.008  0.00  0.00    +0.001 A 
ATOM     10  C   UNL     1       1.179   1.781   0.000  0.00  0.00    +0.004 A 
ATOM     11  C   UNL     1       1.173   3.163   0.008  0.00  0.00    +0.046 A 
ATOM     12  C   UNL     1      -0.029   3.853   0.023  0.00  0.00    +0.130 A 
BRANCH  12  13
ATOM     13  O   UNL     1      -0.036   5.211   0.031  0.00  0.00    -0.487 OA
BRANCH  13  14
ATOM     14  C   UNL     1       1.234   5.866   0.023  0.00  0.00    +0.264 C 
BRANCH  14  15
ATOM     15  C   UNL     1       1.028   7.359   0.033  0.00  0.00    -0.010 A 
ATOM     16  C   UNL     1       0.929   8.051  -1.159  0.00  0.00    +0.008 A 
ATOM     17  C   UNL     1       0.736   9.420  -1.150  0.00  0.00    +0.015 A 
ATOM     18  C   UNL     1       0.653  10.098   0.052  0.00  0.00    +0.018 A 
ATOM     19  C   UNL     1       0.758   9.406   1.245  0.00  0.00    +0.015 A 
ATOM     20  C   UNL     1       0.946   8.037   1.235  0.00  0.00    +0.008 A 
ATOM     21 BR   UNL     1       0.395  11.972   0.065  0.00  0.00    -0.050 Br
ENDBRANCH  14  15
ENDBRANCH  13  14
ENDBRANCH  12  13
ENDBRANCH   6   7
ENDBRANCH   3   5
BRANCH   1  22
ATOM     22  C   UNL     1      -5.085   7.937   0.091  0.00  0.00    +0.163 C 
BRANCH  22  23
ATOM     23  N   UNL     1      -4.833   9.380   0.096  0.00  0.00    -0.300 N 
ATOM     24  C   UNL     1      -5.763  10.229  -0.385  0.00  0.00    +0.245 C 
ATOM     25  O   UNL     1      -6.812   9.796  -0.822  0.00  0.00    -0.270 OA
ATOM     26  H   UNL     1      -3.996   9.726   0.445  0.00  0.00    +0.150 HD
BRANCH  24  27
ATOM     27  C   UNL     1      -5.509  11.685  -0.380  0.00  0.00    +0.037 A 
ATOM     28  C   UNL     1      -4.309  12.185   0.127  0.00  0.00    +0.013 A 
ATOM     29  C   UNL     1      -4.075  13.545   0.124  0.00  0.00    +0.001 A 
ATOM     30  C   UNL     1      -5.033  14.413  -0.370  0.00  0.00    +0.000 A 
ATOM     31  C   UNL     1      -6.228  13.924  -0.869  0.00  0.00    +0.001 A 
ATOM     32  C   UNL     1      -6.471  12.566  -0.877  0.00  0.00    +0.013 A 
ENDBRANCH  24  27
ENDBRANCH  22  23
BRANCH  22  34
ATOM     33  C   UNL     1      -5.119   8.037   2.587  0.00  0.00    +0.009 C 
ATOM     34  C   UNL     1      -5.871   7.553   1.345  0.00  0.00    +0.012 C 
ATOM     35  C   UNL     1      -7.254   8.205   1.300  0.00  0.00    +0.009 C 
ENDBRANCH  22  34
ENDBRANCH   1  22
TORSDOF 9
