REMARK  Name = ZINC11217696
REMARK  13 active torsions:
REMARK  status: ('A' for Active; 'I' for Inactive)
REMARK    1  A    between atoms: C_1  and  C_2
REMARK    2  A    between atoms: C_2  and  C_4
REMARK    3  A    between atoms: C_2  and  N_71
REMARK    4  A    between atoms: C_7  and  S_15
REMARK    5  A    between atoms: N_8  and  C_9
REMARK    6  A    between atoms: S_15  and  C_16
REMARK    7  A    between atoms: C_16  and  C_17
REMARK    8  A    between atoms: N_19  and  C_20
REMARK    9  A    between atoms: C_20  and  C_21
REMARK   10  A    between atoms: C_21  and  C_22
REMARK   11  A    between atoms: C_22  and  N_23
REMARK   12  A    between atoms: N_23  and  C_24
REMARK   13  A    between atoms: N_23  and  C_25
REMARK                            x       y       z     vdW  Elec       q    Type
REMARK                         _______ _______ _______ _____ _____    ______ ____
ROOT
ATOM      1  C   UNL     1      -2.083   2.494 -10.762  0.00  0.00    +0.125 A 
ATOM      2  N   UNL     1      -2.787   2.981  -9.780  0.00  0.00    -0.135 NA
ATOM      3  N   UNL     1      -2.277   2.631  -8.653  0.00  0.00    -0.122 NA
ATOM      4  C   UNL     1      -1.208   1.896  -8.855  0.00  0.00    +0.197 A 
ATOM      5  N   UNL     1      -1.046   1.790 -10.210  0.00  0.00    -0.275 N 
ENDROOT
BRANCH   5   6
ATOM      6  C   UNL     1      -0.032   1.101 -10.890  0.00  0.00    +0.050 A 
ATOM      7  C   UNL     1       0.878   1.798 -11.673  0.00  0.00    +0.026 A 
ATOM      8  C   UNL     1       1.880   1.117 -12.338  0.00  0.00    +0.002 A 
ATOM      9  C   UNL     1       1.969  -0.259 -12.233  0.00  0.00    +0.000 A 
ATOM     10  C   UNL     1       1.060  -0.957 -11.459  0.00  0.00    +0.002 A 
ATOM     11  C   UNL     1       0.060  -0.281 -10.787  0.00  0.00    +0.026 A 
ENDBRANCH   5   6
BRANCH   1  13
ATOM     12  C   UNL     1      -1.957   4.095 -12.652  0.00  0.00    -0.005 C 
ATOM     13  C   UNL     1      -2.354   2.678 -12.233  0.00  0.00    -0.002 C 
BRANCH  13  19
ATOM     14  C   UNL     1      -4.225   1.157 -12.014  0.00  0.00    -0.078 C 
ATOM     15  C   UNL     1      -5.742   1.036 -12.172  0.00  0.00    -0.019 C 
ATOM     16  C   UNL     1      -6.113   1.211 -13.648  0.00  0.00    -0.004 C 
ATOM     17  C   UNL     1      -5.601   2.568 -14.137  0.00  0.00    -0.019 C 
ATOM     18  C   UNL     1      -4.087   2.645 -13.923  0.00  0.00    -0.078 C 
ATOM     19  N   UNL     1      -3.799   2.494 -12.481  0.00  0.00    +0.386 N 
ATOM     20  H   UNL     1      -4.320   3.210 -11.960  0.00  0.00    -0.081 HD
ENDBRANCH  13  19
ENDBRANCH   1  13
BRANCH   4  21
ATOM     21  S   UNL     1      -0.174   1.187  -7.617  0.00  0.00    -0.076 S 
BRANCH  21  22
ATOM     22  C   UNL     1      -1.021   1.771  -6.128  0.00  0.00    +0.173 C 
BRANCH  22  23
ATOM     23  C   UNL     1      -0.292   1.272  -4.907  0.00  0.00    +0.223 C 
ATOM     24  O   UNL     1       0.702   0.589  -5.032  0.00  0.00    -0.275 OA
ATOM     25  N   UNL     1      -0.745   1.585  -3.677  0.00  0.00    -0.315 N 
ATOM     26  H   UNL     1      -1.540   2.131  -3.578  0.00  0.00    +0.149 HD
BRANCH  25  27
ATOM     27  C   UNL     1      -0.037   1.099  -2.490  0.00  0.00    +0.106 C 
BRANCH  27  28
ATOM     28  C   UNL     1      -0.753   1.593  -1.232  0.00  0.00    +0.037 C 
BRANCH  28  29
ATOM     29  C   UNL     1      -0.013   1.086   0.008  0.00  0.00    +0.106 C 
BRANCH  29  30
ATOM     30  N   UNL     1      -0.698   1.558   1.213  0.00  0.00    -0.333 N 
ATOM     31  C   UNL     1      -0.323   2.840   1.815  0.00  0.00    +0.129 C 
BRANCH  30  32
ATOM     32  C   UNL     1      -1.710   0.786   1.789  0.00  0.00    +0.029 A 
ATOM     33  C   UNL     1      -2.071  -0.427   1.217  0.00  0.00    +0.023 A 
ATOM     34  C   UNL     1      -3.069  -1.190   1.791  0.00  0.00    +0.002 A 
ATOM     35  C   UNL     1      -3.715  -0.742   2.929  0.00  0.00    +0.000 A 
ATOM     36  C   UNL     1      -3.362   0.468   3.498  0.00  0.00    +0.002 A 
ATOM     37  C   UNL     1      -2.361   1.233   2.932  0.00  0.00    +0.023 A 
ENDBRANCH  30  32
ENDBRANCH  29  30
ENDBRANCH  28  29
ENDBRANCH  27  28
ENDBRANCH  25  27
ENDBRANCH  22  23
ENDBRANCH  21  22
ENDBRANCH   4  21
TORSDOF 11
