REMARK  Name = ZINC38850146
REMARK  14 active torsions:
REMARK  status: ('A' for Active; 'I' for Inactive)
REMARK    1  A    between atoms: C_1  and  C_2
REMARK    2  A    between atoms: C_2  and  O_3
REMARK    3  A    between atoms: O_3  and  C_4
REMARK    4  A    between atoms: N_13  and  C_14
REMARK    5  A    between atoms: C_14  and  C_15
REMARK    6  A    between atoms: C_15  and  C_16
REMARK    7  A    between atoms: C_16  and  N_17
REMARK    8  A    between atoms: N_17  and  C_18
REMARK    9  A    between atoms: N_17  and  C_19
REMARK   10  A    between atoms: C_20  and  C_22
REMARK   11  A    between atoms: C_25  and  S_28
REMARK   12  A    between atoms: S_28  and  N_31
REMARK   13  A    between atoms: N_31  and  C_32
REMARK   14  A    between atoms: N_31  and  C_33
REMARK                            x       y       z     vdW  Elec       q    Type
REMARK                         _______ _______ _______ _____ _____    ______ ____
ROOT
ATOM      1  C   UNL     1      -2.500  -1.738   0.783  0.00  0.00    +0.122 A 
ATOM      2  C   UNL     1      -1.296  -2.399   0.561  0.00  0.00    +0.048 A 
ATOM      3  C   UNL     1      -1.256  -3.745   0.307  0.00  0.00    +0.032 A 
ATOM      4  C   UNL     1      -2.445  -4.509   0.262  0.00  0.00    +0.081 A 
ATOM      5  C   UNL     1      -3.649  -3.807   0.491  0.00  0.00    +0.044 A 
ATOM      6  C   UNL     1      -3.685  -2.459   0.751  0.00  0.00    +0.063 A 
ATOM      7  S   UNL     1      -4.869  -5.092   0.353  0.00  0.00    -0.052 S 
ATOM      8  C   UNL     1      -3.742  -6.435   0.010  0.00  0.00    +0.168 A 
ATOM      9  N   UNL     1      -2.576  -5.834   0.026  0.00  0.00    -0.224 NA
ATOM     10  N   UNL     1      -4.027  -7.772  -0.215  0.00  0.00    -0.246 N 
ATOM     11  C   UNL     1      -5.303  -8.202  -0.190  0.00  0.00    +0.252 C 
ATOM     12  O   UNL     1      -6.210  -7.406  -0.043  0.00  0.00    -0.270 OA
ENDROOT
BRANCH  11  13
ATOM     13  C   UNL     1      -5.601  -9.642  -0.340  0.00  0.00    +0.037 A 
ATOM     14  C   UNL     1      -4.789 -10.594   0.280  0.00  0.00    +0.015 A 
ATOM     15  C   UNL     1      -5.073 -11.937   0.136  0.00  0.00    +0.029 A 
ATOM     16  C   UNL     1      -6.159 -12.340  -0.620  0.00  0.00    +0.106 A 
ATOM     17  C   UNL     1      -6.968 -11.402  -1.237  0.00  0.00    +0.029 A 
ATOM     18  C   UNL     1      -6.698 -10.056  -1.097  0.00  0.00    +0.015 A 
BRANCH  16  19
ATOM     19  S   UNL     1      -6.514 -14.057  -0.798  0.00  0.00    +0.061 S 
ATOM     20  O   UNL     1      -7.260 -14.195  -2.000  0.00  0.00    -0.153 OA
ATOM     21  O   UNL     1      -5.293 -14.749  -0.575  0.00  0.00    -0.153 OA
BRANCH  19  22
ATOM     22  N   UNL     1      -7.530 -14.478   0.441  0.00  0.00    -0.177 NA
ATOM     23  C   UNL     1      -8.981 -14.382   0.263  0.00  0.00    +0.132 C 
BRANCH  22  24
ATOM     24  C   UNL     1      -6.978 -14.947   1.714  0.00  0.00    +0.080 C 
ATOM     25  C   UNL     1      -7.958 -15.510   2.744  0.00  0.00    +0.022 C 
ATOM     26  C   UNL     1      -7.315 -14.140   2.970  0.00  0.00    +0.022 C 
ENDBRANCH  22  24
ENDBRANCH  19  22
ENDBRANCH  16  19
ENDBRANCH  11  13
BRANCH   1  27
ATOM     27  O   UNL     1      -2.515  -0.402   1.034  0.00  0.00    -0.492 OA
BRANCH  27  29
ATOM     28  C   UNL     1      -1.470   1.755   1.346  0.00  0.00    +0.048 C 
ATOM     29  C   UNL     1      -1.254   0.270   1.050  0.00  0.00    +0.225 C 
ENDBRANCH  27  29
ENDBRANCH   1  27
BRANCH  10  30
ATOM     30  C   UNL     1      -2.940  -8.718  -0.481  0.00  0.00    +0.114 C 
BRANCH  30  31
ATOM     31  C   UNL     1      -2.183  -9.003   0.818  0.00  0.00    +0.001 C 
BRANCH  31  32
ATOM     32  C   UNL     1      -1.147 -10.102   0.574  0.00  0.00    -0.078 C 
BRANCH  32  33
ATOM     33  N   UNL     1      -0.420 -10.375   1.821  0.00  0.00    +0.376 N 
ATOM     34  C   UNL     1      -1.347 -10.929   2.817  0.00  0.00    -0.097 C 
ATOM     35  C   UNL     1       0.653 -11.344   1.560  0.00  0.00    -0.097 C 
ATOM     36  H   UNL     1      -0.021  -9.518   2.173  0.00  0.00    -0.083 HD
ENDBRANCH  32  33
ENDBRANCH  31  32
ENDBRANCH  30  31
ENDBRANCH  10  30
TORSDOF 10
