REMARK  Name = ZINC19848725
REMARK  4 active torsions:
REMARK  status: ('A' for Active; 'I' for Inactive)
REMARK    1  A    between atoms: C_4  and  N_7
REMARK    2  A    between atoms: C_16  and  C_27
REMARK    3  A    between atoms: C_16  and  C_31
REMARK    4  A    between atoms: C_18  and  C_20
REMARK                            x       y       z     vdW  Elec       q    Type
REMARK                         _______ _______ _______ _____ _____    ______ ____
ROOT
ATOM      1  N   UNL     1       3.177  -0.879  -0.360  0.00  0.00    -0.250 N 
ATOM      2  C   UNL     1       3.377  -2.215  -0.109  0.00  0.00    +0.124 A 
ATOM      3  C   UNL     1       4.641  -2.725  -0.131  0.00  0.00    +0.100 A 
ATOM      4  C   UNL     1       5.717  -1.868  -0.420  0.00  0.00    +0.262 A 
ATOM      5  O   UNL     1       6.856  -2.300  -0.452  0.00  0.00    -0.267 OA
ATOM      6  N   UNL     1       5.479  -0.563  -0.662  0.00  0.00    -0.274 N 
ATOM      7  H   UNL     1       6.219   0.031  -0.862  0.00  0.00    +0.173 HD
ATOM      8  C   UNL     1       4.224  -0.078  -0.636  0.00  0.00    +0.335 A 
ATOM      9  O   UNL     1       4.033   1.101  -0.859  0.00  0.00    -0.246 OA
ATOM     10  C   UNL     1       4.886  -4.179   0.154  0.00  0.00    +0.285 C 
ATOM     11  N   UNL     1       3.655  -4.952   0.060  0.00  0.00    -0.239 NA
ATOM     12  C   UNL     1       2.479  -4.412   0.068  0.00  0.00    +0.128 C 
ATOM     13  N   UNL     1       2.314  -3.045   0.160  0.00  0.00    -0.285 N 
ATOM     14  H   UNL     1       1.455  -2.672   0.412  0.00  0.00    +0.155 HD
ENDROOT
BRANCH  12  15
ATOM     15  C   UNL     1       1.284  -5.280  -0.025  0.00  0.00    +0.015 A 
ATOM     16  C   UNL     1       0.008  -4.717  -0.024  0.00  0.00    +0.013 A 
ATOM     17  C   UNL     1      -1.103  -5.530  -0.110  0.00  0.00    +0.020 A 
ATOM     18  C   UNL     1      -0.952  -6.904  -0.197  0.00  0.00    +0.041 A 
ATOM     19  C   UNL     1       0.312  -7.469  -0.198  0.00  0.00    +0.020 A 
ATOM     20  C   UNL     1       1.430  -6.664  -0.118  0.00  0.00    +0.013 A 
ATOM     21 CL   UNL     1      -2.354  -7.922  -0.305  0.00  0.00    -0.084 Cl
ENDBRANCH  12  15
BRANCH   1  25
ATOM     22  C   UNL     1      -0.682   0.694  -0.286  0.00  0.00    +0.000 A 
ATOM     23  C   UNL     1      -0.170   0.178  -1.463  0.00  0.00    +0.002 A 
ATOM     24  C   UNL     1       1.109  -0.344  -1.490  0.00  0.00    +0.026 A 
ATOM     25  C   UNL     1       1.880  -0.350  -0.336  0.00  0.00    +0.053 A 
ATOM     26  C   UNL     1       1.363   0.168   0.844  0.00  0.00    +0.026 A 
ATOM     27  C   UNL     1       0.083   0.689   0.865  0.00  0.00    +0.002 A 
ENDBRANCH   1  25
BRANCH  10  28
ATOM     28  C   UNL     1       5.898  -4.725  -0.856  0.00  0.00    +0.428 C 
ATOM     29  F   UNL     1       7.181  -4.282  -0.515  0.00  0.00    -0.167 F 
ATOM     30  F   UNL     1       5.868  -6.123  -0.838  0.00  0.00    -0.167 F 
ATOM     31  F   UNL     1       5.572  -4.267  -2.137  0.00  0.00    -0.167 F 
ENDBRANCH  10  28
BRANCH  10  32
ATOM     32  C   UNL     1       5.461  -4.323   1.565  0.00  0.00    +0.428 C 
ATOM     33  F   UNL     1       4.551  -3.808   2.494  0.00  0.00    -0.167 F 
ATOM     34  F   UNL     1       5.692  -5.675   1.839  0.00  0.00    -0.167 F 
ATOM     35  F   UNL     1       6.666  -3.617   1.651  0.00  0.00    -0.167 F 
ENDBRANCH  10  32
TORSDOF 4
