REMARK  Name = ZINC01884173
REMARK  14 active torsions:
REMARK  status: ('A' for Active; 'I' for Inactive)
REMARK    1  A    between atoms: C_1  and  C_2
REMARK    2  A    between atoms: C_7  and  N_12
REMARK    3  A    between atoms: C_9  and  C_11
REMARK    4  A    between atoms: C_18  and  C_20
REMARK    5  A    between atoms: C_18  and  C_21
REMARK    6  A    between atoms: C_22  and  C_25
REMARK    7  A    between atoms: C_22  and  N_29
REMARK    8  A    between atoms: C_30  and  C_32
REMARK    9  A    between atoms: C_34  and  O_42
REMARK   10  A    between atoms: C_35  and  O_40
REMARK   11  A    between atoms: C_36  and  O_38
REMARK   12  A    between atoms: O_38  and  C_39
REMARK   13  A    between atoms: O_40  and  C_41
REMARK   14  A    between atoms: O_42  and  C_43
REMARK                            x       y       z     vdW  Elec       q    Type
REMARK                         _______ _______ _______ _____ _____    ______ ____
ROOT
ATOM      1  N   UNL     1       1.627  -2.713   2.340  0.00  0.00    -0.269 N 
ATOM      2  C   UNL     1       2.807  -3.377   2.435  0.00  0.00    +0.024 C 
ATOM      3  C   UNL     1       3.170  -3.557   3.734  0.00  0.00    +0.053 C 
ATOM      4  C   UNL     1       4.349  -4.207   4.128  0.00  0.00    +0.164 C 
ATOM      5  O   UNL     1       4.615  -4.367   5.303  0.00  0.00    -0.292 OA
ATOM      6  C   UNL     1       5.279  -4.703   3.042  0.00  0.00    +0.086 C 
ATOM      7  C   UNL     1       4.467  -5.092   1.806  0.00  0.00    -0.023 C 
ATOM      8  C   UNL     1       3.665  -3.889   1.296  0.00  0.00    +0.058 C 
ATOM      9  C   UNL     1       3.506  -6.225   2.167  0.00  0.00    +0.011 C 
ATOM     10  C   UNL     1       5.418  -5.570   0.706  0.00  0.00    +0.011 C 
ATOM     11  C   UNL     1       2.089  -2.938   4.576  0.00  0.00    +0.237 C 
ATOM     12  C   UNL     1       1.112  -2.399   3.546  0.00  0.00    +0.257 C 
ATOM     13  O   UNL     1       0.077  -1.806   3.764  0.00  0.00    -0.272 OA
ENDROOT
BRANCH   1  19
ATOM     14  C   UNL     1       0.026   1.028  -0.469  0.00  0.00    +0.008 C 
ATOM     15  C   UNL     1       0.172  -0.491  -0.365  0.00  0.00    -0.009 C 
ATOM     16  C   UNL     1      -1.211  -1.143  -0.432  0.00  0.00    +0.003 C 
ATOM     17  C   UNL     1      -1.065  -2.662  -0.328  0.00  0.00    +0.002 C 
ATOM     18  C   UNL     1      -0.396  -3.021   1.001  0.00  0.00    +0.023 C 
ATOM     19  C   UNL     1       0.987  -2.369   1.068  0.00  0.00    +0.084 C 
ATOM     20  C   UNL     1       0.840  -0.850   0.964  0.00  0.00    +0.010 C 
ATOM     21  C   UNL     1       2.223  -0.199   1.031  0.00  0.00    +0.009 C 
ENDBRANCH   1  19
BRANCH  11  22
ATOM     22  C   UNL     1       2.653  -1.799   5.427  0.00  0.00    +0.424 C 
ATOM     23  F   UNL     1       3.303  -0.876   4.601  0.00  0.00    -0.167 F 
ATOM     24  F   UNL     1       1.608  -1.162   6.106  0.00  0.00    -0.167 F 
ATOM     25  F   UNL     1       3.563  -2.317   6.355  0.00  0.00    -0.167 F 
ENDBRANCH  11  22
BRANCH  11  26
ATOM     26  N   UNL     1       1.448  -3.949   5.421  0.00  0.00    -0.287 N 
ATOM     27  C   UNL     1       0.783  -4.976   4.856  0.00  0.00    +0.246 C 
ATOM     28  O   UNL     1       0.795  -5.118   3.648  0.00  0.00    -0.270 OA
ATOM     29  H   UNL     1       1.503  -3.880   6.387  0.00  0.00    +0.151 HD
BRANCH  27  30
ATOM     30  C   UNL     1       0.041  -5.930   5.703  0.00  0.00    +0.044 A 
ATOM     31  C   UNL     1       0.022  -5.765   7.090  0.00  0.00    +0.062 A 
ATOM     32  C   UNL     1      -0.675  -6.659   7.882  0.00  0.00    +0.166 A 
ATOM     33  C   UNL     1      -1.357  -7.723   7.298  0.00  0.00    +0.204 A 
ATOM     34  C   UNL     1      -1.339  -7.890   5.915  0.00  0.00    +0.166 A 
ATOM     35  C   UNL     1      -0.649  -6.995   5.119  0.00  0.00    +0.062 A 
BRANCH  34  36
ATOM     36  O   UNL     1      -2.006  -8.930   5.348  0.00  0.00    -0.491 OA
ATOM     37  C   UNL     1      -1.946  -9.041   3.924  0.00  0.00    +0.277 C 
ENDBRANCH  34  36
BRANCH  33  38
ATOM     38  O   UNL     1      -2.041  -8.601   8.078  0.00  0.00    -0.488 OA
ATOM     39  C   UNL     1      -3.410  -8.296   8.350  0.00  0.00    +0.277 C 
ENDBRANCH  33  38
BRANCH  32  40
ATOM     40  O   UNL     1      -0.694  -6.500   9.232  0.00  0.00    -0.491 OA
ATOM     41  C   UNL     1       0.028  -5.387   9.764  0.00  0.00    +0.277 C 
ENDBRANCH  32  40
ENDBRANCH  27  30
ENDBRANCH  11  26
TORSDOF 7
