REMARK  Name = ZINC39380510
REMARK  6 active torsions:
REMARK  status: ('A' for Active; 'I' for Inactive)
REMARK    1  A    between atoms: C_1  and  C_2
REMARK    2  A    between atoms: N_7  and  C_9
REMARK    3  A    between atoms: C_9  and  C_10
REMARK    4  A    between atoms: C_14  and  C_17
REMARK    5  A    between atoms: N_19  and  C_20
REMARK    6  A    between atoms: C_20  and  C_21
REMARK                            x       y       z     vdW  Elec       q    Type
REMARK                         _______ _______ _______ _____ _____    ______ ____
ROOT
ATOM      1  C   UNL     1       1.562  -3.968   2.380  0.00  0.00    +0.003 A 
ATOM      2  N   UNL     1       0.398  -4.655   2.461  0.00  0.00    -0.327 N 
ATOM      3  C   UNL     1       0.384  -6.001   2.457  0.00  0.00    +0.261 A 
ATOM      4  O   UNL     1      -0.674  -6.602   2.531  0.00  0.00    -0.267 OA
ATOM      5  C   UNL     1       1.605  -6.719   2.366  0.00  0.00    +0.101 A 
ATOM      6  C   UNL     1       2.798  -6.005   2.282  0.00  0.00    +0.020 A 
ATOM      7  C   UNL     1       2.754  -4.611   2.286  0.00  0.00    +0.020 A 
ATOM      8  H   UNL     1      -0.440  -4.169   2.524  0.00  0.00    +0.169 HD
ENDROOT
BRANCH   5   9
ATOM      9  C   UNL     1       1.610  -8.189   2.361  0.00  0.00    +0.249 C 
ATOM     10  O   UNL     1       2.665  -8.794   2.390  0.00  0.00    -0.270 OA
ATOM     11  N   UNL     1       0.445  -8.867   2.324  0.00  0.00    -0.309 N 
ATOM     12  H   UNL     1      -0.397  -8.388   2.374  0.00  0.00    +0.149 HD
BRANCH  11  13
ATOM     13  C   UNL     1       0.451 -10.328   2.207  0.00  0.00    +0.138 C 
BRANCH  13  14
ATOM     14  C   UNL     1      -0.989 -10.843   2.186  0.00  0.00    +0.150 C 
ATOM     15  N   UNL     1      -1.758 -10.223   1.099  0.00  0.00    -0.330 N 
ATOM     16  C   UNL     1      -2.861  -9.447   1.451  0.00  0.00    +0.042 A 
ATOM     17  C   UNL     1      -3.712  -8.778   0.552  0.00  0.00    +0.024 A 
ATOM     18  C   UNL     1      -4.778  -8.035   1.001  0.00  0.00    +0.002 A 
ATOM     19  C   UNL     1      -5.051  -7.919   2.351  0.00  0.00    +0.001 A 
ATOM     20  C   UNL     1      -4.230  -8.567   3.259  0.00  0.00    +0.016 A 
ATOM     21  C   UNL     1      -3.163  -9.311   2.809  0.00  0.00    +0.031 A 
ATOM     22  S   UNL     1      -1.921 -10.261   3.659  0.00  0.00    -0.099 S 
ATOM     23  H   UNL     1      -1.506 -10.348   0.171  0.00  0.00    +0.147 HD
ENDBRANCH  13  14
ENDBRANCH  11  13
ENDBRANCH   5   9
BRANCH   1  24
ATOM     24  C   UNL     1       1.534  -2.461   2.388  0.00  0.00    -0.025 C 
BRANCH  24  30
ATOM     25  C   UNL     1       1.662  -2.315  -2.504  0.00  0.00    +0.005 C 
ATOM     26  C   UNL     1       0.855  -1.924  -1.264  0.00  0.00    -0.031 C 
ATOM     27  C   UNL     1       0.656  -0.406  -1.241  0.00  0.00    -0.001 C 
ATOM     28  C   UNL     1      -0.084  -0.018   0.043  0.00  0.00    -0.018 C 
ATOM     29  C   UNL     1       0.708  -0.518   1.253  0.00  0.00    -0.078 C 
ATOM     30  N   UNL     1       0.841  -1.978   1.186  0.00  0.00    +0.384 N 
ATOM     31  C   UNL     1       1.611  -2.355  -0.006  0.00  0.00    -0.075 C 
ATOM     32  H   UNL     1      -0.076  -2.397   1.137  0.00  0.00    -0.081 HD
ENDBRANCH  24  30
ENDBRANCH   1  24
TORSDOF 5
