REMARK  Name = ZINC36545615
REMARK  16 active torsions:
REMARK  status: ('A' for Active; 'I' for Inactive)
REMARK    1  A    between atoms: C_1  and  C_2
REMARK    2  A    between atoms: C_2  and  C_3
REMARK    3  A    between atoms: C_2  and  C_4
REMARK    4  A    between atoms: C_2  and  N_5
REMARK    5  A    between atoms: C_6  and  C_8
REMARK    6  A    between atoms: C_8  and  C_10
REMARK    7  A    between atoms: C_8  and  N_19
REMARK    8  A    between atoms: C_11  and  O_18
REMARK    9  A    between atoms: C_13  and  O_17
REMARK   10  A    between atoms: C_15  and  O_16
REMARK   11  A    between atoms: N_19  and  C_20
REMARK   12  A    between atoms: C_27  and  C_29
REMARK   13  A    between atoms: C_29  and  C_30
REMARK   14  A    between atoms: C_30  and  C_31
REMARK   15  A    between atoms: C_34  and  O_37
REMARK   16  A    between atoms: O_37  and  C_38
REMARK                            x       y       z     vdW  Elec       q    Type
REMARK                         _______ _______ _______ _____ _____    ______ ____
ROOT
ATOM      1  C   UNL     1       2.735  -0.546  -2.634  0.00  0.00    +0.204 C 
ENDROOT
BRANCH   1   2
ATOM      2  C   UNL     1       1.603  -0.408  -3.619  0.00  0.00    +0.065 A 
ATOM      3  C   UNL     1       1.745  -0.891  -4.911  0.00  0.00    +0.129 A 
ATOM      4  C   UNL     1       0.704  -0.765  -5.817  0.00  0.00    +0.091 A 
ATOM      5  C   UNL     1      -0.481  -0.156  -5.431  0.00  0.00    +0.124 A 
ATOM      6  C   UNL     1      -0.624   0.326  -4.139  0.00  0.00    +0.091 A 
ATOM      7  C   UNL     1       0.416   0.196  -3.232  0.00  0.00    +0.129 A 
BRANCH   7   8
ATOM      8  O   UNL     1       0.275   0.664  -1.964  0.00  0.00    -0.506 OA
ATOM      9  H   UNL     1       0.550   1.585  -1.851  0.00  0.00    +0.292 HD
ENDBRANCH   7   8
BRANCH   5  10
ATOM     10  O   UNL     1      -1.502  -0.031  -6.320  0.00  0.00    -0.507 OA
ATOM     11  H   UNL     1      -2.116  -0.778  -6.320  0.00  0.00    +0.292 HD
ENDBRANCH   5  10
BRANCH   3  12
ATOM     12  O   UNL     1       2.906  -1.488  -5.289  0.00  0.00    -0.506 OA
ATOM     13  H   UNL     1       2.932  -2.440  -5.121  0.00  0.00    +0.292 HD
ENDBRANCH   3  12
ENDBRANCH   1   2
BRANCH   1  15
ATOM     14  N   UNL     1       1.412  -1.994  -1.127  0.00  0.00    -0.309 N 
ATOM     15  C   UNL     1       2.181  -0.897  -1.277  0.00  0.00    +0.239 C 
ATOM     16  O   UNL     1       2.428  -0.194  -0.321  0.00  0.00    -0.273 OA
ATOM     17  H   UNL     1       1.215  -2.556  -1.893  0.00  0.00    +0.149 HD
BRANCH  14  19
ATOM     18  C   UNL     1      -0.011  -1.192   0.693  0.00  0.00    +0.031 C 
ATOM     19  C   UNL     1       0.873  -2.336   0.191  0.00  0.00    +0.026 C 
ATOM     20  C   UNL     1       2.027  -2.557   1.172  0.00  0.00    +0.031 C 
ATOM     21  C   UNL     1       0.041  -3.615   0.086  0.00  0.00    +0.031 C 
ENDBRANCH  14  19
ENDBRANCH   1  15
BRANCH   1  22
ATOM     22  N   UNL     1       3.466   0.722  -2.550  0.00  0.00    -0.254 N 
ATOM     23  C   UNL     1       4.800   0.744  -2.737  0.00  0.00    +0.221 C 
ATOM     24  O   UNL     1       5.396  -0.285  -2.975  0.00  0.00    -0.275 OA
BRANCH  22  25
ATOM     25  C   UNL     1       2.777   1.909  -2.274  0.00  0.00    +0.056 A 
ATOM     26  C   UNL     1       2.641   2.347  -0.964  0.00  0.00    +0.025 A 
ATOM     27  C   UNL     1       1.962   3.519  -0.695  0.00  0.00    +0.002 A 
ATOM     28  C   UNL     1       1.416   4.257  -1.730  0.00  0.00    +0.002 A 
ATOM     29  C   UNL     1       1.549   3.824  -3.036  0.00  0.00    +0.022 A 
ATOM     30  C   UNL     1       2.233   2.655  -3.313  0.00  0.00    +0.062 A 
ATOM     31 CL   UNL     1       2.407   2.117  -4.954  0.00  0.00    -0.082 Cl
ENDBRANCH  22  25
BRANCH  23  32
ATOM     32  C   UNL     1       5.551   2.048  -2.650  0.00  0.00    +0.101 C 
BRANCH  32  33
ATOM     33  C   UNL     1       7.040   1.796  -2.900  0.00  0.00    +0.044 C 
BRANCH  33  34
ATOM     34  C   UNL     1       7.791   3.100  -2.813  0.00  0.00    -0.047 A 
ATOM     35  C   UNL     1       7.962   3.874  -3.946  0.00  0.00    +0.007 A 
ATOM     36  C   UNL     1       8.651   5.070  -3.869  0.00  0.00    +0.046 A 
ATOM     37  C   UNL     1       9.170   5.493  -2.654  0.00  0.00    +0.120 A 
ATOM     38  C   UNL     1       8.996   4.714  -1.519  0.00  0.00    +0.046 A 
ATOM     39  C   UNL     1       8.302   3.522  -1.600  0.00  0.00    +0.007 A 
BRANCH  37  40
ATOM     40  O   UNL     1       9.848   6.668  -2.576  0.00  0.00    -0.495 OA
ATOM     41  C   UNL     1      10.355   7.040  -1.293  0.00  0.00    +0.277 C 
ENDBRANCH  37  40
ENDBRANCH  33  34
ENDBRANCH  32  33
ENDBRANCH  23  32
ENDBRANCH   1  22
TORSDOF 12
