REMARK  Name = ZINC13739098
REMARK  7 active torsions:
REMARK  status: ('A' for Active; 'I' for Inactive)
REMARK    1  A    between atoms: C_1  and  C_2
REMARK    2  A    between atoms: C_5  and  C_7
REMARK    3  A    between atoms: C_15  and  C_16
REMARK    4  A    between atoms: C_16  and  C_17
REMARK    5  A    between atoms: C_17  and  C_18
REMARK    6  A    between atoms: C_18  and  C_21
REMARK    7  A    between atoms: N_19  and  O_20
REMARK                            x       y       z     vdW  Elec       q    Type
REMARK                         _______ _______ _______ _____ _____    ______ ____
ROOT
ATOM      1  C   UNL     1       1.667  -3.225  -0.022  0.00  0.00    +0.066 A 
ATOM      2  C   UNL     1       1.834  -4.239   1.036  0.00  0.00    +0.032 A 
ATOM      3  C   UNL     1       1.248  -4.448   2.282  0.00  0.00    +0.027 A 
ATOM      4  C   UNL     1       1.641  -5.525   3.047  0.00  0.00    +0.019 A 
ATOM      5  C   UNL     1       2.614  -6.397   2.579  0.00  0.00    +0.019 A 
ATOM      6  C   UNL     1       3.200  -6.200   1.348  0.00  0.00    +0.048 A 
ATOM      7  C   UNL     1       2.817  -5.120   0.561  0.00  0.00    +0.136 A 
ATOM      8  O   UNL     1       3.203  -4.682  -0.655  0.00  0.00    -0.459 OA
ATOM      9  C   UNL     1       2.530  -3.574  -1.008  0.00  0.00    +0.117 A 
ATOM     10 BR   UNL     1       0.852  -5.815   4.741  0.00  0.00    -0.050 Br
ENDROOT
BRANCH   1  15
ATOM     11  C   UNL     1      -0.018   1.503   0.010  0.00  0.00    +0.086 C 
ATOM     12  C   UNL     1       0.002  -0.004   0.002  0.00  0.00    +0.103 A 
ATOM     13  C   UNL     1      -1.081  -0.804   0.003  0.00  0.00    +0.045 A 
ATOM     14  C   UNL     1      -0.613  -2.134  -0.007  0.00  0.00    +0.050 A 
ATOM     15  C   UNL     1       0.746  -2.071  -0.013  0.00  0.00    +0.139 A 
ATOM     16  O   UNL     1       1.105  -0.773  -0.013  0.00  0.00    -0.460 OA
ENDBRANCH   1  15
BRANCH   9  17
ATOM     17  C   UNL     1       2.709  -2.829  -2.305  0.00  0.00    +0.081 C 
BRANCH  17  18
ATOM     18  C   UNL     1       3.794  -1.763  -2.136  0.00  0.00    +0.061 C 
BRANCH  18  19
ATOM     19  C   UNL     1       3.973  -1.018  -3.433  0.00  0.00    +0.055 C 
ATOM     20  N   UNL     1       3.685   0.227  -3.501  0.00  0.00    -0.097 NA
ATOM     21  C   UNL     1       4.492  -1.738  -4.651  0.00  0.00    +0.064 C 
BRANCH  20  22
ATOM     22  O   UNL     1       3.853   0.928  -4.720  0.00  0.00    -0.409 OA
ATOM     23  H   UNL     1       3.609   1.862  -4.673  0.00  0.00    +0.328 HD
ENDBRANCH  20  22
ENDBRANCH  18  19
ENDBRANCH  17  18
ENDBRANCH   9  17
TORSDOF 5
