REMARK  Name = ZINC00720703
REMARK  8 active torsions:
REMARK  status: ('A' for Active; 'I' for Inactive)
REMARK    1  A    between atoms: C_1  and  O_2
REMARK    2  A    between atoms: O_2  and  C_3
REMARK    3  A    between atoms: C_6  and  C_13
REMARK    4  A    between atoms: C_7  and  O_11
REMARK    5  A    between atoms: C_8  and  O_9
REMARK    6  A    between atoms: O_9  and  C_10
REMARK    7  A    between atoms: O_11  and  C_12
REMARK    8  A    between atoms: C_18  and  C_23
REMARK                            x       y       z     vdW  Elec       q    Type
REMARK                         _______ _______ _______ _____ _____    ______ ____
ROOT
ATOM      1  C   UNL     1       2.799   7.626  -0.161  0.00  0.00    +0.140 C 
ATOM      2  C   UNL     1       2.455   6.222  -0.599  0.00  0.00    +0.037 C 
ATOM      3  C   UNL     1       2.260   5.817  -1.865  0.00  0.00    +0.017 C 
ATOM      4  C   UNL     1       1.911   4.368  -2.164  0.00  0.00    +0.060 C 
ATOM      5  C   UNL     1       1.095   3.780  -1.014  0.00  0.00    +0.039 C 
ATOM      6  C   UNL     1       1.948   3.871   0.257  0.00  0.00    +0.088 C 
ATOM      7  C   UNL     1       2.330   5.305   0.471  0.00  0.00    +0.163 C 
ATOM      8  O   UNL     1       2.540   5.694   1.604  0.00  0.00    -0.292 OA
ATOM      9  N   UNL     1       2.364   6.610  -2.963  0.00  0.00    -0.316 N 
ATOM     10  C   UNL     1       1.796   7.873  -3.088  0.00  0.00    +0.052 A 
ATOM     11  C   UNL     1       0.834   8.162  -4.040  0.00  0.00    +0.025 A 
ATOM     12  C   UNL     1       0.371   9.461  -4.163  0.00  0.00    +0.002 A 
ATOM     13  C   UNL     1       0.865  10.457  -3.340  0.00  0.00    +0.002 A 
ATOM     14  C   UNL     1       1.809  10.164  -2.372  0.00  0.00    +0.025 A 
ATOM     15  C   UNL     1       2.262   8.861  -2.233  0.00  0.00    +0.049 A 
ATOM     16  N   UNL     1       3.175   8.513  -1.241  0.00  0.00    -0.331 N 
ATOM     17  H   UNL     1       2.873   6.270  -3.715  0.00  0.00    +0.152 HD
ATOM     18  H   UNL     1       4.076   8.871  -1.275  0.00  0.00    +0.147 HD
ENDROOT
BRANCH   1  22
ATOM     19  C   UNL     1      -0.597   9.289   1.844  0.00  0.00    +0.165 A 
ATOM     20  C   UNL     1      -0.740   8.169   1.038  0.00  0.00    +0.050 A 
ATOM     21  C   UNL     1       0.357   7.638   0.388  0.00  0.00    +0.013 A 
ATOM     22  C   UNL     1       1.604   8.213   0.546  0.00  0.00    +0.023 A 
ATOM     23  C   UNL     1       1.757   9.333   1.349  0.00  0.00    +0.170 A 
ATOM     24  C   UNL     1       0.654   9.873   2.001  0.00  0.00    +0.204 A 
BRANCH  19  26
ATOM     25  C   UNL     1      -2.933   9.161   2.272  0.00  0.00    +0.277 C 
ATOM     26  O   UNL     1      -1.678   9.814   2.479  0.00  0.00    -0.491 OA
ENDBRANCH  19  26
BRANCH  24  27
ATOM     27  O   UNL     1       0.799  10.973   2.790  0.00  0.00    -0.488 OA
ATOM     28  C   UNL     1       0.626  12.246   2.166  0.00  0.00    +0.277 C 
ENDBRANCH  24  27
BRANCH  23  29
ATOM     29  O   UNL     1       2.983   9.902   1.500  0.00  0.00    -0.491 OA
ATOM     30  C   UNL     1       3.747   9.504   2.640  0.00  0.00    +0.277 C 
ENDBRANCH  23  29
ENDBRANCH   1  22
BRANCH   5  31
ATOM     31  C   UNL     1       0.766   2.338  -1.306  0.00  0.00    -0.006 A 
ATOM     32  C   UNL     1      -0.448   1.747  -1.427  0.00  0.00    +0.011 A 
ATOM     33  C   UNL     1      -0.510   0.394  -1.701  0.00  0.00    +0.008 A 
ATOM     34  C   UNL     1       0.644  -0.302  -1.841  0.00  0.00    +0.045 A 
ATOM     35  S   UNL     1       1.874   0.966  -1.583  0.00  0.00    -0.101 S 
ENDBRANCH   5  31
TORSDOF 5
