REMARK  Name = ZINC01692718
REMARK  2 active torsions:
REMARK  status: ('A' for Active; 'I' for Inactive)
REMARK    1  A    between atoms: C_5  and  N_8
REMARK    2  A    between atoms: C_16  and  N_18
REMARK                            x       y       z     vdW  Elec       q    Type
REMARK                         _______ _______ _______ _____ _____    ______ ____
ROOT
ATOM      1  C   UNL     1      -3.635   1.607   0.028  0.00  0.00    +0.032 A 
ATOM      2  C   UNL     1      -3.681   3.016   0.036  0.00  0.00    +0.011 A 
ATOM      3  C   UNL     1      -2.462   3.693   0.034  0.00  0.00    +0.103 A 
ATOM      4  C   UNL     1      -1.260   3.040   0.030  0.00  0.00    +0.052 A 
ATOM      5  C   UNL     1      -1.230   1.648   0.017  0.00  0.00    +0.045 A 
ATOM      6  C   UNL     1      -2.431   0.945   0.019  0.00  0.00    +0.062 A 
ATOM      7 CL   UNL     1      -2.408  -0.791   0.009  0.00  0.00    -0.082 Cl
ATOM      8  S   UNL     1      -2.907   5.411   0.047  0.00  0.00    +0.026 S 
ATOM      9  O   UNL     1      -2.515   5.954   1.300  0.00  0.00    -0.164 OA
ATOM     10  O   UNL     1      -2.527   5.969  -1.204  0.00  0.00    -0.164 OA
ATOM     11  C   UNL     1      -4.675   5.248   0.054  0.00  0.00    +0.103 A 
ATOM     12  C   UNL     1      -4.899   3.871   0.047  0.00  0.00    +0.011 A 
ATOM     13  C   UNL     1      -6.240   3.438   0.051  0.00  0.00    +0.032 A 
ATOM     14  C   UNL     1      -7.271   4.346   0.062  0.00  0.00    +0.062 A 
ATOM     15  C   UNL     1      -7.016   5.714   0.069  0.00  0.00    +0.045 A 
ATOM     16  C   UNL     1      -5.697   6.158   0.065  0.00  0.00    +0.052 A 
ATOM     17 CL   UNL     1      -8.912   3.779   0.067  0.00  0.00    -0.082 Cl
ENDROOT
BRANCH   5  18
ATOM     18  N   UNL     1      -0.011   0.966   0.007  0.00  0.00    -0.357 N 
ATOM     19  H   UNL     1       0.002  -0.004   0.002  0.00  0.00    +0.142 HD
ATOM     20  H   UNL     1       0.822   1.462   0.002  0.00  0.00    +0.142 HD
ENDBRANCH   5  18
BRANCH  15  21
ATOM     21  N   UNL     1      -8.071   6.630   0.081  0.00  0.00    -0.357 N 
ATOM     22  H   UNL     1      -8.988   6.313   0.084  0.00  0.00    +0.142 HD
ATOM     23  H   UNL     1      -7.887   7.582   0.086  0.00  0.00    +0.142 HD
ENDBRANCH  15  21
TORSDOF 2
