REMARK  Name = ZINC38743356
REMARK  6 active torsions:
REMARK  status: ('A' for Active; 'I' for Inactive)
REMARK    1  A    between atoms: C_1  and  O_2
REMARK    2  A    between atoms: O_2  and  C_3
REMARK    3  A    between atoms: C_6  and  C_9
REMARK    4  A    between atoms: C_11  and  C_15
REMARK    5  A    between atoms: C_23  and  C_25
REMARK    6  A    between atoms: C_28  and  C_31
REMARK                            x       y       z     vdW  Elec       q    Type
REMARK                         _______ _______ _______ _____ _____    ______ ____
ROOT
ATOM      1  C   UNL     1       2.628  -4.798   6.770  0.00  0.00    +0.206 C 
ATOM      2  N   UNL     1       1.397  -4.040   7.098  0.00  0.00    -0.231 NA
ATOM      3  N   UNL     1       1.509  -3.651   8.514  0.00  0.00    -0.224 NA
ATOM      4  C   UNL     1       2.967  -3.657   8.745  0.00  0.00    +0.240 C 
ATOM      5  N   UNL     1       3.372  -4.921   8.044  0.00  0.00    -0.206 N 
ATOM      6  N   UNL     1       4.172  -5.746   8.805  0.00  0.00    -0.173 NA
ATOM      7  C   UNL     1       4.299  -5.615  10.094  0.00  0.00    +0.125 C 
ATOM      8  S   UNL     1       3.371  -4.095  10.477  0.00  0.00    -0.063 S 
ATOM      9  H   UNL     1       1.304  -3.228   6.506  0.00  0.00    +0.143 HD
ATOM     10  H   UNL     1       1.122  -2.732   8.668  0.00  0.00    +0.144 HD
ENDROOT
BRANCH   7  11
ATOM     11  C   UNL     1       5.034  -6.490  11.030  0.00  0.00    +0.008 A 
ATOM     12  C   UNL     1       5.055  -6.192  12.395  0.00  0.00    +0.011 A 
ATOM     13  C   UNL     1       5.741  -7.008  13.267  0.00  0.00    +0.009 A 
ATOM     14  C   UNL     1       6.414  -8.132  12.787  0.00  0.00    -0.018 A 
ATOM     15  C   UNL     1       6.394  -8.430  11.425  0.00  0.00    +0.009 A 
ATOM     16  C   UNL     1       5.704  -7.618  10.552  0.00  0.00    +0.011 A 
BRANCH  14  17
ATOM     17  C   UNL     1       7.152  -9.010  13.727  0.00  0.00    -0.018 A 
ATOM     18  C   UNL     1       7.170  -8.718  15.090  0.00  0.00    +0.008 A 
ATOM     19  C   UNL     1       7.858  -9.539  15.960  0.00  0.00    +0.001 A 
ATOM     20  C   UNL     1       8.530 -10.650  15.481  0.00  0.00    +0.000 A 
ATOM     21  C   UNL     1       8.517 -10.944  14.130  0.00  0.00    +0.001 A 
ATOM     22  C   UNL     1       7.827 -10.134  13.251  0.00  0.00    +0.008 A 
ENDBRANCH  14  17
ENDBRANCH   7  11
BRANCH   1  25
ATOM     23  C   UNL     1       2.577  -2.541   4.295  0.00  0.00    +0.091 C 
ATOM     24  C   UNL     1       2.697  -3.875   4.440  0.00  0.00    +0.034 C 
ATOM     25  C   UNL     1       3.462  -4.032   5.742  0.00  0.00    +0.190 C 
ATOM     26  N   UNL     1       3.679  -2.642   6.174  0.00  0.00    -0.176 NA
ATOM     27  N   UNL     1       3.173  -1.896   5.332  0.00  0.00    -0.154 NA
BRANCH  23  31
ATOM     28  C   UNL     1       0.626  -0.618   1.041  0.00  0.00    +0.120 A 
ATOM     29  C   UNL     1       1.202   0.142   2.050  0.00  0.00    +0.046 A 
ATOM     30  C   UNL     1       1.835  -0.479   3.107  0.00  0.00    +0.013 A 
ATOM     31  C   UNL     1       1.896  -1.870   3.161  0.00  0.00    +0.002 A 
ATOM     32  C   UNL     1       1.317  -2.631   2.146  0.00  0.00    +0.013 A 
ATOM     33  C   UNL     1       0.681  -2.005   1.095  0.00  0.00    +0.046 A 
BRANCH  28  35
ATOM     34  C   UNL     1      -0.017   1.425   0.010  0.00  0.00    +0.277 C 
ATOM     35  O   UNL     1       0.002  -0.004   0.002  0.00  0.00    -0.495 OA
ENDBRANCH  28  35
ENDBRANCH  23  31
ENDBRANCH   1  25
TORSDOF 5
