REMARK  Name = ZINC07003207
REMARK  5 active torsions:
REMARK  status: ('A' for Active; 'I' for Inactive)
REMARK    1  A    between atoms: C_1  and  N_2
REMARK    2  A    between atoms: N_2  and  C_3
REMARK    3  A    between atoms: N_2  and  S_10
REMARK    4  A    between atoms: C_3  and  C_4
REMARK    5  A    between atoms: S_10  and  C_13
REMARK                            x       y       z     vdW  Elec       q    Type
REMARK                         _______ _______ _______ _____ _____    ______ ____
ROOT
ATOM      1  C   UNL     1       1.682  -1.059  -1.905  0.00  0.00    +0.106 A 
ATOM      2  C   UNL     1       2.321  -0.101  -2.680  0.00  0.00    +0.030 A 
ATOM      3  C   UNL     1       3.635  -0.266  -3.058  0.00  0.00    +0.028 A 
ATOM      4  C   UNL     1       4.332  -1.403  -2.659  0.00  0.00    +0.047 A 
ATOM      5  C   UNL     1       3.680  -2.370  -1.873  0.00  0.00    +0.005 A 
ATOM      6  C   UNL     1       2.348  -2.180  -1.498  0.00  0.00    +0.038 A 
ATOM      7  C   UNL     1       4.668  -3.421  -1.627  0.00  0.00    -0.019 A 
ATOM      8  C   UNL     1       5.805  -3.052  -2.241  0.00  0.00    +0.020 A 
ATOM      9  N   UNL     1       5.617  -1.848  -2.868  0.00  0.00    -0.358 N 
ATOM     10  H   UNL     1       6.292  -1.378  -3.383  0.00  0.00    +0.166 HD
ATOM     11  C   UNL     1       7.093  -3.840  -2.230  0.00  0.00    +0.053 C 
ATOM     12  C   UNL     1       6.797  -5.308  -2.545  0.00  0.00    +0.006 C 
ATOM     13  C   UNL     1       6.500  -6.062  -1.252  0.00  0.00    +0.001 C 
ATOM     14  C   UNL     1       5.790  -5.152  -0.253  0.00  0.00    +0.005 C 
ATOM     15  C   UNL     1       4.455  -4.689  -0.843  0.00  0.00    +0.037 C 
ENDROOT
BRANCH   1  16
ATOM     16  S   UNL     1      -0.000  -0.824  -1.437  0.00  0.00    +0.061 S 
ATOM     17  O   UNL     1      -0.531  -2.115  -1.167  0.00  0.00    -0.153 OA
ATOM     18  O   UNL     1      -0.572   0.049  -2.401  0.00  0.00    -0.153 OA
BRANCH  16  20
ATOM     19  C   UNL     1      -0.018   1.461   0.010  0.00  0.00    +0.132 C 
ATOM     20  N   UNL     1       0.002  -0.004   0.002  0.00  0.00    -0.175 NA
BRANCH  20  21
ATOM     21  C   UNL     1       0.024  -0.743   1.267  0.00  0.00    +0.144 C 
BRANCH  21  22
ATOM     22  C   UNL     1      -1.384  -0.909   1.776  0.00  0.00    -0.032 A 
ATOM     23  C   UNL     1      -1.936   0.049   2.606  0.00  0.00    +0.005 A 
ATOM     24  C   UNL     1      -3.228  -0.104   3.074  0.00  0.00    +0.000 A 
ATOM     25  C   UNL     1      -3.969  -1.213   2.711  0.00  0.00    +0.000 A 
ATOM     26  C   UNL     1      -3.417  -2.170   1.880  0.00  0.00    +0.000 A 
ATOM     27  C   UNL     1      -2.126  -2.016   1.409  0.00  0.00    +0.005 A 
ENDBRANCH  21  22
ENDBRANCH  20  21
ENDBRANCH  16  20
ENDBRANCH   1  16
TORSDOF 4
