REMARK  Name = ZINC04898589
REMARK  6 active torsions:
REMARK  status: ('A' for Active; 'I' for Inactive)
REMARK    1  A    between atoms: C_3  and  O_30
REMARK    2  A    between atoms: C_6  and  C_7
REMARK    3  A    between atoms: C_9  and  C_21
REMARK    4  A    between atoms: C_11  and  C_16
REMARK    5  A    between atoms: C_11  and  O_20
REMARK    6  A    between atoms: C_21  and  C_23
REMARK                            x       y       z     vdW  Elec       q    Type
REMARK                         _______ _______ _______ _____ _____    ______ ____
ROOT
ATOM      1  C   UNL     1      -1.293  -0.774   0.011  0.00  0.00    +0.120 C 
ATOM      2  C   UNL     1      -1.590  -1.262   1.433  0.00  0.00    +0.144 C 
ATOM      3  C   UNL     1      -2.847  -2.137   1.396  0.00  0.00    +0.243 C 
ATOM      4  N   UNL     1      -2.650  -3.220   0.430  0.00  0.00    -0.264 N 
ATOM      5  C   UNL     1      -1.852  -3.066  -0.636  0.00  0.00    +0.302 C 
ATOM      6  O   UNL     1      -1.732  -3.993  -1.414  0.00  0.00    -0.253 OA
ATOM      7  N   UNL     1      -1.182  -1.929  -0.881  0.00  0.00    -0.292 N 
ATOM      8  H   UNL     1      -3.107  -4.065   0.565  0.00  0.00    +0.153 HD
ATOM      9  H   UNL     1      -0.611  -1.872  -1.663  0.00  0.00    +0.151 HD
ENDROOT
BRANCH   1  15
ATOM     10  C   UNL     1      -0.017   1.378   0.010  0.00  0.00    +0.009 A 
ATOM     11  C   UNL     1       1.169   2.087   0.002  0.00  0.00    +0.046 A 
ATOM     12  C   UNL     1       2.380   1.409  -0.013  0.00  0.00    +0.117 A 
ATOM     13  C   UNL     1       2.396   0.022  -0.021  0.00  0.00    +0.046 A 
ATOM     14  C   UNL     1       1.207  -0.681  -0.013  0.00  0.00    +0.009 A 
ATOM     15  C   UNL     1       0.002  -0.004   0.002  0.00  0.00    -0.026 A 
BRANCH  12  16
ATOM     16  O   UNL     1       3.548   2.104  -0.021  0.00  0.00    -0.507 OA
ATOM     17  H   UNL     1       3.895   2.300   0.860  0.00  0.00    +0.292 HD
ENDBRANCH  12  16
ENDBRANCH   1  15
BRANCH   3  18
ATOM     18  C   UNL     1      -3.098  -2.730   2.784  0.00  0.00    +0.436 C 
ATOM     19  F   UNL     1      -3.278  -1.694   3.708  0.00  0.00    -0.166 F 
ATOM     20  F   UNL     1      -4.246  -3.529   2.750  0.00  0.00    -0.166 F 
ATOM     21  F   UNL     1      -1.999  -3.508   3.165  0.00  0.00    -0.166 F 
ENDBRANCH   3  18
BRANCH   3  22
ATOM     22  O   UNL     1      -3.970  -1.345   1.004  0.00  0.00    -0.364 OA
ATOM     23  H   UNL     1      -4.801  -1.836   0.960  0.00  0.00    +0.212 HD
ENDBRANCH   3  22
BRANCH   2  24
ATOM     24  C   UNL     1      -1.819  -0.077   2.336  0.00  0.00    +0.173 C 
ATOM     25  O   UNL     1      -2.287   0.947   1.886  0.00  0.00    -0.292 OA
BRANCH  24  26
ATOM     26  C   UNL     1      -1.476  -0.164   3.763  0.00  0.00    +0.018 A 
ATOM     27  C   UNL     1      -0.931  -1.343   4.285  0.00  0.00    +0.014 A 
ATOM     28  C   UNL     1      -0.611  -1.417   5.622  0.00  0.00    +0.039 A 
ATOM     29  C   UNL     1      -0.830  -0.328   6.452  0.00  0.00    +0.123 A 
ATOM     30  C   UNL     1      -1.370   0.844   5.942  0.00  0.00    +0.039 A 
ATOM     31  C   UNL     1      -1.688   0.934   4.605  0.00  0.00    +0.014 A 
ATOM     32  F   UNL     1      -0.515  -0.407   7.764  0.00  0.00    -0.205 F 
ENDBRANCH  24  26
ENDBRANCH   2  24
TORSDOF 6
