REMARK  Name = ZINC52840801
REMARK  6 active torsions:
REMARK  status: ('A' for Active; 'I' for Inactive)
REMARK    1  A    between atoms: C_1  and  N_2
REMARK    2  A    between atoms: N_2  and  C_3
REMARK    3  A    between atoms: N_2  and  C_11
REMARK    4  A    between atoms: C_3  and  C_4
REMARK    5  A    between atoms: C_14  and  N_18
REMARK    6  A    between atoms: C_16  and  N_17
REMARK                            x       y       z     vdW  Elec       q    Type
REMARK                         _______ _______ _______ _____ _____    ______ ____
ROOT
ATOM      1  C   UNL     1       0.000  -0.698  -1.214  0.00  0.00    +0.051 A 
ATOM      2  C   UNL     1       1.199  -1.031  -1.827  0.00  0.00    +0.027 A 
ATOM      3  C   UNL     1       1.194  -1.716  -3.028  0.00  0.00    +0.034 A 
ATOM      4  C   UNL     1      -0.003  -2.071  -3.622  0.00  0.00    +0.128 A 
ATOM      5  C   UNL     1      -1.203  -1.742  -3.018  0.00  0.00    +0.057 A 
ATOM      6  C   UNL     1      -1.208  -1.060  -1.810  0.00  0.00    +0.048 A 
ENDROOT
BRANCH   6   7
ATOM      7  N   UNL     1      -2.421  -0.732  -1.194  0.00  0.00    -0.356 N 
ATOM      8  H   UNL     1      -2.423  -0.252  -0.352  0.00  0.00    +0.142 HD
ATOM      9  H   UNL     1      -3.260  -0.985  -1.610  0.00  0.00    +0.142 HD
ENDBRANCH   6   7
BRANCH   4  10
ATOM     10  N   UNL     1      -0.000  -2.804  -4.907  0.00  0.00    +0.056 N 
ATOM     11  O   UNL     1       1.048  -3.091  -5.437  0.00  0.00    -0.126 OA
ATOM     12  O   UNL     1      -1.046  -3.115  -5.428  0.00  0.00    -0.126 OA
ENDBRANCH   4  10
BRANCH   1  14
ATOM     13  C   UNL     1      -0.018   1.461   0.010  0.00  0.00    +0.129 C 
ATOM     14  N   UNL     1       0.002  -0.004   0.002  0.00  0.00    -0.327 N 
BRANCH  14  15
ATOM     15  C   UNL     1       0.024  -0.743   1.267  0.00  0.00    +0.140 C 
BRANCH  15  16
ATOM     16  C   UNL     1      -1.389  -1.016   1.714  0.00  0.00    -0.029 A 
ATOM     17  C   UNL     1      -2.047  -0.105   2.518  0.00  0.00    +0.005 A 
ATOM     18  C   UNL     1      -3.343  -0.354   2.929  0.00  0.00    +0.001 A 
ATOM     19  C   UNL     1      -3.982  -1.516   2.535  0.00  0.00    +0.015 A 
ATOM     20  C   UNL     1      -3.324  -2.427   1.729  0.00  0.00    +0.018 A 
ATOM     21  C   UNL     1      -2.028  -2.174   1.315  0.00  0.00    +0.020 A 
ATOM     22 BR   UNL     1      -4.196  -4.016   1.190  0.00  0.00    -0.050 Br
ENDBRANCH  15  16
ENDBRANCH  14  15
ENDBRANCH   1  14
TORSDOF 5
