REMARK  Name = ZINC39795551
REMARK  6 active torsions:
REMARK  status: ('A' for Active; 'I' for Inactive)
REMARK    1  A    between atoms: C_1  and  C_2
REMARK    2  A    between atoms: C_10  and  S_14
REMARK    3  A    between atoms: S_14  and  C_15
REMARK    4  A    between atoms: C_15  and  C_16
REMARK    5  A    between atoms: N_18  and  C_19
REMARK    6  A    between atoms: C_20  and  C_27
REMARK                            x       y       z     vdW  Elec       q    Type
REMARK                         _______ _______ _______ _____ _____    ______ ____
ROOT
ATOM      1  C   UNL     1       6.197  -6.681  -0.838  0.00  0.00    +0.173 C 
ENDROOT
BRANCH   1   2
ATOM      2  C   UNL     1       7.376  -7.615  -0.750  0.00  0.00    +0.228 C 
ATOM      3  O   UNL     1       7.874  -7.863   0.327  0.00  0.00    -0.275 OA
ATOM      4  N   UNL     1       7.877  -8.175  -1.869  0.00  0.00    -0.279 N 
ATOM      5  H   UNL     1       7.478  -7.977  -2.731  0.00  0.00    +0.155 HD
BRANCH   4   6
ATOM      6  C   UNL     1       8.962  -9.034  -1.788  0.00  0.00    +0.084 A 
ATOM      7  C   UNL     1       9.606  -9.690  -2.821  0.00  0.00    +0.068 A 
ATOM      8  C   UNL     1      10.736 -10.548  -2.469  0.00  0.00    -0.023 A 
ATOM      9  C   UNL     1      11.005 -10.587  -1.152  0.00  0.00    -0.004 A 
ATOM     10  S   UNL     1       9.800  -9.512  -0.416  0.00  0.00    -0.077 S 
ATOM     11  C   UNL     1      12.172 -11.486  -0.844  0.00  0.00    +0.043 C 
ATOM     12  C   UNL     1      12.342 -12.353  -2.112  0.00  0.00    +0.010 C 
ATOM     13  C   UNL     1      11.736 -11.442  -3.199  0.00  0.00    +0.037 C 
BRANCH   7  14
ATOM     14  C   UNL     1       9.174  -9.531  -4.213  0.00  0.00    +0.244 C 
ATOM     15  O   UNL     1       9.649  -8.647  -4.902  0.00  0.00    -0.270 OA
ATOM     16  N   UNL     1       8.249 -10.364  -4.731  0.00  0.00    -0.325 N 
ATOM     17  H   UNL     1       7.869 -11.068  -4.182  0.00  0.00    +0.145 HD
ATOM     18  H   UNL     1       7.963 -10.259  -5.651  0.00  0.00    +0.145 HD
ENDBRANCH   7  14
ENDBRANCH   4   6
ENDBRANCH   1   2
BRANCH   1  19
ATOM     19  S   UNL     1       5.762  -6.098   0.824  0.00  0.00    -0.079 S 
BRANCH  19  28
ATOM     20  C   UNL     1      -0.019   1.526   0.010  0.00  0.00    +0.007 C 
ATOM     21  C   UNL     1       0.002  -0.004   0.002  0.00  0.00    -0.012 C 
ATOM     22  C   UNL     1       0.702  -0.489  -1.265  0.00  0.00    +0.008 C 
ATOM     23  C   UNL     1       0.667  -2.022  -1.342  0.00  0.00    +0.033 C 
ATOM     24  C   UNL     1       1.237  -2.538  -0.023  0.00  0.00    -0.042 C 
ATOM     25  C   UNL     1       2.252  -3.392   0.084  0.00  0.00    +0.071 C 
ATOM     26  C   UNL     1       2.815  -3.652   1.437  0.00  0.00    +0.112 C 
ATOM     27  N   UNL     1       3.840  -4.442   1.631  0.00  0.00    -0.217 NA
ATOM     28  C   UNL     1       4.386  -5.031   0.555  0.00  0.00    +0.182 C 
ATOM     29  N   UNL     1       3.972  -4.874  -0.687  0.00  0.00    -0.151 NA
ATOM     30  C   UNL     1       2.941  -4.098  -1.050  0.00  0.00    +0.272 C 
ATOM     31  O   UNL     1       2.589  -3.974  -2.212  0.00  0.00    -0.268 OA
ATOM     32  S   UNL     1       1.807  -2.705   2.533  0.00  0.00    -0.097 S 
ATOM     33  C   UNL     1       0.637  -2.032   1.290  0.00  0.00    +0.080 C 
ATOM     34  C   UNL     1       0.729  -0.504   1.254  0.00  0.00    +0.022 C 
ENDBRANCH  19  28
ENDBRANCH   1  19
TORSDOF 5
