REMARK  Name = ZINC39664344
REMARK  10 active torsions:
REMARK  status: ('A' for Active; 'I' for Inactive)
REMARK    1  A    between atoms: C_1  and  C_2
REMARK    2  A    between atoms: C_2  and  C_3
REMARK    3  A    between atoms: C_3  and  C_4
REMARK    4  A    between atoms: C_3  and  C_6
REMARK    5  A    between atoms: C_4  and  C_5
REMARK    6  A    between atoms: C_10  and  C_19
REMARK    7  A    between atoms: N_21  and  C_22
REMARK    8  A    between atoms: C_22  and  C_23
REMARK    9  A    between atoms: C_23  and  C_25
REMARK   10  A    between atoms: C_23  and  N_31
REMARK                            x       y       z     vdW  Elec       q    Type
REMARK                         _______ _______ _______ _____ _____    ______ ____
ROOT
ATOM      1  C   UNL     1       0.060  -2.059  -1.553  0.00  0.00    +0.219 C 
ATOM      2  O   UNL     1      -0.770  -2.693  -0.937  0.00  0.00    -0.275 OA
ATOM      3  N   UNL     1       0.841  -2.677  -2.462  0.00  0.00    -0.300 N 
ATOM      4  C   UNL     1       1.840  -2.063  -3.368  0.00  0.00    +0.121 C 
ATOM      5  C   UNL     1       3.017  -3.065  -3.387  0.00  0.00    +0.100 C 
ATOM      6  C   UNL     1       2.389  -4.415  -3.003  0.00  0.00    -0.004 C 
ATOM      7  C   UNL     1       0.898  -4.125  -2.777  0.00  0.00    +0.115 C 
ATOM      8  C   UNL     1       3.018  -4.944  -1.718  0.00  0.00    -0.010 C 
ATOM      9  C   UNL     1       2.418  -6.314  -1.388  0.00  0.00    -0.082 C 
ATOM     10  N   UNL     1       2.670  -7.241  -2.498  0.00  0.00    +0.379 N 
ATOM     11  C   UNL     1       1.984  -6.772  -3.708  0.00  0.00    -0.082 C 
ATOM     12  C   UNL     1       2.565  -5.422  -4.136  0.00  0.00    -0.010 C 
ATOM     13  H   UNL     1       3.663  -7.291  -2.674  0.00  0.00    -0.086 HD
ATOM     14  H   UNL     1       2.328  -8.158  -2.253  0.00  0.00    -0.086 HD
ENDROOT
BRANCH   5  15
ATOM     15  C   UNL     1       4.063  -2.665  -2.380  0.00  0.00    +0.218 C 
ATOM     16  O   UNL     1       3.733  -2.131  -1.342  0.00  0.00    -0.275 OA
ATOM     17  N   UNL     1       5.366  -2.900  -2.631  0.00  0.00    -0.313 N 
ATOM     18  H   UNL     1       5.630  -3.327  -3.461  0.00  0.00    +0.149 HD
BRANCH  17  19
ATOM     19  C   UNL     1       6.383  -2.511  -1.651  0.00  0.00    +0.127 C 
BRANCH  19  20
ATOM     20  C   UNL     1       7.775  -2.769  -2.232  0.00  0.00    +0.104 C 
BRANCH  20  21
ATOM     21  C   UNL     1       7.988  -1.890  -3.437  0.00  0.00    -0.029 A 
ATOM     22  C   UNL     1       8.346  -0.566  -3.272  0.00  0.00    +0.005 A 
ATOM     23  C   UNL     1       8.541   0.241  -4.378  0.00  0.00    +0.000 A 
ATOM     24  C   UNL     1       8.379  -0.278  -5.649  0.00  0.00    +0.000 A 
ATOM     25  C   UNL     1       8.021  -1.603  -5.814  0.00  0.00    +0.000 A 
ATOM     26  C   UNL     1       7.830  -2.410  -4.708  0.00  0.00    +0.005 A 
ENDBRANCH  20  21
BRANCH  20  27
ATOM     27  N   UNL     1       8.793  -2.464  -1.217  0.00  0.00    -0.290 NA
ATOM     28  C   UNL     1       8.611  -3.298  -0.020  0.00  0.00    +0.113 C 
ATOM     29  C   UNL     1       9.652  -2.906   1.031  0.00  0.00    +0.175 C 
ATOM     30  O   UNL     1      10.961  -3.041   0.472  0.00  0.00    -0.377 OA
ATOM     31  C   UNL     1      11.174  -2.243  -0.695  0.00  0.00    +0.175 C 
ATOM     32  C   UNL     1      10.148  -2.627  -1.764  0.00  0.00    +0.113 C 
ENDBRANCH  20  27
ENDBRANCH  19  20
ENDBRANCH  17  19
ENDBRANCH   5  15
BRANCH   1  33
ATOM     33  C   UNL     1       0.219  -0.582  -1.304  0.00  0.00    +0.075 C 
BRANCH  33  35
ATOM     34  C   UNL     1      -0.539   1.694  -2.005  0.00  0.00    +0.004 C 
ATOM     35  C   UNL     1      -0.783   0.192  -2.163  0.00  0.00    +0.009 C 
ENDBRANCH  33  35
BRANCH  33  36
ATOM     36  C   UNL     1      -0.040  -0.283   0.174  0.00  0.00    +0.009 C 
ATOM     37  C   UNL     1       1.050  -0.938   1.025  0.00  0.00    +0.004 C 
ENDBRANCH  33  36
ENDBRANCH   1  33
TORSDOF 8
