REMARK  Name = ZINC17308053
REMARK  16 active torsions:
REMARK  status: ('A' for Active; 'I' for Inactive)
REMARK    1  A    between atoms: C_1  and  C_2
REMARK    2  A    between atoms: C_2  and  C_3
REMARK    3  A    between atoms: C_3  and  C_4
REMARK    4  A    between atoms: C_4  and  N_5
REMARK    5  A    between atoms: N_5  and  C_6
REMARK    6  A    between atoms: C_7  and  N_19
REMARK    7  A    between atoms: N_8  and  C_15
REMARK    8  A    between atoms: C_15  and  C_16
REMARK    9  A    between atoms: C_16  and  C_17
REMARK   10  A    between atoms: C_16  and  C_18
REMARK   11  A    between atoms: C_20  and  C_22
REMARK   12  A    between atoms: C_22  and  N_71
REMARK   13  A    between atoms: C_23  and  C_24
REMARK   14  A    between atoms: C_23  and  N_71
REMARK   15  A    between atoms: C_29  and  C_30
REMARK   16  A    between atoms: C_29  and  N_71
REMARK                            x       y       z     vdW  Elec       q    Type
REMARK                         _______ _______ _______ _____ _____    ______ ____
ROOT
ATOM      1  N   UNL     1       7.533   1.973   0.476  0.00  0.00    -0.266 N 
ATOM      2  C   UNL     1       6.205   1.775   0.335  0.00  0.00    +0.203 C 
ATOM      3  O   UNL     1       5.796   0.788  -0.238  0.00  0.00    -0.277 OA
ENDROOT
BRANCH   1   4
ATOM      4  C   UNL     1       8.446   1.088  -0.136  0.00  0.00    +0.140 A 
ATOM      5  C   UNL     1       8.495  -0.239   0.237  0.00  0.00    +0.127 A 
ATOM      6  N   UNL     1       9.396  -1.077  -0.378  0.00  0.00    -0.280 N 
ATOM      7  C   UNL     1      10.220  -0.607  -1.332  0.00  0.00    +0.331 A 
ATOM      8  O   UNL     1      11.010  -1.364  -1.864  0.00  0.00    -0.246 OA
ATOM      9  N   UNL     1      10.187   0.683  -1.709  0.00  0.00    -0.273 N 
ATOM     10  H   UNL     1      10.813   1.008  -2.418  0.00  0.00    +0.173 HD
ATOM     11  C   UNL     1       9.319   1.544  -1.141  0.00  0.00    +0.277 A 
ATOM     12  O   UNL     1       9.294   2.711  -1.494  0.00  0.00    -0.266 OA
BRANCH   5  13
ATOM     13  N   UNL     1       7.653  -0.719   1.212  0.00  0.00    -0.343 N 
ATOM     14  H   UNL     1       6.987  -0.136   1.607  0.00  0.00    +0.144 HD
ATOM     15  H   UNL     1       7.726  -1.641   1.504  0.00  0.00    +0.144 HD
ENDBRANCH   5  13
BRANCH   6  16
ATOM     16  C   UNL     1       9.459  -2.489   0.008  0.00  0.00    +0.131 C 
BRANCH  16  17
ATOM     17  C   UNL     1       8.497  -3.299  -0.864  0.00  0.00    +0.003 C 
ATOM     18  C   UNL     1       8.653  -4.787  -0.547  0.00  0.00    +0.009 C 
ATOM     19  C   UNL     1       7.059  -2.864  -0.577  0.00  0.00    +0.009 C 
ENDBRANCH  16  17
ENDBRANCH   6  16
ENDBRANCH   1   4
BRANCH   1  20
ATOM     20  C   UNL     1       8.025   3.105   1.265  0.00  0.00    +0.114 C 
BRANCH  20  21
ATOM     21  C   UNL     1       8.303   2.646   2.698  0.00  0.00    +0.019 C 
BRANCH  21  23
ATOM     22  C   UNL     1       9.096   3.369   4.954  0.00  0.00    +0.004 C 
ATOM     23  C   UNL     1       8.818   3.828   3.521  0.00  0.00    -0.002 C 
ENDBRANCH  21  23
ENDBRANCH  20  21
ENDBRANCH   1  20
BRANCH   2  24
ATOM     24  C   UNL     1       5.231   2.782   0.890  0.00  0.00    +0.020 C 
BRANCH  24  25
ATOM     25  N   UNL     1       3.856   2.314   0.616  0.00  0.00    +0.390 N 
ATOM     26  H   UNL     1       3.782   1.324   0.879  0.00  0.00    -0.081 HD
BRANCH  25  27
ATOM     27  C   UNL     1       3.553   2.452  -0.824  0.00  0.00    -0.035 C 
BRANCH  27  28
ATOM     28  C   UNL     1       2.213   1.822  -1.102  0.00  0.00    -0.027 A 
ATOM     29  C   UNL     1       0.977   2.375  -1.030  0.00  0.00    +0.009 A 
ATOM     30  C   UNL     1      -0.124   1.598  -1.334  0.00  0.00    +0.008 A 
ATOM     31  C   UNL     1       0.063   0.305  -1.696  0.00  0.00    +0.045 A 
ATOM     32  S   UNL     1       1.840   0.152  -1.612  0.00  0.00    -0.103 S 
ENDBRANCH  27  28
ENDBRANCH  25  27
BRANCH  25  33
ATOM     33  C   UNL     1       2.888   3.095   1.414  0.00  0.00    -0.046 C 
BRANCH  33  34
ATOM     34  C   UNL     1       2.952   2.621   2.867  0.00  0.00    +0.102 C 
ATOM     35  C   UNL     1       1.815   3.262   3.693  0.00  0.00    +0.032 C 
ATOM     36  C   UNL     1       2.459   3.537   5.070  0.00  0.00    +0.030 C 
ATOM     37  C   UNL     1       3.910   3.030   4.913  0.00  0.00    +0.160 C 
ATOM     38  O   UNL     1       4.169   3.084   3.493  0.00  0.00    -0.378 OA
ENDBRANCH  33  34
ENDBRANCH  25  33
ENDBRANCH  24  25
ENDBRANCH   2  24
TORSDOF 13
