REMARK  Name = ZINC43217356
REMARK  10 active torsions:
REMARK  status: ('A' for Active; 'I' for Inactive)
REMARK    1  A    between atoms: C_4  and  C_7
REMARK    2  A    between atoms: C_7  and  C_8
REMARK    3  A    between atoms: C_8  and  C_10
REMARK    4  A    between atoms: C_8  and  N_16
REMARK    5  A    between atoms: C_17  and  C_19
REMARK    6  A    between atoms: C_22  and  C_24
REMARK    7  A    between atoms: C_24  and  C_26
REMARK    8  A    between atoms: C_24  and  N_34
REMARK    9  A    between atoms: C_26  and  C_27
REMARK   10  A    between atoms: C_30  and  O_33
REMARK                            x       y       z     vdW  Elec       q    Type
REMARK                         _______ _______ _______ _____ _____    ______ ____
ROOT
ATOM      1  C   UNL     1       4.659   1.698   4.062  0.00  0.00    +0.163 A 
ATOM      2  C   UNL     1       4.630   1.942   5.401  0.00  0.00    +0.230 A 
ATOM      3  O   UNL     1       4.948   3.235   5.571  0.00  0.00    -0.449 OA
ATOM      4  C   UNL     1       5.167   3.775   4.363  0.00  0.00    +0.182 A 
ATOM      5  N   UNL     1       5.003   2.865   3.451  0.00  0.00    -0.210 NA
ENDROOT
BRANCH   1   7
ATOM      6  N   UNL     1       4.451   0.315   2.057  0.00  0.00    -0.303 N 
ATOM      7  C   UNL     1       4.378   0.412   3.400  0.00  0.00    +0.266 C 
ATOM      8  O   UNL     1       4.079  -0.562   4.064  0.00  0.00    -0.268 OA
ATOM      9  H   UNL     1       4.689   1.092   1.527  0.00  0.00    +0.150 HD
BRANCH   6  10
ATOM     10  C   UNL     1       4.171  -0.963   1.399  0.00  0.00    +0.108 C 
BRANCH  10  11
ATOM     11  C   UNL     1       5.422  -1.804   1.383  0.00  0.00    -0.027 A 
ATOM     12  C   UNL     1       6.648  -1.216   1.138  0.00  0.00    +0.005 A 
ATOM     13  C   UNL     1       7.795  -1.987   1.124  0.00  0.00    +0.000 A 
ATOM     14  C   UNL     1       7.715  -3.348   1.355  0.00  0.00    +0.000 A 
ATOM     15  C   UNL     1       6.489  -3.937   1.602  0.00  0.00    +0.000 A 
ATOM     16  C   UNL     1       5.343  -3.164   1.620  0.00  0.00    +0.005 A 
ENDBRANCH  10  11
BRANCH  10  17
ATOM     17  C   UNL     1       3.711  -0.707  -0.038  0.00  0.00    +0.062 C 
BRANCH  17  21
ATOM     18  C   UNL     1      -0.017   1.378   0.010  0.00  0.00    +0.000 A 
ATOM     19  C   UNL     1       1.171   2.086   0.002  0.00  0.00    +0.000 A 
ATOM     20  C   UNL     1       2.377   1.411  -0.013  0.00  0.00    +0.004 A 
ATOM     21  C   UNL     1       2.396   0.029  -0.020  0.00  0.00    -0.045 A 
ATOM     22  C   UNL     1       1.208  -0.679  -0.012  0.00  0.00    +0.004 A 
ATOM     23  C   UNL     1       0.002  -0.004   0.002  0.00  0.00    +0.000 A 
ENDBRANCH  17  21
ENDBRANCH  10  17
ENDBRANCH   6  10
ENDBRANCH   1   7
BRANCH   4  24
ATOM     24  C   UNL     1       5.549   5.210   4.105  0.00  0.00    +0.017 C 
BRANCH  24  25
ATOM     25  N   UNL     1       4.706   6.095   4.920  0.00  0.00    +0.386 N 
ATOM     26  H   UNL     1       4.840   5.882   5.897  0.00  0.00    -0.089 HD
ATOM     27  H   UNL     1       4.962   7.056   4.747  0.00  0.00    -0.089 HD
ATOM     28  H   UNL     1       3.737   5.956   4.675  0.00  0.00    -0.089 HD
ENDBRANCH  24  25
BRANCH  24  29
ATOM     29  C   UNL     1       7.019   5.421   4.477  0.00  0.00    +0.028 C 
BRANCH  29  30
ATOM     30  C   UNL     1       7.434   6.821   4.105  0.00  0.00    -0.048 A 
ATOM     31  C   UNL     1       7.949   7.077   2.847  0.00  0.00    +0.007 A 
ATOM     32  C   UNL     1       8.332   8.359   2.504  0.00  0.00    +0.045 A 
ATOM     33  C   UNL     1       8.198   9.391   3.422  0.00  0.00    +0.117 A 
ATOM     34  C   UNL     1       7.681   9.132   4.683  0.00  0.00    +0.045 A 
ATOM     35  C   UNL     1       7.295   7.848   5.019  0.00  0.00    +0.007 A 
BRANCH  33  36
ATOM     36  O   UNL     1       8.574  10.653   3.087  0.00  0.00    -0.507 OA
ATOM     37  H   UNL     1       7.868  11.181   2.689  0.00  0.00    +0.292 HD
ENDBRANCH  33  36
ENDBRANCH  29  30
ENDBRANCH  24  29
ENDBRANCH   4  24
TORSDOF 10
