REMARK  Name = ZINC33568711
REMARK  5 active torsions:
REMARK  status: ('A' for Active; 'I' for Inactive)
REMARK    1  A    between atoms: C_4  and  C_7
REMARK    2  A    between atoms: C_10  and  C_34
REMARK    3  A    between atoms: N_12  and  C_13
REMARK    4  A    between atoms: C_16  and  C_19
REMARK    5  A    between atoms: C_27  and  C_29
REMARK                            x       y       z     vdW  Elec       q    Type
REMARK                         _______ _______ _______ _____ _____    ______ ____
ROOT
ATOM      1  C   UNL     1       6.680  -9.325  -0.392  0.00  0.00    +0.052 A 
ATOM      2  C   UNL     1       5.550 -10.139  -0.392  0.00  0.00    +0.025 A 
ATOM      3  C   UNL     1       4.306  -9.585  -0.286  0.00  0.00    +0.010 A 
ATOM      4  C   UNL     1       4.168  -8.195  -0.177  0.00  0.00    -0.024 A 
ATOM      5  C   UNL     1       5.307  -7.379  -0.183  0.00  0.00    +0.010 A 
ATOM      6  C   UNL     1       6.547  -7.942  -0.284  0.00  0.00    +0.025 A 
ENDROOT
BRANCH   4   7
ATOM      7  C   UNL     1       2.834  -7.595  -0.064  0.00  0.00    +0.028 C 
ATOM      8  C   UNL     1       2.699  -6.315   0.373  0.00  0.00    +0.082 A 
ATOM      9  C   UNL     1       1.501  -5.466   0.423  0.00  0.00    +0.288 A 
ATOM     10  O   UNL     1       0.421  -5.878   0.040  0.00  0.00    -0.265 OA
ATOM     11  N   UNL     1       1.637  -4.223   0.905  0.00  0.00    -0.169 N 
ATOM     12  C   UNL     1       2.870  -3.808   1.322  0.00  0.00    +0.200 A 
ATOM     13  S   UNL     1       3.931  -5.207   1.042  0.00  0.00    -0.044 S 
ATOM     14  N   UNL     1       2.799  -2.580   1.754  0.00  0.00    -0.197 NA
ATOM     15  C   UNL     1       1.534  -2.144   1.640  0.00  0.00    +0.218 A 
ATOM     16  N   UNL     1       0.792  -3.102   1.136  0.00  0.00    -0.138 NA
BRANCH  15  17
ATOM     17  C   UNL     1       1.052  -0.801   2.026  0.00  0.00    +0.173 A 
ATOM     18  C   UNL     1       1.810   0.197   2.554  0.00  0.00    +0.053 A 
ATOM     19  C   UNL     1       0.949   1.291   2.766  0.00  0.00    +0.042 A 
ATOM     20  C   UNL     1      -0.279   0.911   2.363  0.00  0.00    +0.196 A 
ATOM     21  O   UNL     1      -0.213  -0.353   1.916  0.00  0.00    -0.460 OA
ENDBRANCH  15  17
ENDBRANCH   4   7
BRANCH   1  26
ATOM     22  C   UNL     1       9.216  -9.153  -0.513  0.00  0.00    +0.134 C 
ATOM     23  C   UNL     1      10.278 -10.263  -0.650  0.00  0.00    +0.087 C 
ATOM     24  C   UNL     1       9.467 -11.538  -0.701  0.00  0.00    +0.069 C 
ATOM     25  N   UNL     1       8.213 -11.255  -0.608  0.00  0.00    -0.183 NA
ATOM     26  N   UNL     1       7.944  -9.893  -0.500  0.00  0.00    -0.216 N 
BRANCH  22  30
ATOM     27  C   UNL     1       9.377  -6.498  -3.856  0.00  0.00    +0.000 A 
ATOM     28  C   UNL     1       9.894  -6.105  -2.635  0.00  0.00    +0.000 A 
ATOM     29  C   UNL     1       9.842  -6.964  -1.554  0.00  0.00    +0.005 A 
ATOM     30  C   UNL     1       9.273  -8.216  -1.692  0.00  0.00    -0.025 A 
ATOM     31  C   UNL     1       8.761  -8.611  -2.914  0.00  0.00    +0.005 A 
ATOM     32  C   UNL     1       8.809  -7.750  -3.995  0.00  0.00    +0.000 A 
ENDBRANCH  22  30
BRANCH  24  33
ATOM     33  C   UNL     1      10.026 -12.897  -0.830  0.00  0.00    -0.002 A 
ATOM     34  C   UNL     1      11.408 -13.082  -0.922  0.00  0.00    +0.010 A 
ATOM     35  C   UNL     1      11.924 -14.355  -1.037  0.00  0.00    +0.001 A 
ATOM     36  C   UNL     1      11.075 -15.448  -1.072  0.00  0.00    +0.000 A 
ATOM     37  C   UNL     1       9.706 -15.272  -0.986  0.00  0.00    +0.001 A 
ATOM     38  C   UNL     1       9.176 -14.005  -0.865  0.00  0.00    +0.010 A 
ENDBRANCH  24  33
ENDBRANCH   1  26
TORSDOF 5
