REMARK  Name = ZINC58345098
REMARK  5 active torsions:
REMARK  status: ('A' for Active; 'I' for Inactive)
REMARK    1  A    between atoms: C_3  and  N_10
REMARK    2  A    between atoms: C_4  and  C_8
REMARK    3  A    between atoms: N_10  and  C_11
REMARK    4  A    between atoms: C_11  and  C_12
REMARK    5  A    between atoms: C_12  and  C_18
REMARK                            x       y       z     vdW  Elec       q    Type
REMARK                         _______ _______ _______ _____ _____    ______ ____
ROOT
ATOM      1  C   UNL     1       5.005   4.053  -0.088  0.00  0.00    +0.015 C 
ATOM      2  C   UNL     1       5.694   3.359   1.091  0.00  0.00    +0.041 C 
ATOM      3  C   UNL     1       5.127   3.911   2.401  0.00  0.00    +0.160 C 
ATOM      4  O   UNL     1       5.315   5.327   2.441  0.00  0.00    -0.380 OA
ATOM      5  C   UNL     1       4.654   6.034   1.389  0.00  0.00    +0.160 C 
ATOM      6  C   UNL     1       5.202   5.567   0.038  0.00  0.00    +0.041 C 
ENDROOT
BRANCH   1   7
ATOM      7  C   UNL     1       5.609   3.572  -1.382  0.00  0.00    -0.036 A 
ATOM      8  C   UNL     1       6.220   4.473  -2.235  0.00  0.00    +0.008 A 
ATOM      9  C   UNL     1       6.777   4.037  -3.422  0.00  0.00    +0.050 A 
ATOM     10  C   UNL     1       6.723   2.695  -3.762  0.00  0.00    +0.166 A 
ATOM     11  C   UNL     1       6.108   1.787  -2.903  0.00  0.00    +0.167 A 
ATOM     12  C   UNL     1       5.557   2.231  -1.711  0.00  0.00    +0.053 A 
ATOM     13  O   UNL     1       6.184   0.542  -3.456  0.00  0.00    -0.453 OA
ATOM     14  C   UNL     1       6.490   0.757  -4.847  0.00  0.00    +0.466 C 
ATOM     15  O   UNL     1       7.186   2.018  -4.853  0.00  0.00    -0.453 OA
ENDBRANCH   1   7
BRANCH   1  16
ATOM     16  C   UNL     1       3.510   3.729  -0.070  0.00  0.00    +0.113 C 
BRANCH  16  17
ATOM     17  N   UNL     1       2.857   4.372  -1.213  0.00  0.00    -0.342 N 
ATOM     18  H   UNL     1       3.370   4.940  -1.808  0.00  0.00    +0.146 HD
BRANCH  17  21
ATOM     19  C   UNL     1      -0.584   3.156  -0.823  0.00  0.00    +0.005 A 
ATOM     20  C   UNL     1       0.763   3.357  -0.594  0.00  0.00    +0.024 A 
ATOM     21  C   UNL     1       1.501   4.169  -1.443  0.00  0.00    +0.048 A 
ATOM     22  C   UNL     1       0.871   4.785  -2.537  0.00  0.00    +0.108 A 
ATOM     23  C   UNL     1      -0.494   4.571  -2.757  0.00  0.00    +0.142 A 
ATOM     24  C   UNL     1      -1.211   3.760  -1.899  0.00  0.00    +0.040 A 
ATOM     25  F   UNL     1      -1.111   5.159  -3.806  0.00  0.00    -0.204 F 
BRANCH  22  26
ATOM     26  C   UNL     1       1.621   5.625  -3.421  0.00  0.00    +0.104 C 
ATOM     27  N   UNL     1       2.216   6.292  -4.123  0.00  0.00    -0.191 NA
ENDBRANCH  22  26
ENDBRANCH  17  21
ENDBRANCH  16  17
ENDBRANCH   1  16
TORSDOF 5
