REMARK  Name = ZINC04119356
REMARK  3 active torsions:
REMARK  status: ('A' for Active; 'I' for Inactive)
REMARK    1  A    between atoms: C_3  and  O_29
REMARK    2  A    between atoms: C_4  and  C_8
REMARK    3  A    between atoms: N_9  and  N_10
REMARK                            x       y       z     vdW  Elec       q    Type
REMARK                         _______ _______ _______ _____ _____    ______ ____
ROOT
ATOM      1  N   UNL     1       6.029  -0.708  -0.063  0.00  0.00    -0.205 N 
ATOM      2  C   UNL     1       7.215  -0.001  -0.071  0.00  0.00    +0.241 A 
ATOM      3  N   UNL     1       8.376  -0.649  -0.092  0.00  0.00    -0.180 NA
ATOM      4  C   UNL     1       9.518   0.032  -0.101  0.00  0.00    +0.224 A 
ATOM      5  N   UNL     1       9.498   1.361  -0.088  0.00  0.00    -0.181 NA
ATOM      6  C   UNL     1       8.338   2.010  -0.067  0.00  0.00    +0.224 A 
ATOM      7  N   UNL     1       7.196   1.329  -0.064  0.00  0.00    -0.180 NA
ATOM      8  N   UNL     1       8.319   3.389  -0.054  0.00  0.00    -0.295 N 
ATOM      9  C   UNL     1       9.569   4.165  -0.070  0.00  0.00    +0.136 C 
ATOM     10  C   UNL     1       9.473   5.215  -1.182  0.00  0.00    +0.179 C 
ATOM     11  O   UNL     1       8.265   5.962  -1.021  0.00  0.00    -0.377 OA
ATOM     12  C   UNL     1       7.074   5.181  -1.140  0.00  0.00    +0.179 C 
ATOM     13  C   UNL     1       7.047   4.129  -0.031  0.00  0.00    +0.136 C 
ATOM     14  N   UNL     1      10.723  -0.641  -0.122  0.00  0.00    -0.299 N 
ATOM     15  C   UNL     1      11.992   0.098  -0.126  0.00  0.00    +0.108 C 
ATOM     16  C   UNL     1      12.864  -0.413   1.026  0.00  0.00    +0.019 C 
ATOM     17  C   UNL     1      13.019  -1.931   0.908  0.00  0.00    +0.003 C 
ATOM     18  C   UNL     1      11.645  -2.596   1.010  0.00  0.00    +0.019 C 
ATOM     19  C   UNL     1      10.760  -2.110  -0.136  0.00  0.00    +0.108 C 
ATOM     20  H   UNL     1       6.043  -1.678  -0.068  0.00  0.00    +0.177 HD
ENDROOT
BRANCH   1  22
ATOM     21  C   UNL     1       3.692  -0.690  -0.038  0.00  0.00    +0.142 C 
ATOM     22  N   UNL     1       4.806  -0.025  -0.046  0.00  0.00    -0.187 NA
BRANCH  21  26
ATOM     23  C   UNL     1      -0.017   1.381   0.010  0.00  0.00    +0.019 A 
ATOM     24  C   UNL     1       1.167   2.096   0.002  0.00  0.00    +0.047 A 
ATOM     25  C   UNL     1       2.381   1.430  -0.013  0.00  0.00    +0.126 A 
ATOM     26  C   UNL     1       2.405   0.028  -0.021  0.00  0.00    +0.037 A 
ATOM     27  C   UNL     1       1.204  -0.683  -0.013  0.00  0.00    +0.028 A 
ATOM     28  C   UNL     1       0.002  -0.004   0.002  0.00  0.00    +0.019 A 
ATOM     29 BR   UNL     1      -1.625  -0.968   0.012  0.00  0.00    -0.050 Br
BRANCH  25  30
ATOM     30  O   UNL     1       3.543   2.132  -0.022  0.00  0.00    -0.506 OA
ATOM     31  H   UNL     1       3.889   2.331   0.859  0.00  0.00    +0.292 HD
ENDBRANCH  25  30
ENDBRANCH  21  26
ENDBRANCH   1  22
TORSDOF 3
