REMARK  Name = ZINC24093112
REMARK  11 active torsions:
REMARK  status: ('A' for Active; 'I' for Inactive)
REMARK    1  A    between atoms: C_1  and  C_2
REMARK    2  A    between atoms: C_2  and  N_3
REMARK    3  A    between atoms: N_3  and  C_4
REMARK    4  A    between atoms: C_9  and  C_11
REMARK    5  A    between atoms: C_11  and  S_12
REMARK    6  A    between atoms: S_12  and  C_13
REMARK    7  A    between atoms: C_16  and  C_28
REMARK    8  A    between atoms: N_17  and  C_18
REMARK    9  A    between atoms: C_21  and  O_24
REMARK   10  A    between atoms: O_24  and  C_25
REMARK   11  A    between atoms: C_28  and  N_29
REMARK                            x       y       z     vdW  Elec       q    Type
REMARK                         _______ _______ _______ _____ _____    ______ ____
ROOT
ATOM      1  C   UNL     1       6.231   1.117   2.094  0.00  0.00    +0.197 A 
ATOM      2  N   UNL     1       6.413   0.042   1.363  0.00  0.00    -0.122 NA
ATOM      3  N   UNL     1       5.366  -0.703   1.412  0.00  0.00    -0.135 NA
ATOM      4  C   UNL     1       4.456  -0.149   2.163  0.00  0.00    +0.122 A 
ATOM      5  N   UNL     1       4.975   1.030   2.629  0.00  0.00    -0.276 N 
ENDROOT
BRANCH   5   6
ATOM      6  C   UNL     1       4.348   1.955   3.478  0.00  0.00    +0.050 A 
ATOM      7  C   UNL     1       3.246   2.671   3.032  0.00  0.00    +0.030 A 
ATOM      8  C   UNL     1       2.627   3.579   3.869  0.00  0.00    +0.048 A 
ATOM      9  C   UNL     1       3.113   3.781   5.153  0.00  0.00    +0.127 A 
ATOM     10  C   UNL     1       4.218   3.070   5.598  0.00  0.00    +0.048 A 
ATOM     11  C   UNL     1       4.834   2.159   4.762  0.00  0.00    +0.030 A 
BRANCH   9  12
ATOM     12  O   UNL     1       2.506   4.678   5.976  0.00  0.00    -0.434 OA
BRANCH  12  13
ATOM     13  C   UNL     1       1.374   5.375   5.453  0.00  0.00    +0.541 C 
ATOM     14  F   UNL     1       1.756   6.103   4.320  0.00  0.00    -0.166 F 
ATOM     15  F   UNL     1       0.381   4.455   5.102  0.00  0.00    -0.166 F 
ENDBRANCH  12  13
ENDBRANCH   9  12
ENDBRANCH   5   6
BRANCH   1  16
ATOM     16  S   UNL     1       7.386   2.425   2.340  0.00  0.00    -0.076 S 
BRANCH  16  17
ATOM     17  C   UNL     1       8.763   1.821   1.333  0.00  0.00    +0.173 C 
BRANCH  17  19
ATOM     18  N   UNL     1      11.040   2.566   0.717  0.00  0.00    -0.275 N 
ATOM     19  C   UNL     1       9.901   2.808   1.395  0.00  0.00    +0.230 C 
ATOM     20  O   UNL     1       9.790   3.820   2.054  0.00  0.00    -0.274 OA
BRANCH  18  21
ATOM     21  C   UNL     1      12.091   3.478   0.773  0.00  0.00    +0.010 C 
ATOM     22  C   UNL     1      13.241   3.329   0.153  0.00  0.00    -0.008 C 
ATOM     23  C   UNL     1      14.155   4.501   0.423  0.00  0.00    +0.029 C 
ATOM     24  C   UNL     1      13.229   5.605   0.984  0.00  0.00    +0.010 C 
ATOM     25  C   UNL     1      12.064   4.768   1.560  0.00  0.00    +0.051 C 
ENDBRANCH  18  21
BRANCH  18  27
ATOM     26  C   UNL     1      10.683   1.607  -1.505  0.00  0.00    +0.025 C 
ATOM     27  C   UNL     1      11.173   1.344  -0.080  0.00  0.00    +0.110 C 
ENDBRANCH  18  27
ENDBRANCH  17  19
ENDBRANCH  16  17
ENDBRANCH   1  16
BRANCH   4  28
ATOM     28  C   UNL     1       3.090  -0.706   2.468  0.00  0.00    -0.001 C 
BRANCH  28  29
ATOM     29  N   UNL     1       3.133  -1.442   3.738  0.00  0.00    +0.384 N 
ATOM     30  C   UNL     1       1.779  -1.678   4.256  0.00  0.00    -0.078 C 
ATOM     31  C   UNL     1       1.866  -2.316   5.644  0.00  0.00    -0.019 C 
ATOM     32  C   UNL     1       2.633  -3.638   5.546  0.00  0.00    -0.004 C 
ATOM     33  C   UNL     1       4.022  -3.371   4.959  0.00  0.00    -0.019 C 
ATOM     34  C   UNL     1       3.872  -2.703   3.590  0.00  0.00    -0.078 C 
ATOM     35  H   UNL     1       3.669  -0.823   4.472  0.00  0.00    -0.081 HD
ENDBRANCH  28  29
ENDBRANCH   4  28
TORSDOF 10
