REMARK  Name = ZINC06166220
REMARK  5 active torsions:
REMARK  status: ('A' for Active; 'I' for Inactive)
REMARK    1  A    between atoms: C_1  and  O_2
REMARK    2  A    between atoms: O_2  and  C_3
REMARK    3  A    between atoms: C_8  and  N_9
REMARK    4  A    between atoms: C_10  and  O_32
REMARK    5  A    between atoms: C_11  and  C_18
REMARK                            x       y       z     vdW  Elec       q    Type
REMARK                         _______ _______ _______ _____ _____    ______ ____
ROOT
ATOM      1  N   UNL     1      -0.072   3.936   0.024  0.00  0.00    -0.229 N 
ATOM      2  C   UNL     1       1.145   3.301   0.009  0.00  0.00    +0.209 A 
ATOM      3  C   UNL     1       1.191   1.939   0.001  0.00  0.00    +0.069 A 
ATOM      4  C   UNL     1      -0.015   1.215   0.009  0.00  0.00    +0.260 A 
ATOM      5  O   UNL     1       0.002  -0.004   0.002  0.00  0.00    -0.267 OA
ATOM      6  N   UNL     1      -1.188   1.877   0.018  0.00  0.00    -0.274 N 
ATOM      7  H   UNL     1      -2.047   1.365   0.015  0.00  0.00    +0.173 HD
ATOM      8  C   UNL     1      -1.213   3.222   0.032  0.00  0.00    +0.337 A 
ATOM      9  O   UNL     1      -2.282   3.802   0.045  0.00  0.00    -0.246 OA
ENDROOT
BRANCH   3  10
ATOM     10  C   UNL     1       2.515   1.219  -0.016  0.00  0.00    +0.018 C 
ATOM     11  C   UNL     1       2.656   0.448  -1.307  0.00  0.00    +0.011 A 
ATOM     12  C   UNL     1       3.129  -0.822  -1.356  0.00  0.00    -0.022 A 
ATOM     13  C   UNL     1       3.113  -1.228  -2.743  0.00  0.00    +0.003 A 
ATOM     14  C   UNL     1       3.481  -2.411  -3.392  0.00  0.00    +0.010 A 
ATOM     15  C   UNL     1       3.328  -2.445  -4.756  0.00  0.00    +0.001 A 
ATOM     16  C   UNL     1       2.831  -1.366  -5.468  0.00  0.00    +0.002 A 
ATOM     17  C   UNL     1       2.459  -0.183  -4.853  0.00  0.00    +0.026 A 
ATOM     18  C   UNL     1       2.604  -0.119  -3.468  0.00  0.00    +0.047 A 
ATOM     19  N   UNL     1       2.340   0.871  -2.566  0.00  0.00    -0.359 N 
ATOM     20  H   UNL     1       1.983   1.746  -2.786  0.00  0.00    +0.166 HD
ATOM     21  C   UNL     1       3.572  -1.593  -0.138  0.00  0.00    +0.018 C 
ATOM     22  C   UNL     1       3.760  -0.596   1.013  0.00  0.00    -0.076 C 
ATOM     23  N   UNL     1       2.567   0.270   1.118  0.00  0.00    +0.388 N 
ATOM     24  H   UNL     1       1.723  -0.314   1.109  0.00  0.00    -0.084 HD
ATOM     25  H   UNL     1       2.609   0.797   1.998  0.00  0.00    -0.084 HD
ENDBRANCH   3  10
BRANCH   1  31
ATOM     26  C   UNL     1      -0.143   6.029   1.241  0.00  0.00    +0.144 A 
ATOM     27  C   UNL     1      -0.198   7.414   1.243  0.00  0.00    +0.048 A 
ATOM     28  C   UNL     1      -0.236   8.106   0.047  0.00  0.00    +0.004 A 
ATOM     29  C   UNL     1      -0.221   7.420  -1.154  0.00  0.00    +0.002 A 
ATOM     30  C   UNL     1      -0.161   6.040  -1.164  0.00  0.00    +0.030 A 
ATOM     31  C   UNL     1      -0.127   5.338   0.032  0.00  0.00    +0.096 A 
BRANCH  26  33
ATOM     32  C   UNL     1      -0.124   6.122   3.617  0.00  0.00    +0.277 C 
ATOM     33  O   UNL     1      -0.105   5.347   2.417  0.00  0.00    -0.493 OA
ENDBRANCH  26  33
ENDBRANCH   1  31
BRANCH   2  34
ATOM     34  O   UNL     1       2.288   4.021   0.002  0.00  0.00    -0.493 OA
ATOM     35  H   UNL     1       2.150   4.978   0.009  0.00  0.00    +0.294 HD
ENDBRANCH   2  34
TORSDOF 4
