REMARK  Name = ZINC06982050
REMARK  11 active torsions:
REMARK  status: ('A' for Active; 'I' for Inactive)
REMARK    1  A    between atoms: C_1  and  C_2
REMARK    2  A    between atoms: C_5  and  S_9
REMARK    3  A    between atoms: C_7  and  C_8
REMARK    4  A    between atoms: S_9  and  C_10
REMARK    5  A    between atoms: C_13  and  N_16
REMARK    6  A    between atoms: C_17  and  C_19
REMARK    7  A    between atoms: C_19  and  C_21
REMARK    8  A    between atoms: C_19  and  N_25
REMARK    9  A    between atoms: C_21  and  C_22
REMARK   10  A    between atoms: C_22  and  S_23
REMARK   11  A    between atoms: S_23  and  C_24
REMARK                            x       y       z     vdW  Elec       q    Type
REMARK                         _______ _______ _______ _____ _____    ______ ____
ROOT
ATOM      1  N   UNL     1       3.329   6.280  -1.321  0.00  0.00    -0.284 N 
ATOM      2  C   UNL     1       3.687   5.491  -2.353  0.00  0.00    +0.238 C 
ATOM      3  O   UNL     1       4.114   5.985  -3.375  0.00  0.00    -0.273 OA
ATOM      4  H   UNL     1       2.925   5.891  -0.530  0.00  0.00    +0.155 HD
ENDROOT
BRANCH   1   8
ATOM      5  C   UNL     1       3.960  10.398  -1.528  0.00  0.00    +0.013 A 
ATOM      6  C   UNL     1       3.615   9.689  -2.673  0.00  0.00    +0.017 A 
ATOM      7  C   UNL     1       3.406   8.326  -2.604  0.00  0.00    +0.024 A 
ATOM      8  C   UNL     1       3.541   7.664  -1.391  0.00  0.00    +0.034 A 
ATOM      9  C   UNL     1       3.880   8.373  -0.246  0.00  0.00    +0.024 A 
ATOM     10  C   UNL     1       4.094   9.734  -0.315  0.00  0.00    +0.017 A 
BRANCH   5  11
ATOM     11  S   UNL     1       4.227  12.137  -1.616  0.00  0.00    -0.089 S 
BRANCH  11  16
ATOM     12  C   UNL     1      -1.100  14.513  -0.061  0.00  0.00    +0.044 C 
ATOM     13  C   UNL     1       0.230  13.919  -0.449  0.00  0.00    -0.047 A 
ATOM     14  C   UNL     1       0.360  12.550  -0.590  0.00  0.00    +0.005 A 
ATOM     15  C   UNL     1       1.575  12.003  -0.952  0.00  0.00    +0.015 A 
ATOM     16  C   UNL     1       2.672  12.831  -1.162  0.00  0.00    +0.013 A 
ATOM     17  C   UNL     1       2.538  14.206  -1.019  0.00  0.00    +0.018 A 
ATOM     18  C   UNL     1       1.317  14.746  -0.663  0.00  0.00    -0.046 A 
ATOM     19  C   UNL     1       1.171  16.238  -0.508  0.00  0.00    +0.044 C 
ENDBRANCH  11  16
ENDBRANCH   5  11
ENDBRANCH   1   8
BRANCH   2  20
ATOM     20  C   UNL     1       3.555   3.994  -2.238  0.00  0.00    +0.161 C 
BRANCH  20  21
ATOM     21  N   UNL     1       3.537   3.401  -3.578  0.00  0.00    -0.288 N 
ATOM     22  C   UNL     1       4.586   3.573  -4.406  0.00  0.00    +0.298 C 
ATOM     23  O   UNL     1       5.548   4.220  -4.041  0.00  0.00    -0.253 OA
ATOM     24  N   UNL     1       4.569   3.027  -5.638  0.00  0.00    -0.313 N 
ATOM     25  H   UNL     1       2.769   2.885  -3.869  0.00  0.00    +0.151 HD
ATOM     26  H   UNL     1       3.801   2.511  -5.929  0.00  0.00    +0.146 HD
ATOM     27  H   UNL     1       5.324   3.151  -6.234  0.00  0.00    +0.146 HD
ENDBRANCH  20  21
BRANCH  20  28
ATOM     28  C   UNL     1       4.743   3.437  -1.450  0.00  0.00    +0.042 C 
BRANCH  28  29
ATOM     29  C   UNL     1       4.547   1.936  -1.226  0.00  0.00    +0.071 C 
BRANCH  29  30
ATOM     30  S   UNL     1       5.955   1.276  -0.292  0.00  0.00    -0.164 S 
ATOM     31  C   UNL     1       5.573  -0.488  -0.112  0.00  0.00    +0.084 C 
ENDBRANCH  29  30
ENDBRANCH  28  29
ENDBRANCH  20  28
ENDBRANCH   2  20
TORSDOF 8
