REMARK  Name = ZINC40216732
REMARK  6 active torsions:
REMARK  status: ('A' for Active; 'I' for Inactive)
REMARK    1  A    between atoms: C_1  and  C_2
REMARK    2  A    between atoms: C_4  and  N_19
REMARK    3  A    between atoms: C_8  and  C_18
REMARK    4  A    between atoms: C_9  and  C_11
REMARK    5  A    between atoms: N_19  and  C_20
REMARK    6  A    between atoms: C_20  and  C_21
REMARK                            x       y       z     vdW  Elec       q    Type
REMARK                         _______ _______ _______ _____ _____    ______ ____
ROOT
ATOM      1  C   UNL     1       0.014   1.454  -0.745  0.00  0.00    +0.066 C 
ATOM      2  C   UNL     1       0.025  -0.039  -0.540  0.00  0.00    +0.044 A 
ATOM      3  C   UNL     1      -1.175  -0.750  -0.552  0.00  0.00    +0.066 A 
ATOM      4  C   UNL     1      -1.155  -2.106  -0.366  0.00  0.00    +0.124 A 
ATOM      5  N   UNL     1       0.049  -2.731  -0.173  0.00  0.00    -0.200 N 
ATOM      6  C   UNL     1       1.205  -1.993  -0.169  0.00  0.00    +0.161 A 
ATOM      7  N   UNL     1       1.167  -0.665  -0.358  0.00  0.00    -0.233 NA
ATOM      8  C   UNL     1       2.251  -2.876   0.047  0.00  0.00    +0.021 A 
ATOM      9  C   UNL     1       1.704  -4.157   0.172  0.00  0.00    +0.098 A 
ATOM     10  N   UNL     1       0.393  -4.070   0.041  0.00  0.00    -0.163 NA
ATOM     11  C   UNL     1       3.713  -2.521   0.130  0.00  0.00    +0.050 C 
ENDROOT
BRANCH   9  12
ATOM     12  C   UNL     1       2.469  -5.406   0.411  0.00  0.00    +0.004 A 
ATOM     13  C   UNL     1       3.525  -5.415   1.321  0.00  0.00    +0.010 A 
ATOM     14  C   UNL     1       4.234  -6.579   1.540  0.00  0.00    +0.002 A 
ATOM     15  C   UNL     1       3.899  -7.735   0.859  0.00  0.00    +0.020 A 
ATOM     16  C   UNL     1       2.851  -7.732  -0.046  0.00  0.00    +0.042 A 
ATOM     17  C   UNL     1       2.131  -6.574  -0.268  0.00  0.00    +0.030 A 
ATOM     18 CL   UNL     1       2.437  -9.187  -0.897  0.00  0.00    -0.084 Cl
ENDBRANCH   9  12
BRANCH   4  19
ATOM     19  N   UNL     1      -2.327  -2.830  -0.373  0.00  0.00    -0.326 N 
ATOM     20  H   UNL     1      -2.304  -3.791  -0.240  0.00  0.00    +0.148 HD
BRANCH  19  21
ATOM     21  C   UNL     1      -3.608  -2.150  -0.581  0.00  0.00    +0.134 C 
BRANCH  21  22
ATOM     22  C   UNL     1      -4.742  -3.176  -0.543  0.00  0.00    +0.135 C 
ATOM     23  C   UNL     1      -6.082  -2.488  -0.881  0.00  0.00    +0.035 C 
ATOM     24  C   UNL     1      -7.066  -3.183   0.100  0.00  0.00    +0.031 C 
ATOM     25  C   UNL     1      -6.146  -3.412   1.326  0.00  0.00    +0.160 C 
ATOM     26  O   UNL     1      -4.856  -3.727   0.774  0.00  0.00    -0.375 OA
ENDBRANCH  21  22
ENDBRANCH  19  21
ENDBRANCH   4  19
TORSDOF 4
