REMARK  Name = ZINC35982368
REMARK  13 active torsions:
REMARK  status: ('A' for Active; 'I' for Inactive)
REMARK    1  A    between atoms: C_1  and  N_2
REMARK    2  A    between atoms: N_2  and  C_3
REMARK    3  A    between atoms: N_2  and  C_4
REMARK    4  A    between atoms: C_4  and  C_6
REMARK    5  A    between atoms: C_4  and  C_30
REMARK    6  A    between atoms: C_6  and  N_7
REMARK    7  A    between atoms: C_8  and  C_10
REMARK    8  A    between atoms: C_10  and  C_12
REMARK    9  A    between atoms: C_10  and  N_19
REMARK   10  A    between atoms: C_12  and  C_13
REMARK   11  A    between atoms: C_20  and  O_22
REMARK   12  A    between atoms: O_22  and  C_23
REMARK   13  A    between atoms: C_23  and  C_24
REMARK                            x       y       z     vdW  Elec       q    Type
REMARK                         _______ _______ _______ _____ _____    ______ ____
ROOT
ATOM      1  C   UNL     1       1.358  -3.585   2.401  0.00  0.00    +0.166 C 
ENDROOT
BRANCH   1   3
ATOM      2  N   UNL     1       0.046  -2.015   1.011  0.00  0.00    -0.315 N 
ATOM      3  C   UNL     1       0.460  -3.279   1.230  0.00  0.00    +0.234 C 
ATOM      4  O   UNL     1       0.109  -4.169   0.485  0.00  0.00    -0.274 OA
ATOM      5  H   UNL     1       0.327  -1.302   1.607  0.00  0.00    +0.149 HD
BRANCH   2   6
ATOM      6  C   UNL     1      -0.827  -1.716  -0.127  0.00  0.00    +0.094 C 
BRANCH   6   7
ATOM      7  C   UNL     1      -1.250  -0.247  -0.073  0.00  0.00    -0.014 C 
BRANCH   7   8
ATOM      8  C   UNL     1      -2.101  -0.013   1.148  0.00  0.00    -0.022 A 
ATOM      9  C   UNL     1      -1.751   0.525   2.342  0.00  0.00    +0.009 A 
ATOM     10  C   UNL     1      -2.710   0.644   3.330  0.00  0.00    +0.008 A 
ATOM     11  C   UNL     1      -3.971   0.219   3.077  0.00  0.00    +0.045 A 
ATOM     12  S   UNL     1      -3.833  -0.367   1.396  0.00  0.00    -0.103 S 
ENDBRANCH   7   8
BRANCH   7  14
ATOM     13  C   UNL     1      -2.489   1.474  -1.194  0.00  0.00    -0.096 C 
ATOM     14  N   UNL     1      -2.022   0.084  -1.279  0.00  0.00    +0.382 N 
ATOM     15  C   UNL     1      -1.170  -0.075  -2.465  0.00  0.00    -0.096 C 
ATOM     16  H   UNL     1      -2.816  -0.534  -1.349  0.00  0.00    -0.082 HD
ENDBRANCH   7  14
ENDBRANCH   6   7
ENDBRANCH   2   6
ENDBRANCH   1   3
BRANCH   1  17
ATOM     17  N   UNL     1       1.663  -5.018   2.420  0.00  0.00    -0.269 N 
ATOM     18  C   UNL     1       2.790  -5.459   3.013  0.00  0.00    +0.401 C 
ATOM     19  O   UNL     1       3.553  -4.668   3.532  0.00  0.00    -0.226 OA
ATOM     20  H   UNL     1       1.054  -5.649   2.006  0.00  0.00    +0.153 HD
BRANCH  18  21
ATOM     21  O   UNL     1       3.071  -6.776   3.030  0.00  0.00    -0.446 OA
BRANCH  21  22
ATOM     22  C   UNL     1       4.282  -7.173   3.676  0.00  0.00    +0.269 C 
BRANCH  22  23
ATOM     23  C   UNL     1       4.427  -8.670   3.597  0.00  0.00    -0.010 A 
ATOM     24  C   UNL     1       3.899  -9.469   4.594  0.00  0.00    +0.007 A 
ATOM     25  C   UNL     1       4.031 -10.844   4.521  0.00  0.00    +0.000 A 
ATOM     26  C   UNL     1       4.691 -11.419   3.451  0.00  0.00    +0.000 A 
ATOM     27  C   UNL     1       5.218 -10.620   2.453  0.00  0.00    +0.000 A 
ATOM     28  C   UNL     1       5.082  -9.246   2.524  0.00  0.00    +0.007 A 
ENDBRANCH  22  23
ENDBRANCH  21  22
ENDBRANCH  18  21
ENDBRANCH   1  17
BRANCH   1  29
ATOM     29  C   UNL     1       0.651  -3.197   3.701  0.00  0.00    +0.067 C 
BRANCH  29  30
ATOM     30  C   UNL     1       1.594  -3.388   4.862  0.00  0.00    -0.045 A 
ATOM     31  C   UNL     1       1.645  -4.604   5.517  0.00  0.00    +0.004 A 
ATOM     32  C   UNL     1       2.509  -4.780   6.582  0.00  0.00    +0.000 A 
ATOM     33  C   UNL     1       3.323  -3.740   6.990  0.00  0.00    +0.000 A 
ATOM     34  C   UNL     1       3.272  -2.524   6.334  0.00  0.00    +0.000 A 
ATOM     35  C   UNL     1       2.411  -2.350   5.267  0.00  0.00    +0.004 A 
ENDBRANCH  29  30
ENDBRANCH   1  29
TORSDOF 11
