REMARK  Name = ZINC67434394
REMARK  8 active torsions:
REMARK  status: ('A' for Active; 'I' for Inactive)
REMARK    1  A    between atoms: C_1  and  C_2
REMARK    2  A    between atoms: C_2  and  C_3
REMARK    3  A    between atoms: C_3  and  C_4
REMARK    4  A    between atoms: C_4  and  C_5
REMARK    5  A    between atoms: C_9  and  C_11
REMARK    6  A    between atoms: C_11  and  N_12
REMARK    7  A    between atoms: C_15  and  C_18
REMARK    8  A    between atoms: C_18  and  C_25
REMARK                            x       y       z     vdW  Elec       q    Type
REMARK                         _______ _______ _______ _____ _____    ______ ____
ROOT
ATOM      1  N   UNL     1       1.089  -3.737  -6.638  0.00  0.00    +0.383 N 
ATOM      2  C   UNL     1      -0.294  -3.497  -6.208  0.00  0.00    -0.078 C 
ATOM      3  C   UNL     1      -1.194  -4.624  -6.720  0.00  0.00    -0.013 C 
ATOM      4  C   UNL     1      -1.132  -4.663  -8.250  0.00  0.00    +0.018 C 
ATOM      5  C   UNL     1       0.325  -4.839  -8.688  0.00  0.00    -0.013 C 
ATOM      6  C   UNL     1       1.168  -3.705  -8.103  0.00  0.00    -0.078 C 
ATOM      7  H   UNL     1       1.391  -4.641  -6.305  0.00  0.00    -0.081 HD
ENDROOT
BRANCH   4   8
ATOM      8  C   UNL     1      -1.967  -5.837  -8.765  0.00  0.00    +0.112 C 
ATOM      9  C   UNL     1      -3.417  -5.682  -8.353  0.00  0.00    +0.244 C 
ATOM     10  O   UNL     1      -3.857  -5.637  -7.224  0.00  0.00    -0.273 OA
ATOM     11  N   UNL     1      -4.116  -5.603  -9.503  0.00  0.00    -0.238 N 
ATOM     12  C   UNL     1      -3.317  -5.687 -10.573  0.00  0.00    +0.307 C 
ATOM     13  O   UNL     1      -3.717  -5.641 -11.720  0.00  0.00    -0.252 OA
ATOM     14  N   UNL     1      -2.022  -5.827 -10.237  0.00  0.00    -0.285 N 
ATOM     15  C   UNL     1      -1.399  -7.164  -8.257  0.00  0.00    +0.042 C 
ATOM     16  H   UNL     1      -5.080  -5.500  -9.549  0.00  0.00    +0.159 HD
ATOM     17  H   UNL     1      -1.271  -5.907 -10.846  0.00  0.00    +0.151 HD
ENDBRANCH   4   8
BRANCH   1  18
ATOM     18  C   UNL     1       1.962  -2.696  -6.079  0.00  0.00    -0.019 C 
BRANCH  18  23
ATOM     19  C   UNL     1       1.444  -2.513  -2.505  0.00  0.00    +0.108 A 
ATOM     20  N   UNL     1       2.498  -3.360  -2.531  0.00  0.00    -0.333 N 
ATOM     21  H   UNL     1       2.933  -3.761  -1.763  0.00  0.00    +0.168 HD
ATOM     22  C   UNL     1       2.835  -3.545  -3.845  0.00  0.00    +0.128 A 
ATOM     23  C   UNL     1       1.977  -2.806  -4.576  0.00  0.00    +0.062 A 
ATOM     24  N   UNL     1       1.136  -2.191  -3.731  0.00  0.00    -0.238 NA
ATOM     25 CL   UNL     1       4.122  -4.540  -4.452  0.00  0.00    -0.062 Cl
BRANCH  19  26
ATOM     26  C   UNL     1       0.739  -2.027  -1.265  0.00  0.00    +0.074 C 
BRANCH  26  27
ATOM     27  C   UNL     1       0.718  -0.497  -1.257  0.00  0.00    +0.007 C 
BRANCH  27  29
ATOM     28  C   UNL     1      -0.019   1.526   0.010  0.00  0.00    +0.004 C 
ATOM     29  C   UNL     1       0.002  -0.004   0.002  0.00  0.00    -0.003 C 
ENDBRANCH  27  29
ENDBRANCH  26  27
ENDBRANCH  19  26
ENDBRANCH  18  23
ENDBRANCH   1  18
TORSDOF 6
