REMARK  Name = ZINC32984121
REMARK  4 active torsions:
REMARK  status: ('A' for Active; 'I' for Inactive)
REMARK    1  A    between atoms: C_4  and  C_7
REMARK    2  A    between atoms: C_7  and  C_9
REMARK    3  A    between atoms: N_11  and  C_21
REMARK    4  A    between atoms: C_24  and  C_27
REMARK                            x       y       z     vdW  Elec       q    Type
REMARK                         _______ _______ _______ _____ _____    ______ ____
ROOT
ATOM      1  C   UNL     1      -1.276  -0.950   0.500  0.00  0.00    +0.155 C 
ATOM      2  C   UNL     1      -2.357  -0.143   0.475  0.00  0.00    +0.112 C 
ATOM      3  N   UNL     1      -3.613  -0.566   0.220  0.00  0.00    -0.272 N 
ATOM      4  C   UNL     1      -3.975  -1.734  -0.440  0.00  0.00    +0.063 A 
ATOM      5  C   UNL     1      -5.243  -1.835  -1.010  0.00  0.00    +0.026 A 
ATOM      6  C   UNL     1      -5.620  -2.990  -1.662  0.00  0.00    +0.002 A 
ATOM      7  C   UNL     1      -4.744  -4.057  -1.756  0.00  0.00    +0.002 A 
ATOM      8  C   UNL     1      -3.482  -3.964  -1.196  0.00  0.00    +0.029 A 
ATOM      9  C   UNL     1      -3.103  -2.810  -0.546  0.00  0.00    +0.115 A 
ATOM     10  S   UNL     1      -1.490  -2.671   0.155  0.00  0.00    +0.032 S 
ATOM     11  O   UNL     1      -0.562  -3.006  -0.867  0.00  0.00    -0.164 OA
ATOM     12  O   UNL     1      -1.529  -3.341   1.408  0.00  0.00    -0.164 OA
ENDROOT
BRANCH   3  13
ATOM     13  C   UNL     1      -4.652   0.251   0.664  0.00  0.00    +0.038 A 
ATOM     14  C   UNL     1      -5.064   1.332  -0.109  0.00  0.00    +0.024 A 
ATOM     15  C   UNL     1      -6.092   2.138   0.325  0.00  0.00    +0.015 A 
ATOM     16  C   UNL     1      -6.716   1.875   1.548  0.00  0.00    +0.037 A 
ATOM     17  C   UNL     1      -6.296   0.791   2.324  0.00  0.00    +0.015 A 
ATOM     18  C   UNL     1      -5.270  -0.013   1.883  0.00  0.00    +0.024 A 
BRANCH  16  19
ATOM     19  C   UNL     1      -7.814   2.741   2.018  0.00  0.00    +0.242 C 
ATOM     20  O   UNL     1      -8.356   2.511   3.083  0.00  0.00    -0.270 OA
ATOM     21  N   UNL     1      -8.218   3.785   1.269  0.00  0.00    -0.325 N 
ATOM     22  H   UNL     1      -9.037   4.430   1.619  0.00  0.00    +0.145 HD
ATOM     23  H   UNL     1      -7.728   3.993   0.306  0.00  0.00    +0.145 HD
ENDBRANCH  16  19
ENDBRANCH   3  13
BRANCH   1  24
ATOM     24  C   UNL     1       0.005  -0.429   0.790  0.00  0.00    +0.212 C 
ATOM     25  O   UNL     1       0.810  -1.101   1.410  0.00  0.00    -0.285 OA
BRANCH  24  29
ATOM     26  C   UNL     1       1.049   3.482  -0.503  0.00  0.00    +0.000 A 
ATOM     27  C   UNL     1       1.902   2.781   0.332  0.00  0.00    +0.001 A 
ATOM     28  C   UNL     1       1.569   1.511   0.755  0.00  0.00    +0.012 A 
ATOM     29  C   UNL     1       0.368   0.933   0.340  0.00  0.00    +0.024 A 
ATOM     30  C   UNL     1      -0.485   1.643  -0.506  0.00  0.00    +0.012 A 
ATOM     31  C   UNL     1      -0.142   2.914  -0.918  0.00  0.00    +0.001 A 
ENDBRANCH  24  29
ENDBRANCH   1  24
TORSDOF 4
