REMARK  Name = ZINC63362918
REMARK  5 active torsions:
REMARK  status: ('A' for Active; 'I' for Inactive)
REMARK    1  A    between atoms: C_1  and  C_2
REMARK    2  A    between atoms: C_9  and  N_17
REMARK    3  A    between atoms: N_17  and  C_18
REMARK    4  A    between atoms: C_18  and  C_19
REMARK    5  A    between atoms: C_26  and  C_39
REMARK                            x       y       z     vdW  Elec       q    Type
REMARK                         _______ _______ _______ _____ _____    ______ ____
ROOT
ATOM      1  C   UNL     1      -3.304  -5.781   1.428  0.00  0.00    +0.096 C 
ENDROOT
BRANCH   1   2
ATOM      2  C   UNL     1      -4.619  -5.172   0.938  0.00  0.00    +0.118 C 
ATOM      3  C   UNL     1      -5.750  -6.245   0.928  0.00  0.00    +0.045 C 
ATOM      4  C   UNL     1      -7.047  -5.511   1.271  0.00  0.00    +0.015 C 
ATOM      5  C   UNL     1      -8.262  -6.331   0.843  0.00  0.00    +0.030 C 
ATOM      6  C   UNL     1      -8.218  -6.492  -0.683  0.00  0.00    -0.023 C 
ATOM      7  C   UNL     1      -9.477  -7.221  -1.152  0.00  0.00    +0.007 C 
ATOM      8  C   UNL     1     -10.713  -6.379  -0.832  0.00  0.00    +0.003 C 
ATOM      9  C   UNL     1     -10.838  -6.212   0.685  0.00  0.00    +0.037 C 
ATOM     10  C   UNL     1      -9.546  -5.606   1.247  0.00  0.00    +0.096 C 
ATOM     11  C   UNL     1      -9.491  -4.088   1.411  0.00  0.00    +0.196 C 
ATOM     12  O   UNL     1      -9.587  -4.977   2.527  0.00  0.00    -0.368 OA
ATOM     13  C   UNL     1      -6.980  -7.317  -1.034  0.00  0.00    +0.052 C 
ATOM     14  C   UNL     1      -5.703  -6.653  -0.557  0.00  0.00    +0.181 C 
ATOM     15  O   UNL     1      -5.430  -5.424  -1.241  0.00  0.00    -0.461 OA
ATOM     16  C   UNL     1      -4.503  -4.752  -0.516  0.00  0.00    +0.312 C 
ATOM     17  O   UNL     1      -3.711  -3.951  -0.955  0.00  0.00    -0.250 OA
ATOM     18  C   UNL     1      -8.144  -5.114  -1.344  0.00  0.00    +0.011 C 
ENDBRANCH   1   2
BRANCH   1  19
ATOM     19  N   UNL     1      -2.275  -4.734   1.495  0.00  0.00    -0.310 NA
ATOM     20  H   UNL     1      -2.575  -3.969   2.079  0.00  0.00    +0.122 HD
BRANCH  19  28
ATOM     21  C   UNL     1      -0.018   1.503   0.010  0.00  0.00    +0.044 C 
ATOM     22  C   UNL     1       0.002  -0.004   0.002  0.00  0.00    -0.050 A 
ATOM     23  C   UNL     1       0.005  -0.680  -1.226  0.00  0.00    +0.005 A 
ATOM     24  C   UNL     1       0.027  -2.026  -1.316  0.00  0.00    +0.026 A 
ATOM     25  C   UNL     1       0.047  -2.826  -0.142  0.00  0.00    +0.043 A 
ATOM     26  N   UNL     1       0.047  -4.130   0.027  0.00  0.00    -0.376 N 
ATOM     27  C   UNL     1       0.155  -4.412   1.456  0.00  0.00    +0.123 C 
ATOM     28  C   UNL     1      -0.996  -5.284   1.964  0.00  0.00    +0.080 C 
ATOM     29  C   UNL     1      -0.963  -5.289   3.495  0.00  0.00    +0.021 C 
ATOM     30  C   UNL     1      -1.249  -3.897   4.058  0.00  0.00    +0.006 C 
ATOM     31  C   UNL     1      -0.137  -2.922   3.636  0.00  0.00    +0.033 C 
ATOM     32  C   UNL     1       0.045  -3.061   2.143  0.00  0.00    -0.037 C 
ATOM     33  C   UNL     1       0.036  -2.137   1.172  0.00  0.00    -0.001 A 
ATOM     34  C   UNL     1       0.022  -0.668   1.179  0.00  0.00    +0.013 A 
ATOM     35  H   UNL     1      -0.015  -4.793  -0.678  0.00  0.00    +0.160 HD
ENDBRANCH  19  28
ENDBRANCH   1  19
TORSDOF 3
