REMARK  Name = ZINC04222429
REMARK  12 active torsions:
REMARK  status: ('A' for Active; 'I' for Inactive)
REMARK    1  A    between atoms: C_1  and  C_2
REMARK    2  A    between atoms: C_2  and  N_3
REMARK    3  A    between atoms: N_3  and  C_4
REMARK    4  A    between atoms: C_4  and  C_5
REMARK    5  A    between atoms: C_6  and  C_8
REMARK    6  A    between atoms: C_8  and  C_9
REMARK    7  A    between atoms: C_17  and  C_19
REMARK    8  A    between atoms: C_27  and  C_37
REMARK    9  A    between atoms: C_30  and  O_36
REMARK   10  A    between atoms: C_32  and  C_33
REMARK   11  A    between atoms: C_32  and  C_34
REMARK   12  A    between atoms: C_34  and  O_35
REMARK                            x       y       z     vdW  Elec       q    Type
REMARK                         _______ _______ _______ _____ _____    ______ ____
ROOT
ATOM      1  C   UNL     1       0.630   1.279  -0.203  0.00  0.00    +0.054 C 
ATOM      2  C   UNL     1       2.081   1.719  -0.331  0.00  0.00    +0.058 A 
ATOM      3  C   UNL     1       2.571   2.108  -1.536  0.00  0.00    +0.015 A 
ATOM      4  S   UNL     1       4.257   2.508  -1.159  0.00  0.00    -0.057 S 
ATOM      5  C   UNL     1       4.189   2.136   0.538  0.00  0.00    +0.165 A 
ATOM      6  N   UNL     1       2.938   1.751   0.687  0.00  0.00    -0.229 NA
ATOM      7  N   UNL     1       5.195   2.223   1.492  0.00  0.00    -0.258 N 
ATOM      8  C   UNL     1       6.425   2.645   1.137  0.00  0.00    +0.285 C 
ATOM      9  O   UNL     1       6.654   2.951  -0.018  0.00  0.00    -0.266 OA
ATOM     10  C   UNL     1       1.847   2.175  -2.834  0.00  0.00    +0.049 C 
ATOM     11  C   UNL     1       0.524   1.395  -2.712  0.00  0.00    +0.011 C 
ATOM     12  C   UNL     1      -0.170   1.793  -1.408  0.00  0.00    -0.019 C 
ATOM     13  C   UNL     1      -1.564   1.161  -1.337  0.00  0.00    +0.010 C 
ATOM     14  C   UNL     1      -2.404   1.591  -2.537  0.00  0.00    +0.032 C 
ATOM     15  C   UNL     1      -1.713   1.116  -3.819  0.00  0.00    +0.123 C 
ATOM     16  C   UNL     1      -0.343   1.784  -3.914  0.00  0.00    +0.021 C 
ATOM     17  C   UNL     1       0.348   1.334  -5.203  0.00  0.00    +0.016 C 
ATOM     18  C   UNL     1      -0.285   3.317  -1.333  0.00  0.00    +0.012 C 
ATOM     19  H   UNL     1       5.012   1.980   2.413  0.00  0.00    +0.157 HD
ENDROOT
BRANCH   8  20
ATOM     20  C   UNL     1       7.487   2.737   2.144  0.00  0.00    +0.189 A 
ATOM     21  C   UNL     1       8.770   3.147   1.921  0.00  0.00    +0.054 A 
ATOM     22  C   UNL     1       9.435   3.079   3.155  0.00  0.00    +0.042 A 
ATOM     23  C   UNL     1       8.540   2.636   4.066  0.00  0.00    +0.196 A 
ATOM     24  O   UNL     1       7.366   2.436   3.453  0.00  0.00    -0.458 OA
ENDBRANCH   8  20
BRANCH  15  25
ATOM     25  O   UNL     1      -2.503   1.480  -4.952  0.00  0.00    -0.391 OA
ATOM     26  H   UNL     1      -3.388   1.090  -4.957  0.00  0.00    +0.210 HD
ENDBRANCH  15  25
BRANCH   1  27
ATOM     27  C   UNL     1       0.035   1.851   1.085  0.00  0.00    +0.106 C 
BRANCH  27  29
ATOM     28  N   UNL     1       0.326   1.549   3.523  0.00  0.00    -0.302 N 
ATOM     29  C   UNL     1       0.693   1.199   2.274  0.00  0.00    +0.216 C 
ATOM     30  O   UNL     1       1.553   0.360   2.107  0.00  0.00    -0.276 OA
BRANCH  28  32
ATOM     31  C   UNL     1       2.196   1.726   5.089  0.00  0.00    +0.024 C 
ATOM     32  C   UNL     1       0.965   0.915   4.679  0.00  0.00    +0.104 C 
ENDBRANCH  28  32
BRANCH  28  33
ATOM     33  C   UNL     1      -0.713   2.562   3.724  0.00  0.00    +0.104 C 
ATOM     34  C   UNL     1      -2.083   1.884   3.787  0.00  0.00    +0.024 C 
ENDBRANCH  28  33
ENDBRANCH  27  29
ENDBRANCH   1  27
BRANCH  16  35
ATOM     35  C   UNL     1      -0.520   3.303  -3.938  0.00  0.00    +0.165 C 
BRANCH  35  36
ATOM     36  O   UNL     1      -1.189   3.685  -5.142  0.00  0.00    -0.394 OA
ATOM     37  H   UNL     1      -1.336   4.637  -5.226  0.00  0.00    +0.209 HD
ENDBRANCH  35  36
ENDBRANCH  16  35
TORSDOF 8
