REMARK  Name = ZINC39664855
REMARK  8 active torsions:
REMARK  status: ('A' for Active; 'I' for Inactive)
REMARK    1  A    between atoms: C_1  and  N_2
REMARK    2  A    between atoms: N_2  and  C_3
REMARK    3  A    between atoms: N_2  and  C_4
REMARK    4  A    between atoms: C_4  and  C_5
REMARK    5  A    between atoms: C_5  and  C_7
REMARK    6  A    between atoms: C_5  and  N_13
REMARK    7  A    between atoms: C_14  and  C_16
REMARK    8  A    between atoms: C_27  and  C_29
REMARK                            x       y       z     vdW  Elec       q    Type
REMARK                         _______ _______ _______ _____ _____    ______ ____
ROOT
ATOM      1  C   UNL     1       1.429  -2.481  -2.661  0.00  0.00    +0.100 C 
ATOM      2  C   UNL     1       0.923  -3.863  -3.130  0.00  0.00    +0.121 C 
ATOM      3  N   UNL     1       2.110  -4.512  -3.733  0.00  0.00    -0.300 N 
ATOM      4  C   UNL     1       3.233  -4.127  -2.844  0.00  0.00    +0.115 C 
ATOM      5  C   UNL     1       2.946  -2.658  -2.475  0.00  0.00    -0.004 C 
ATOM      6  C   UNL     1       3.706  -1.721  -3.408  0.00  0.00    -0.010 C 
ATOM      7  C   UNL     1       5.210  -1.875  -3.163  0.00  0.00    -0.082 C 
ATOM      8  N   UNL     1       5.515  -1.557  -1.763  0.00  0.00    +0.379 N 
ATOM      9  C   UNL     1       4.853  -2.521  -0.875  0.00  0.00    -0.082 C 
ATOM     10  C   UNL     1       3.334  -2.394  -1.023  0.00  0.00    -0.010 C 
ATOM     11  C   UNL     1       2.159  -5.280  -4.840  0.00  0.00    +0.219 C 
ATOM     12  O   UNL     1       1.166  -5.428  -5.520  0.00  0.00    -0.275 OA
ATOM     13  H   UNL     1       6.513  -1.600  -1.620  0.00  0.00    -0.086 HD
ATOM     14  H   UNL     1       5.187  -0.627  -1.552  0.00  0.00    -0.086 HD
ENDROOT
BRANCH  11  15
ATOM     15  C   UNL     1       3.448  -5.955  -5.233  0.00  0.00    +0.079 C 
ATOM     16  C   UNL     1       3.315  -6.539  -6.645  0.00  0.00    +0.017 C 
ATOM     17  C   UNL     1       4.686  -7.058  -7.085  0.00  0.00    +0.027 C 
ATOM     18  C   UNL     1       5.278  -7.927  -6.015  0.00  0.00    -0.031 C 
ATOM     19  C   UNL     1       4.872  -7.941  -4.786  0.00  0.00    -0.030 C 
ATOM     20  C   UNL     1       3.749  -7.096  -4.258  0.00  0.00    +0.039 C 
ENDBRANCH  11  15
BRANCH   1  22
ATOM     21  N   UNL     1       0.771  -2.971  -0.328  0.00  0.00    -0.310 N 
ATOM     22  C   UNL     1       0.781  -2.099  -1.356  0.00  0.00    +0.219 C 
ATOM     23  O   UNL     1       0.268  -1.007  -1.230  0.00  0.00    -0.275 OA
ATOM     24  H   UNL     1       1.228  -3.823  -0.410  0.00  0.00    +0.149 HD
BRANCH  21  25
ATOM     25  C   UNL     1       0.071  -2.632   0.914  0.00  0.00    +0.087 C 
BRANCH  25  26
ATOM     26  C   UNL     1       0.923  -3.024   2.094  0.00  0.00    -0.029 A 
ATOM     27  C   UNL     1       1.638  -4.207   2.067  0.00  0.00    +0.005 A 
ATOM     28  C   UNL     1       2.419  -4.566   3.150  0.00  0.00    +0.000 A 
ATOM     29  C   UNL     1       2.485  -3.743   4.258  0.00  0.00    +0.000 A 
ATOM     30  C   UNL     1       1.771  -2.560   4.284  0.00  0.00    +0.000 A 
ATOM     31  C   UNL     1       0.993  -2.199   3.200  0.00  0.00    +0.005 A 
ENDBRANCH  25  26
BRANCH  25  32
ATOM     32  C   UNL     1      -1.258  -3.386   0.971  0.00  0.00    -0.052 C 
BRANCH  32  34
ATOM     33  C   UNL     1      -3.262  -3.896  -0.246  0.00  0.00    -0.097 C 
ATOM     34  N   UNL     1      -2.071  -3.036  -0.201  0.00  0.00    +0.377 N 
ATOM     35  C   UNL     1      -2.486  -1.630  -0.107  0.00  0.00    -0.097 C 
ATOM     36  H   UNL     1      -1.527  -3.171  -1.040  0.00  0.00    -0.083 HD
ENDBRANCH  32  34
ENDBRANCH  25  32
ENDBRANCH  21  25
ENDBRANCH   1  22
TORSDOF 6
