REMARK  Name = ZINC36523169
REMARK  14 active torsions:
REMARK  status: ('A' for Active; 'I' for Inactive)
REMARK    1  A    between atoms: C_1  and  C_2
REMARK    2  A    between atoms: C_2  and  C_3
REMARK    3  A    between atoms: C_3  and  C_4
REMARK    4  A    between atoms: C_4  and  N_5
REMARK    5  A    between atoms: C_6  and  C_8
REMARK    6  A    between atoms: C_8  and  C_10
REMARK    7  A    between atoms: C_8  and  N_19
REMARK    8  A    between atoms: C_11  and  O_18
REMARK    9  A    between atoms: C_13  and  O_17
REMARK   10  A    between atoms: C_15  and  O_16
REMARK   11  A    between atoms: N_19  and  C_20
REMARK   12  A    between atoms: C_21  and  C_23
REMARK   13  A    between atoms: C_23  and  C_31
REMARK   14  A    between atoms: C_24  and  C_25
REMARK                            x       y       z     vdW  Elec       q    Type
REMARK                         _______ _______ _______ _____ _____    ______ ____
ROOT
ATOM      1  C   UNL     1       3.428  -3.181  -3.202  0.00  0.00    +0.199 C 
ENDROOT
BRANCH   1   2
ATOM      2  C   UNL     1       4.666  -2.811  -3.977  0.00  0.00    +0.065 A 
ATOM      3  C   UNL     1       4.636  -1.748  -4.867  0.00  0.00    +0.129 A 
ATOM      4  C   UNL     1       5.775  -1.407  -5.580  0.00  0.00    +0.091 A 
ATOM      5  C   UNL     1       6.946  -2.129  -5.403  0.00  0.00    +0.124 A 
ATOM      6  C   UNL     1       6.977  -3.192  -4.513  0.00  0.00    +0.091 A 
ATOM      7  C   UNL     1       5.838  -3.530  -3.797  0.00  0.00    +0.129 A 
BRANCH   7   8
ATOM      8  O   UNL     1       5.870  -4.569  -2.921  0.00  0.00    -0.506 OA
ATOM      9  H   UNL     1       5.732  -5.433  -3.331  0.00  0.00    +0.292 HD
ENDBRANCH   7   8
BRANCH   5  10
ATOM     10  O   UNL     1       8.062  -1.796  -6.103  0.00  0.00    -0.507 OA
ATOM     11  H   UNL     1       8.627  -1.150  -5.658  0.00  0.00    +0.292 HD
ENDBRANCH   5  10
BRANCH   3  12
ATOM     12  O   UNL     1       3.489  -1.040  -5.040  0.00  0.00    -0.506 OA
ATOM     13  H   UNL     1       3.433  -0.242  -4.496  0.00  0.00    +0.292 HD
ENDBRANCH   3  12
ENDBRANCH   1   2
BRANCH   1  15
ATOM     14  N   UNL     1       3.755  -1.420  -1.496  0.00  0.00    -0.313 N 
ATOM     15  C   UNL     1       3.576  -2.727  -1.773  0.00  0.00    +0.238 C 
ATOM     16  O   UNL     1       3.533  -3.538  -0.872  0.00  0.00    -0.273 OA
ATOM     17  H   UNL     1       3.789  -0.772  -2.217  0.00  0.00    +0.149 HD
BRANCH  14  18
ATOM     18  C   UNL     1       3.898  -0.979  -0.106  0.00  0.00    +0.104 C 
BRANCH  18  19
ATOM     19  C   UNL     1       4.088   0.539  -0.070  0.00  0.00    +0.018 C 
BRANCH  19  21
ATOM     20  C   UNL     1       4.428   2.517   1.417  0.00  0.00    +0.004 C 
ATOM     21  C   UNL     1       4.238   0.999   1.381  0.00  0.00    -0.002 C 
ENDBRANCH  19  21
ENDBRANCH  18  19
ENDBRANCH  14  18
ENDBRANCH   1  15
BRANCH   1  22
ATOM     22  N   UNL     1       3.247  -4.634  -3.237  0.00  0.00    -0.285 N 
ATOM     23  C   UNL     1       3.772  -5.464  -2.150  0.00  0.00    +0.133 C 
ATOM     24  C   UNL     1       2.596  -5.208  -4.269  0.00  0.00    +0.248 C 
ATOM     25  O   UNL     1       2.285  -4.541  -5.238  0.00  0.00    -0.270 OA
BRANCH  24  26
ATOM     26  C   UNL     1       2.261  -6.640  -4.223  0.00  0.00    +0.045 C 
ATOM     27  C   UNL     1       1.260  -7.079  -3.413  0.00  0.00    +0.021 C 
BRANCH  27  28
ATOM     28  C   UNL     1       1.048  -8.520  -3.223  0.00  0.00    -0.024 A 
ATOM     29  C   UNL     1       2.134  -9.402  -3.253  0.00  0.00    +0.008 A 
ATOM     30  C   UNL     1       1.926 -10.753  -3.074  0.00  0.00    +0.001 A 
ATOM     31  C   UNL     1       0.647 -11.238  -2.863  0.00  0.00    +0.000 A 
ATOM     32  C   UNL     1      -0.433 -10.373  -2.832  0.00  0.00    +0.001 A 
ATOM     33  C   UNL     1      -0.242  -9.018  -3.004  0.00  0.00    +0.008 A 
ENDBRANCH  27  28
BRANCH  26  34
ATOM     34  C   UNL     1       3.014  -7.604  -5.058  0.00  0.00    -0.013 A 
ATOM     35  C   UNL     1       2.355  -8.342  -6.042  0.00  0.00    +0.008 A 
ATOM     36  C   UNL     1       3.062  -9.238  -6.817  0.00  0.00    +0.001 A 
ATOM     37  C   UNL     1       4.421  -9.405  -6.620  0.00  0.00    +0.000 A 
ATOM     38  C   UNL     1       5.080  -8.677  -5.646  0.00  0.00    +0.001 A 
ATOM     39  C   UNL     1       4.385  -7.773  -4.868  0.00  0.00    +0.008 A 
ENDBRANCH  26  34
ENDBRANCH  24  26
ENDBRANCH   1  22
TORSDOF 12
