REMARK  Name = ZINC24084275
REMARK  17 active torsions:
REMARK  status: ('A' for Active; 'I' for Inactive)
REMARK    1  A    between atoms: C_1  and  C_2
REMARK    2  A    between atoms: C_2  and  C_3
REMARK    3  A    between atoms: C_3  and  C_4
REMARK    4  A    between atoms: C_4  and  N_5
REMARK    5  A    between atoms: C_9  and  S_30
REMARK    6  A    between atoms: C_13  and  C_14
REMARK    7  A    between atoms: C_14  and  C_15
REMARK    8  A    between atoms: C_15  and  C_16
REMARK    9  A    between atoms: N_18  and  C_19
REMARK   10  A    between atoms: C_19  and  C_20
REMARK   11  A    between atoms: C_25  and  C_26
REMARK   12  A    between atoms: C_26  and  N_27
REMARK   13  A    between atoms: N_27  and  C_28
REMARK   14  A    between atoms: N_27  and  C_29
REMARK   15  A    between atoms: S_30  and  N_33
REMARK   16  A    between atoms: N_33  and  C_34
REMARK   17  A    between atoms: N_33  and  C_35
REMARK                            x       y       z     vdW  Elec       q    Type
REMARK                         _______ _______ _______ _____ _____    ______ ____
ROOT
ATOM      1  N   UNL     1       1.286  -0.454  -0.013  0.00  0.00    -0.327 N 
ATOM      2  C   UNL     1       2.109   0.654  -0.015  0.00  0.00    +0.069 A 
ATOM      3  C   UNL     1       3.486   0.836  -0.027  0.00  0.00    +0.030 A 
ATOM      4  C   UNL     1       4.006   2.112  -0.026  0.00  0.00    +0.030 A 
ATOM      5  C   UNL     1       3.163   3.215  -0.012  0.00  0.00    +0.108 A 
ATOM      6  C   UNL     1       1.807   3.055   0.001  0.00  0.00    +0.058 A 
ATOM      7  C   UNL     1       1.257   1.771  -0.000  0.00  0.00    +0.091 A 
ATOM      8  N   UNL     1      -0.016   1.297   0.009  0.00  0.00    -0.232 NA
ATOM      9  C   UNL     1       0.002  -0.004   0.002  0.00  0.00    +0.111 A 
ENDROOT
BRANCH   5  10
ATOM     10  S   UNL     1       3.851   4.837  -0.011  0.00  0.00    +0.060 S 
ATOM     11  O   UNL     1       2.868   5.694   0.554  0.00  0.00    -0.153 OA
ATOM     12  O   UNL     1       5.161   4.723   0.526  0.00  0.00    -0.153 OA
BRANCH  10  13
ATOM     13  N   UNL     1       4.026   5.296  -1.592  0.00  0.00    -0.183 NA
ATOM     14  C   UNL     1       2.935   5.994  -2.277  0.00  0.00    +0.131 C 
ATOM     15  C   UNL     1       5.271   5.004  -2.306  0.00  0.00    +0.131 C 
ENDBRANCH  10  13
ENDBRANCH   5  10
BRANCH   1  16
ATOM     16  C   UNL     1       1.715  -1.855  -0.024  0.00  0.00    +0.123 C 
BRANCH  16  17
ATOM     17  C   UNL     1       1.850  -2.335  -1.471  0.00  0.00    +0.021 C 
BRANCH  17  19
ATOM     18  C   UNL     1       2.434  -4.277  -2.929  0.00  0.00    +0.004 C 
ATOM     19  C   UNL     1       2.298  -3.798  -1.483  0.00  0.00    -0.002 C 
ENDBRANCH  17  19
ENDBRANCH  16  17
ENDBRANCH   1  16
BRANCH   9  20
ATOM     20  C   UNL     1      -1.221  -0.884   0.009  0.00  0.00    +0.083 C 
BRANCH  20  21
ATOM     21  C   UNL     1      -1.649  -1.175  -1.431  0.00  0.00    +0.103 C 
BRANCH  21  22
ATOM     22  C   UNL     1      -2.872  -2.055  -1.424  0.00  0.00    +0.214 C 
ATOM     23  O   UNL     1      -3.354  -2.414  -0.371  0.00  0.00    -0.276 OA
ATOM     24  N   UNL     1      -3.430  -2.442  -2.588  0.00  0.00    -0.311 N 
ATOM     25  H   UNL     1      -2.992  -2.116  -3.543  0.00  0.00    +0.149 HD
BRANCH  24  26
ATOM     26  C   UNL     1      -4.619  -3.298  -2.581  0.00  0.00    +0.139 C 
BRANCH  26  27
ATOM     27  C   UNL     1      -5.040  -3.584  -4.000  0.00  0.00    -0.029 A 
ATOM     28  C   UNL     1      -6.084  -2.877  -4.567  0.00  0.00    +0.005 A 
ATOM     29  C   UNL     1      -6.467  -3.136  -5.870  0.00  0.00    +0.000 A 
ATOM     30  C   UNL     1      -5.813  -4.110  -6.602  0.00  0.00    +0.000 A 
ATOM     31  C   UNL     1      -4.773  -4.820  -6.033  0.00  0.00    +0.002 A 
ATOM     32  C   UNL     1      -4.386  -4.557  -4.732  0.00  0.00    -0.059 A 
BRANCH  32  33
ATOM     33  C   UNL     1      -3.253  -5.333  -4.111  0.00  0.00    -0.043 C 
BRANCH  33  34
ATOM     34  N   UNL     1      -3.797  -6.394  -3.254  0.00  0.00    +0.379 N 
ATOM     35  C   UNL     1      -4.512  -7.399  -4.051  0.00  0.00    -0.096 C 
ATOM     36  C   UNL     1      -2.737  -7.017  -2.450  0.00  0.00    -0.096 C 
ATOM     37  H   UNL     1      -4.519  -5.934  -2.563  0.00  0.00    -0.082 HD
ENDBRANCH  33  34
ENDBRANCH  32  33
ENDBRANCH  26  27
ENDBRANCH  24  26
ENDBRANCH  21  22
ENDBRANCH  20  21
ENDBRANCH   9  20
TORSDOF 12
