REMARK  Name = ZINC12662762
REMARK  12 active torsions:
REMARK  status: ('A' for Active; 'I' for Inactive)
REMARK    1  A    between atoms: C_10  and  C_12
REMARK    2  A    between atoms: C_12  and  N_66
REMARK    3  A    between atoms: C_13  and  C_14
REMARK    4  A    between atoms: C_13  and  N_66
REMARK    5  A    between atoms: C_14  and  C_15
REMARK    6  A    between atoms: C_15  and  C_16
REMARK    7  A    between atoms: C_16  and  C_17
REMARK    8  A    between atoms: C_17  and  C_18
REMARK    9  A    between atoms: C_18  and  C_19
REMARK   10  A    between atoms: C_19  and  N_69
REMARK   11  A    between atoms: C_20  and  C_21
REMARK   12  A    between atoms: C_20  and  N_69
REMARK                            x       y       z     vdW  Elec       q    Type
REMARK                         _______ _______ _______ _____ _____    ______ ____
ROOT
ATOM      1  C   UNL     1      -9.424   4.011  -2.729  0.00  0.00    -0.000 C 
ENDROOT
BRANCH   1   2
ATOM      2  C   UNL     1      -8.083   3.276  -2.778  0.00  0.00    -0.002 C 
BRANCH   2   3
ATOM      3  C   UNL     1      -7.105   3.935  -1.802  0.00  0.00    -0.019 C 
BRANCH   3   4
ATOM      4  C   UNL     1      -5.764   3.200  -1.850  0.00  0.00    -0.082 C 
BRANCH   4   5
ATOM      5  N   UNL     1      -4.828   3.841  -0.907  0.00  0.00    +0.381 N 
ATOM      6  H   UNL     1      -4.697   4.823  -1.175  0.00  0.00    -0.086 HD
ATOM      7  H   UNL     1      -5.218   3.793   0.042  0.00  0.00    -0.086 HD
BRANCH   5   8
ATOM      8  C   UNL     1      -3.524   3.152  -0.933  0.00  0.00    -0.046 C 
BRANCH   8  18
ATOM      9  C   UNL     1       1.175   1.784   0.000  0.00  0.00    +0.000 A 
ATOM     10  C   UNL     1      -0.013   1.076   0.008  0.00  0.00    +0.000 A 
ATOM     11  C   UNL     1      -1.217   1.751   0.017  0.00  0.00    +0.006 A 
ATOM     12  C   UNL     1      -1.242   3.137   0.031  0.00  0.00    -0.017 A 
ATOM     13  C   UNL     1      -0.057   3.843   0.019  0.00  0.00    -0.040 A 
ATOM     14  C   UNL     1       1.151   3.165   0.006  0.00  0.00    +0.004 A 
ATOM     15  C   UNL     1      -0.043   5.351   0.013  0.00  0.00    +0.063 C 
ATOM     16  C   UNL     1      -1.411   5.883   0.444  0.00  0.00    +0.165 C 
ATOM     17  O   UNL     1      -2.421   5.207  -0.314  0.00  0.00    -0.374 OA
ATOM     18  C   UNL     1      -2.575   3.837   0.053  0.00  0.00    +0.132 C 
ENDBRANCH   8  18
ENDBRANCH   5   8
ENDBRANCH   4   5
ENDBRANCH   3   4
ENDBRANCH   2   3
ENDBRANCH   1   2
BRANCH   1  19
ATOM     19  C   UNL     1     -10.402   3.353  -3.705  0.00  0.00    -0.002 C 
BRANCH  19  20
ATOM     20  C   UNL     1     -11.743   4.087  -3.656  0.00  0.00    -0.019 C 
BRANCH  20  21
ATOM     21  C   UNL     1     -12.720   3.429  -4.632  0.00  0.00    -0.082 C 
BRANCH  21  22
ATOM     22  N   UNL     1     -14.010   4.142  -4.579  0.00  0.00    +0.381 N 
ATOM     23  H   UNL     1     -13.865   5.125  -4.841  0.00  0.00    -0.086 HD
ATOM     24  H   UNL     1     -14.385   4.094  -3.625  0.00  0.00    -0.086 HD
BRANCH  22  25
ATOM     25  C   UNL     1     -14.974   3.528  -5.512  0.00  0.00    -0.046 C 
BRANCH  25  26
ATOM     26  C   UNL     1     -16.300   4.288  -5.436  0.00  0.00    +0.132 C 
ATOM     27  C   UNL     1     -17.330   3.580  -6.277  0.00  0.00    -0.017 A 
ATOM     28  C   UNL     1     -17.417   2.199  -6.201  0.00  0.00    +0.006 A 
ATOM     29  C   UNL     1     -18.350   1.517  -6.956  0.00  0.00    +0.000 A 
ATOM     30  C   UNL     1     -19.203   2.215  -7.792  0.00  0.00    +0.000 A 
ATOM     31  C   UNL     1     -19.117   3.591  -7.869  0.00  0.00    +0.004 A 
ATOM     32  C   UNL     1     -18.179   4.275  -7.113  0.00  0.00    -0.040 A 
ATOM     33  C   UNL     1     -18.111   5.777  -7.227  0.00  0.00    +0.063 C 
ATOM     34  C   UNL     1     -17.333   6.351  -6.041  0.00  0.00    +0.165 C 
ATOM     35  O   UNL     1     -16.108   5.622  -5.906  0.00  0.00    -0.374 OA
ENDBRANCH  25  26
ENDBRANCH  22  25
ENDBRANCH  21  22
ENDBRANCH  20  21
ENDBRANCH  19  20
ENDBRANCH   1  19
TORSDOF 12
