REMARK  Name = ZINC08803549
REMARK  9 active torsions:
REMARK  status: ('A' for Active; 'I' for Inactive)
REMARK    1  A    between atoms: C_1  and  C_2
REMARK    2  A    between atoms: C_2  and  C_3
REMARK    3  A    between atoms: C_2  and  C_4
REMARK    4  A    between atoms: C_4  and  C_6
REMARK    5  A    between atoms: C_4  and  S_12
REMARK    6  A    between atoms: S_12  and  C_13
REMARK    7  A    between atoms: C_16  and  C_18
REMARK    8  A    between atoms: N_27  and  C_29
REMARK    9  A    between atoms: C_29  and  C_30
REMARK                            x       y       z     vdW  Elec       q    Type
REMARK                         _______ _______ _______ _____ _____    ______ ____
ROOT
ATOM      1  C   UNL     1      -1.332  -3.835   4.283  0.00  0.00    +0.278 A 
ATOM      2  N   UNL     1      -2.067  -3.569   5.340  0.00  0.00    -0.101 NA
ATOM      3  N   UNL     1      -2.688  -2.457   5.160  0.00  0.00    -0.105 NA
ATOM      4  C   UNL     1      -2.381  -1.972   3.981  0.00  0.00    +0.270 A 
ATOM      5  O   UNL     1      -1.514  -2.833   3.403  0.00  0.00    -0.409 OA
ENDROOT
BRANCH   4   6
ATOM      6  C   UNL     1      -2.885  -0.716   3.395  0.00  0.00    +0.155 A 
ATOM      7  C   UNL     1      -3.831   0.122   4.149  0.00  0.00    +0.020 A 
ATOM      8  C   UNL     1      -4.277  -0.235   5.420  0.00  0.00    +0.011 A 
ATOM      9  C   UNL     1      -5.164   0.583   6.085  0.00  0.00    +0.001 A 
ATOM     10  C   UNL     1      -5.618   1.759   5.503  0.00  0.00    +0.001 A 
ATOM     11  C   UNL     1      -5.190   2.132   4.247  0.00  0.00    +0.014 A 
ATOM     12  C   UNL     1      -4.293   1.318   3.557  0.00  0.00    +0.050 A 
ATOM     13  C   UNL     1      -3.803   1.666   2.216  0.00  0.00    +0.275 A 
ATOM     14  O   UNL     1      -4.176   2.688   1.668  0.00  0.00    -0.266 OA
ATOM     15  N   UNL     1      -2.936   0.836   1.601  0.00  0.00    -0.224 N 
ATOM     16  N   UNL     1      -2.496  -0.344   2.200  0.00  0.00    -0.162 NA
BRANCH  15  17
ATOM     17  C   UNL     1      -2.448   1.181   0.264  0.00  0.00    +0.182 C 
BRANCH  17  18
ATOM     18  C   UNL     1      -1.193   2.007   0.385  0.00  0.00    -0.026 A 
ATOM     19  C   UNL     1       0.042   1.386   0.423  0.00  0.00    +0.005 A 
ATOM     20  C   UNL     1       1.193   2.143   0.528  0.00  0.00    +0.000 A 
ATOM     21  C   UNL     1       1.110   3.521   0.601  0.00  0.00    +0.000 A 
ATOM     22  C   UNL     1      -0.125   4.142   0.568  0.00  0.00    +0.000 A 
ATOM     23  C   UNL     1      -1.276   3.384   0.463  0.00  0.00    +0.005 A 
ENDBRANCH  17  18
ENDBRANCH  15  17
ENDBRANCH   4   6
BRANCH   1  24
ATOM     24  S   UNL     1      -0.298  -5.244   4.060  0.00  0.00    -0.053 S 
BRANCH  24  25
ATOM     25  C   UNL     1      -0.483  -6.029   5.681  0.00  0.00    +0.144 C 
BRANCH  25  26
ATOM     26  C   UNL     1      -1.895  -6.533   5.836  0.00  0.00    +0.234 C 
ATOM     27  O   UNL     1      -2.555  -6.801   4.855  0.00  0.00    -0.274 OA
ATOM     28  N   UNL     1      -2.424  -6.687   7.066  0.00  0.00    -0.239 N 
ATOM     29  C   UNL     1      -3.686  -7.138   7.206  0.00  0.00    +0.303 C 
ATOM     30  O   UNL     1      -4.348  -7.406   6.222  0.00  0.00    -0.253 OA
ATOM     31  N   UNL     1      -4.215  -7.292   8.436  0.00  0.00    -0.313 N 
ATOM     32  H   UNL     1      -1.896  -6.473   7.851  0.00  0.00    +0.159 HD
ATOM     33  H   UNL     1      -3.687  -7.078   9.221  0.00  0.00    +0.146 HD
ATOM     34  H   UNL     1      -5.124  -7.616   8.536  0.00  0.00    +0.146 HD
ENDBRANCH  25  26
BRANCH  25  36
ATOM     35  C   UNL     1       1.926  -6.690   5.640  0.00  0.00    +0.009 C 
ATOM     36  C   UNL     1       0.492  -7.202   5.793  0.00  0.00    +0.005 C 
ATOM     37  C   UNL     1       0.332  -7.869   7.161  0.00  0.00    +0.009 C 
ENDBRANCH  25  36
ENDBRANCH  24  25
ENDBRANCH   1  24
TORSDOF 7
