REMARK  Name = ZINC04222346
REMARK  13 active torsions:
REMARK  status: ('A' for Active; 'I' for Inactive)
REMARK    1  A    between atoms: C_1  and  C_2
REMARK    2  A    between atoms: C_8  and  C_10
REMARK    3  A    between atoms: C_10  and  C_11
REMARK    4  A    between atoms: C_19  and  C_21
REMARK    5  A    between atoms: C_24  and  C_27
REMARK    6  A    between atoms: C_27  and  C_28
REMARK    7  A    between atoms: C_27  and  C_29
REMARK    8  A    between atoms: C_27  and  C_30
REMARK    9  A    between atoms: C_34  and  C_44
REMARK   10  A    between atoms: C_37  and  O_43
REMARK   11  A    between atoms: C_39  and  C_40
REMARK   12  A    between atoms: C_39  and  C_41
REMARK   13  A    between atoms: C_41  and  O_42
REMARK                            x       y       z     vdW  Elec       q    Type
REMARK                         _______ _______ _______ _____ _____    ______ ____
ROOT
ATOM      1  C   UNL     1       4.605   3.913   1.267  0.00  0.00    +0.054 C 
ATOM      2  C   UNL     1       4.407   5.413   1.110  0.00  0.00    +0.058 A 
ATOM      3  C   UNL     1       3.262   5.896   0.561  0.00  0.00    +0.015 A 
ATOM      4  S   UNL     1       3.521   7.649   0.600  0.00  0.00    -0.057 S 
ATOM      5  C   UNL     1       5.099   7.615   1.328  0.00  0.00    +0.165 A 
ATOM      6  N   UNL     1       5.304   6.323   1.482  0.00  0.00    -0.229 NA
ATOM      7  N   UNL     1       5.930   8.677   1.661  0.00  0.00    -0.261 N 
ATOM      8  C   UNL     1       5.535   9.943   1.421  0.00  0.00    +0.250 C 
ATOM      9  O   UNL     1       4.451  10.155   0.913  0.00  0.00    -0.270 OA
ATOM     10  C   UNL     1       2.096   5.121   0.046  0.00  0.00    +0.049 C 
ATOM     11  C   UNL     1       2.502   3.640  -0.083  0.00  0.00    +0.011 C 
ATOM     12  C   UNL     1       3.247   3.204   1.181  0.00  0.00    -0.019 C 
ATOM     13  C   UNL     1       3.519   1.696   1.139  0.00  0.00    +0.010 C 
ATOM     14  C   UNL     1       2.200   0.933   1.025  0.00  0.00    +0.032 C 
ATOM     15  C   UNL     1       1.525   1.336  -0.290  0.00  0.00    +0.123 C 
ATOM     16  C   UNL     1       1.212   2.830  -0.244  0.00  0.00    +0.021 C 
ATOM     17  C   UNL     1       0.518   3.242  -1.543  0.00  0.00    +0.016 C 
ATOM     18  C   UNL     1       2.405   3.539   2.414  0.00  0.00    +0.012 C 
ATOM     19  H   UNL     1       6.795   8.507   2.067  0.00  0.00    +0.157 HD
ENDROOT
BRANCH   8  20
ATOM     20  C   UNL     1       6.419  11.073   1.776  0.00  0.00    +0.037 A 
ATOM     21  C   UNL     1       7.662  10.833   2.365  0.00  0.00    +0.013 A 
ATOM     22  C   UNL     1       8.485  11.892   2.688  0.00  0.00    +0.005 A 
ATOM     23  C   UNL     1       8.076  13.190   2.441  0.00  0.00    -0.042 A 
ATOM     24  C   UNL     1       6.843  13.435   1.863  0.00  0.00    +0.005 A 
ATOM     25  C   UNL     1       6.013  12.385   1.529  0.00  0.00    +0.013 A 
BRANCH  23  26
ATOM     26  C   UNL     1       8.977  14.342   2.802  0.00  0.00    -0.013 C 
ATOM     27  C   UNL     1       8.268  15.248   3.810  0.00  0.00    +0.015 C 
ATOM     28  C   UNL     1      10.269  13.804   3.420  0.00  0.00    +0.015 C 
ATOM     29  C   UNL     1       9.310  15.144   1.542  0.00  0.00    +0.015 C 
ENDBRANCH  23  26
ENDBRANCH   8  20
BRANCH  15  30
ATOM     30  O   UNL     1       0.313   0.596  -0.453  0.00  0.00    -0.391 OA
ATOM     31  H   UNL     1       0.439  -0.362  -0.490  0.00  0.00    +0.210 HD
ENDBRANCH  15  30
BRANCH   1  32
ATOM     32  C   UNL     1       5.246   3.624   2.625  0.00  0.00    +0.106 C 
BRANCH  32  40
ATOM     33  C   UNL     1       8.741   5.573   7.470  0.00  0.00    +0.007 C 
ATOM     34  C   UNL     1       8.547   4.675   6.247  0.00  0.00    -0.011 C 
ATOM     35  C   UNL     1       8.961   5.435   4.985  0.00  0.00    +0.022 C 
ATOM     36  C   UNL     1       8.798   4.520   3.766  0.00  0.00    +0.108 C 
ATOM     37  N   UNL     1       7.420   4.010   3.739  0.00  0.00    -0.301 N 
ATOM     38  C   UNL     1       6.889   3.346   4.938  0.00  0.00    +0.108 C 
ATOM     39  C   UNL     1       7.075   4.269   6.141  0.00  0.00    +0.022 C 
ATOM     40  C   UNL     1       6.657   4.153   2.638  0.00  0.00    +0.216 C 
ATOM     41  O   UNL     1       7.106   4.707   1.656  0.00  0.00    -0.276 OA
ENDBRANCH  32  40
ENDBRANCH   1  32
BRANCH  16  42
ATOM     42  C   UNL     1       0.283   3.116   0.939  0.00  0.00    +0.165 C 
BRANCH  42  43
ATOM     43  O   UNL     1      -0.988   2.506   0.705  0.00  0.00    -0.394 OA
ATOM     44  H   UNL     1      -1.628   2.647   1.415  0.00  0.00    +0.209 HD
ENDBRANCH  42  43
ENDBRANCH  16  42
TORSDOF 7
