REMARK  Name = ZINC32969745
REMARK  8 active torsions:
REMARK  status: ('A' for Active; 'I' for Inactive)
REMARK    1  A    between atoms: C_1  and  C_2
REMARK    2  A    between atoms: C_2  and  C_3
REMARK    3  A    between atoms: C_2  and  C_4
REMARK    4  A    between atoms: C_4  and  S_5
REMARK    5  A    between atoms: S_5  and  C_6
REMARK    6  A    between atoms: C_14  and  C_15
REMARK    7  A    between atoms: C_18  and  S_20
REMARK    8  A    between atoms: S_20  and  C_21
REMARK                            x       y       z     vdW  Elec       q    Type
REMARK                         _______ _______ _______ _____ _____    ______ ____
ROOT
ATOM      1  C   UNL     1       0.177  -1.510   3.704  0.00  0.00    +0.176 C 
ATOM      2  N   UNL     1       1.071  -2.398   3.364  0.00  0.00    -0.185 NA
ATOM      3  S   UNL     1       1.683  -2.948   4.824  0.00  0.00    +0.048 S 
ATOM      4  C   UNL     1       0.740  -2.058   5.870  0.00  0.00    +0.183 C 
ATOM      5  N   UNL     1       0.691  -2.064   7.183  0.00  0.00    -0.152 NA
ATOM      6  C   UNL     1      -0.213  -1.290   7.815  0.00  0.00    +0.273 C 
ATOM      7  O   UNL     1      -0.194  -1.174   9.031  0.00  0.00    -0.268 OA
ATOM      8  C   UNL     1      -1.228  -0.585   7.004  0.00  0.00    +0.082 C 
ATOM      9  C   UNL     1      -2.462  -0.215   7.531  0.00  0.00    +0.062 C 
ATOM     10  C   UNL     1      -0.858  -0.292   5.594  0.00  0.00    +0.138 C 
ATOM     11  N   UNL     1      -1.274   0.766   4.946  0.00  0.00    -0.284 NA
ATOM     12  N   UNL     1      -0.011  -1.264   5.025  0.00  0.00    -0.211 N 
ATOM     13  H   UNL     1      -1.855   1.407   5.386  0.00  0.00    +0.188 HD
ENDROOT
BRANCH   9  14
ATOM     14  C   UNL     1      -2.863  -0.702   8.779  0.00  0.00    +0.130 A 
ATOM     15  C   UNL     1      -3.992  -0.304   9.486  0.00  0.00    +0.050 A 
ATOM     16  C   UNL     1      -4.006  -1.040  10.667  0.00  0.00    +0.057 A 
ATOM     17  C   UNL     1      -2.895  -1.859  10.649  0.00  0.00    +0.167 A 
ATOM     18  O   UNL     1      -2.224  -1.647   9.506  0.00  0.00    -0.449 OA
BRANCH  17  19
ATOM     19  S   UNL     1      -2.439  -2.998  11.913  0.00  0.00    -0.051 S 
BRANCH  19  20
ATOM     20  C   UNL     1      -3.112  -4.532  11.368  0.00  0.00    +0.023 A 
ATOM     21  C   UNL     1      -3.903  -4.583  10.239  0.00  0.00    +0.016 A 
ATOM     22  C   UNL     1      -4.439  -5.790   9.801  0.00  0.00    +0.002 A 
ATOM     23  C   UNL     1      -4.200  -6.951  10.472  0.00  0.00    +0.008 A 
ATOM     24  C   UNL     1      -3.400  -6.942  11.627  0.00  0.00    -0.017 A 
ATOM     25  C   UNL     1      -2.843  -5.721  12.080  0.00  0.00    -0.004 A 
ATOM     26  C   UNL     1      -2.040  -5.715  13.231  0.00  0.00    +0.009 A 
ATOM     27  C   UNL     1      -1.802  -6.881  13.893  0.00  0.00    +0.001 A 
ATOM     28  C   UNL     1      -2.345  -8.084  13.445  0.00  0.00    +0.001 A 
ATOM     29  C   UNL     1      -3.138  -8.125  12.339  0.00  0.00    +0.008 A 
ENDBRANCH  19  20
ENDBRANCH  17  19
ENDBRANCH   9  14
BRANCH   1  30
ATOM     30  S   UNL     1      -0.754  -0.649   2.481  0.00  0.00    -0.089 S 
BRANCH  30  31
ATOM     31  C   UNL     1      -0.144  -1.322   0.911  0.00  0.00    +0.080 C 
BRANCH  31  33
ATOM     32  C   UNL     1      -0.529   0.837  -0.286  0.00  0.00    +0.008 C 
ATOM     33  C   UNL     1      -0.879  -0.652  -0.252  0.00  0.00    -0.007 C 
ATOM     34  C   UNL     1      -0.456  -1.306  -1.568  0.00  0.00    +0.008 C 
ENDBRANCH  31  33
ENDBRANCH  30  31
ENDBRANCH   1  30
TORSDOF 6
