REMARK  Name = ZINC02969313
REMARK  11 active torsions:
REMARK  status: ('A' for Active; 'I' for Inactive)
REMARK    1  A    between atoms: C_1  and  C_2
REMARK    2  A    between atoms: C_2  and  C_3
REMARK    3  A    between atoms: C_3  and  C_5
REMARK    4  A    between atoms: C_3  and  S_14
REMARK    5  A    between atoms: N_7  and  C_8
REMARK    6  A    between atoms: C_8  and  C_9
REMARK    7  A    between atoms: S_14  and  C_15
REMARK    8  A    between atoms: C_26  and  C_28
REMARK    9  A    between atoms: C_28  and  C_29
REMARK   10  A    between atoms: C_29  and  N_30
REMARK   11  A    between atoms: C_31  and  C_39
REMARK                            x       y       z     vdW  Elec       q    Type
REMARK                         _______ _______ _______ _____ _____    ______ ____
ROOT
ATOM      1  C   UNL     1      -5.978  -0.738  -3.982  0.00  0.00    +0.193 A 
ATOM      2  N   UNL     1      -7.184  -0.585  -4.468  0.00  0.00    -0.222 NA
ATOM      3  C   UNL     1      -8.212  -0.139  -3.708  0.00  0.00    +0.077 A 
ATOM      4  C   UNL     1      -9.495   0.020  -4.239  0.00  0.00    +0.028 A 
ATOM      5  C   UNL     1     -10.515   0.477  -3.437  0.00  0.00    +0.002 A 
ATOM      6  C   UNL     1     -10.287   0.782  -2.102  0.00  0.00    +0.001 A 
ATOM      7  C   UNL     1      -9.032   0.634  -1.554  0.00  0.00    +0.014 A 
ATOM      8  C   UNL     1      -7.984   0.173  -2.348  0.00  0.00    +0.045 A 
ATOM      9  C   UNL     1      -6.627  -0.004  -1.820  0.00  0.00    +0.168 A 
ATOM     10  N   UNL     1      -5.664  -0.461  -2.679  0.00  0.00    -0.188 N 
ATOM     11  N   UNL     1      -4.483  -0.537  -1.929  0.00  0.00    -0.148 NA
ATOM     12  C   UNL     1      -4.773  -0.143  -0.714  0.00  0.00    +0.154 A 
ATOM     13  N   UNL     1      -6.063   0.173  -0.644  0.00  0.00    -0.211 NA
ENDROOT
BRANCH   1  14
ATOM     14  S   UNL     1      -4.706  -1.324  -5.051  0.00  0.00    -0.073 S 
BRANCH  14  15
ATOM     15  C   UNL     1      -5.673  -1.640  -6.548  0.00  0.00    +0.140 C 
BRANCH  15  16
ATOM     16  C   UNL     1      -6.138  -0.331  -7.131  0.00  0.00    +0.227 C 
ATOM     17  O   UNL     1      -5.519   0.687  -6.906  0.00  0.00    -0.275 OA
ATOM     18  N   UNL     1      -7.241  -0.292  -7.904  0.00  0.00    -0.307 N 
ATOM     19  H   UNL     1      -7.736  -1.106  -8.085  0.00  0.00    +0.149 HD
BRANCH  18  20
ATOM     20  C   UNL     1      -7.693   0.981  -8.472  0.00  0.00    +0.178 C 
BRANCH  20  21
ATOM     21  C   UNL     1      -8.938   0.753  -9.289  0.00  0.00    +0.122 A 
ATOM     22  C   UNL     1     -10.202   0.810  -8.831  0.00  0.00    +0.046 A 
ATOM     23  C   UNL     1     -11.049   0.533  -9.929  0.00  0.00    +0.041 A 
ATOM     24  C   UNL     1     -10.252   0.323 -10.992  0.00  0.00    +0.195 A 
ATOM     25  O   UNL     1      -8.975   0.463 -10.600  0.00  0.00    -0.466 OA
ENDBRANCH  20  21
ENDBRANCH  18  20
ENDBRANCH  15  16
BRANCH  15  27
ATOM     26  C   UNL     1      -4.449  -3.763  -7.034  0.00  0.00    +0.005 C 
ATOM     27  C   UNL     1      -4.804  -2.375  -7.570  0.00  0.00    +0.020 C 
ENDBRANCH  15  27
ENDBRANCH  14  15
ENDBRANCH   1  14
BRANCH  12  28
ATOM     28  C   UNL     1      -3.796  -0.066   0.431  0.00  0.00    +0.099 C 
BRANCH  28  29
ATOM     29  C   UNL     1      -3.146   1.319   0.454  0.00  0.00    +0.131 C 
BRANCH  29  30
ATOM     30  N   UNL     1      -2.196   1.395   1.566  0.00  0.00    -0.327 N 
ATOM     31  C   UNL     1      -0.875   1.073   1.522  0.00  0.00    +0.108 A 
ATOM     32  N   UNL     1      -0.329   1.263   2.688  0.00  0.00    -0.233 NA
ATOM     33  C   UNL     1      -1.264   1.714   3.562  0.00  0.00    +0.089 A 
ATOM     34  C   UNL     1      -2.476   1.802   2.855  0.00  0.00    +0.069 A 
ATOM     35  C   UNL     1      -3.623   2.241   3.502  0.00  0.00    +0.028 A 
ATOM     36  C   UNL     1      -3.564   2.589   4.836  0.00  0.00    +0.002 A 
ATOM     37  C   UNL     1      -2.367   2.502   5.533  0.00  0.00    +0.002 A 
ATOM     38  C   UNL     1      -1.228   2.072   4.912  0.00  0.00    +0.030 A 
ATOM     39  C   UNL     1      -0.148   0.575   0.299  0.00  0.00    +0.086 C 
ENDBRANCH  29  30
ENDBRANCH  28  29
ENDBRANCH  12  28
TORSDOF 9
