REMARK  Name = ZINC12511652
REMARK  5 active torsions:
REMARK  status: ('A' for Active; 'I' for Inactive)
REMARK    1  A    between atoms: C_4  and  C_7
REMARK    2  A    between atoms: C_7  and  C_8
REMARK    3  A    between atoms: C_8  and  C_15
REMARK    4  A    between atoms: C_21  and  C_23
REMARK    5  A    between atoms: N_28  and  C_30
REMARK                            x       y       z     vdW  Elec       q    Type
REMARK                         _______ _______ _______ _____ _____    ______ ____
ROOT
ATOM      1  C   UNL     1      -2.189   0.954  -5.965  0.00  0.00    +0.025 C 
ATOM      2  C   UNL     1      -0.987   0.046  -5.696  0.00  0.00    +0.025 C 
ATOM      3  C   UNL     1       0.066   0.824  -4.899  0.00  0.00    +0.108 C 
ATOM      4  N   UNL     1      -0.563   1.367  -3.688  0.00  0.00    -0.301 N 
ATOM      5  C   UNL     1      -1.783   2.175  -3.827  0.00  0.00    +0.108 C 
ATOM      6  C   UNL     1      -2.812   1.387  -4.636  0.00  0.00    +0.025 C 
ATOM      7  C   UNL     1      -0.035   1.125  -2.472  0.00  0.00    +0.220 C 
ATOM      8  O   UNL     1       1.019   0.533  -2.376  0.00  0.00    -0.275 OA
ENDROOT
BRANCH   1   9
ATOM      9  C   UNL     1      -3.228   0.192  -6.790  0.00  0.00    +0.119 C 
ATOM     10  C   UNL     1      -3.517  -1.160  -6.167  0.00  0.00    +0.245 C 
ATOM     11  O   UNL     1      -3.975  -1.375  -5.066  0.00  0.00    -0.273 OA
ATOM     12  N   UNL     1      -3.157  -2.071  -7.092  0.00  0.00    -0.238 N 
ATOM     13  C   UNL     1      -2.686  -1.490  -8.201  0.00  0.00    +0.307 C 
ATOM     14  O   UNL     1      -2.299  -2.106  -9.175  0.00  0.00    -0.252 OA
ATOM     15  N   UNL     1      -2.689  -0.147  -8.118  0.00  0.00    -0.284 N 
ATOM     16  H   UNL     1      -3.230  -3.031  -6.969  0.00  0.00    +0.159 HD
ATOM     17  H   UNL     1      -2.393   0.476  -8.800  0.00  0.00    +0.151 HD
BRANCH   9  18
ATOM     18  C   UNL     1      -4.513   1.012  -6.924  0.00  0.00    +0.070 C 
BRANCH  18  22
ATOM     19  C   UNL     1      -7.364  -1.175  -9.235  0.00  0.00    +0.000 A 
ATOM     20  C   UNL     1      -7.327  -1.324  -7.861  0.00  0.00    +0.000 A 
ATOM     21  C   UNL     1      -6.405  -0.617  -7.114  0.00  0.00    +0.004 A 
ATOM     22  C   UNL     1      -5.519   0.240  -7.740  0.00  0.00    -0.045 A 
ATOM     23  C   UNL     1      -5.558   0.393  -9.113  0.00  0.00    +0.004 A 
ATOM     24  C   UNL     1      -6.477  -0.319  -9.861  0.00  0.00    +0.000 A 
ENDBRANCH  18  22
ENDBRANCH   9  18
ENDBRANCH   1   9
BRANCH   7  25
ATOM     25  C   UNL     1      -0.755   1.589  -1.232  0.00  0.00    +0.092 C 
ATOM     26  C   UNL     1      -0.391   3.048  -0.946  0.00  0.00    +0.016 C 
ATOM     27  C   UNL     1      -1.078   3.493   0.348  0.00  0.00    +0.020 C 
ATOM     28  C   UNL     1      -0.649   2.571   1.491  0.00  0.00    +0.106 C 
ATOM     29  N   UNL     1      -1.020   1.187   1.170  0.00  0.00    -0.316 N 
ATOM     30  C   UNL     1      -0.335   0.721  -0.043  0.00  0.00    +0.119 C 
BRANCH  29  31
ATOM     31  C   UNL     1      -0.764   0.340   2.242  0.00  0.00    +0.099 A 
ATOM     32  C   UNL     1      -1.322   0.616   3.487  0.00  0.00    +0.042 A 
ATOM     33  C   UNL     1      -1.064  -0.237   4.544  0.00  0.00    +0.005 A 
ATOM     34  C   UNL     1      -0.244  -1.336   4.323  0.00  0.00    +0.018 A 
ATOM     35  C   UNL     1       0.281  -1.546   3.064  0.00  0.00    +0.084 A 
ATOM     36  N   UNL     1       0.044  -0.732   2.001  0.00  0.00    -0.350 N 
ATOM     37  H   UNL     1       0.448  -0.913   1.074  0.00  0.00    +0.166 HD
ENDBRANCH  29  31
ENDBRANCH   7  25
TORSDOF 5
