REMARK  Name = ZINC65137085
REMARK  5 active torsions:
REMARK  status: ('A' for Active; 'I' for Inactive)
REMARK    1  A    between atoms: C_3  and  C_29
REMARK    2  A    between atoms: C_5  and  C_7
REMARK    3  A    between atoms: C_9  and  C_13
REMARK    4  A    between atoms: N_16  and  S_19
REMARK    5  A    between atoms: S_19  and  C_22
REMARK                            x       y       z     vdW  Elec       q    Type
REMARK                         _______ _______ _______ _____ _____    ______ ____
ROOT
ATOM      1  C   UNL     1       1.236  -2.169  -0.022  0.00  0.00    +0.134 C 
ATOM      2  N   UNL     1       0.314  -2.908  -0.557  0.00  0.00    -0.342 N 
ATOM      3  C   UNL     1       0.674  -4.319  -0.370  0.00  0.00    +0.246 C 
ATOM      4  O   UNL     1       1.921  -4.304   0.341  0.00  0.00    -0.248 OA
ATOM      5  N   UNL     1       2.234  -2.934   0.530  0.00  0.00    -0.247 N 
ATOM      6  H   UNL     1       3.023  -2.592   0.979  0.00  0.00    +0.196 HD
ATOM      7  H   UNL     1      -0.481  -2.582  -1.006  0.00  0.00    +0.164 HD
ENDROOT
BRANCH   1  12
ATOM      8  C   UNL     1      -0.017   1.377   0.010  0.00  0.00    +0.001 A 
ATOM      9  C   UNL     1       1.166   2.089   0.002  0.00  0.00    +0.010 A 
ATOM     10  C   UNL     1       2.389   1.417  -0.014  0.00  0.00    +0.000 A 
ATOM     11  C   UNL     1       2.414   0.024  -0.021  0.00  0.00    +0.021 A 
ATOM     12  C   UNL     1       1.218  -0.688  -0.013  0.00  0.00    +0.017 A 
ATOM     13  C   UNL     1       0.002  -0.004   0.002  0.00  0.00    +0.011 A 
BRANCH  10  14
ATOM     14  C   UNL     1       3.656   2.181  -0.023  0.00  0.00    +0.066 A 
ATOM     15  C   UNL     1       3.780   3.542  -0.011  0.00  0.00    +0.049 A 
ATOM     16  C   UNL     1       5.142   3.847  -0.026  0.00  0.00    +0.135 A 
ATOM     17  N   UNL     1       5.820   2.728  -0.045  0.00  0.00    -0.182 NA
ATOM     18  N   UNL     1       4.915   1.659  -0.037  0.00  0.00    -0.277 N 
ATOM     19  H   UNL     1       5.143   0.716  -0.044  0.00  0.00    +0.189 HD
ENDBRANCH  10  14
ENDBRANCH   1  12
BRANCH   3  20
ATOM     20  C   UNL     1      -0.399  -5.034   0.453  0.00  0.00    +0.043 C 
ATOM     21  C   UNL     1      -0.612  -4.288   1.772  0.00  0.00    +0.025 C 
ATOM     22  C   UNL     1      -1.711  -4.987   2.578  0.00  0.00    +0.110 C 
ATOM     23  N   UNL     1      -1.353  -6.403   2.737  0.00  0.00    -0.177 NA
ATOM     24  C   UNL     1      -1.040  -7.191   1.538  0.00  0.00    +0.110 C 
ATOM     25  C   UNL     1       0.052  -6.468   0.743  0.00  0.00    +0.025 C 
BRANCH  23  26
ATOM     26  S   UNL     1      -1.303  -7.097   4.240  0.00  0.00    +0.061 S 
ATOM     27  O   UNL     1      -0.429  -8.214   4.143  0.00  0.00    -0.153 OA
ATOM     28  O   UNL     1      -1.090  -6.042   5.168  0.00  0.00    -0.153 OA
BRANCH  26  29
ATOM     29  C   UNL     1      -2.909  -7.742   4.570  0.00  0.00    +0.106 A 
ATOM     30  C   UNL     1      -3.859  -6.949   5.187  0.00  0.00    +0.030 A 
ATOM     31  C   UNL     1      -5.119  -7.454   5.446  0.00  0.00    +0.022 A 
ATOM     32  C   UNL     1      -5.430  -8.754   5.087  0.00  0.00    +0.041 A 
ATOM     33  C   UNL     1      -4.479  -9.547   4.470  0.00  0.00    +0.022 A 
ATOM     34  C   UNL     1      -3.221  -9.039   4.206  0.00  0.00    +0.030 A 
ATOM     35 CL   UNL     1      -7.013  -9.389   5.413  0.00  0.00    -0.084 Cl
ENDBRANCH  26  29
ENDBRANCH  23  26
ENDBRANCH   3  20
TORSDOF 5
