REMARK  Name = ZINC39671550
REMARK  6 active torsions:
REMARK  status: ('A' for Active; 'I' for Inactive)
REMARK    1  A    between atoms: C_1  and  C_2
REMARK    2  A    between atoms: C_4  and  C_13
REMARK    3  A    between atoms: C_6  and  C_9
REMARK    4  A    between atoms: C_17  and  C_26
REMARK    5  A    between atoms: N_28  and  C_29
REMARK    6  A    between atoms: C_29  and  C_30
REMARK                            x       y       z     vdW  Elec       q    Type
REMARK                         _______ _______ _______ _____ _____    ______ ____
ROOT
ATOM      1  C   UNL     1      -1.270  -2.888   1.067  0.00  0.00    +0.226 C 
ATOM      2  O   UNL     1      -0.435  -3.363   1.807  0.00  0.00    -0.275 OA
ATOM      3  N   UNL     1      -2.569  -2.887   1.429  0.00  0.00    -0.300 N 
ATOM      4  C   UNL     1      -3.725  -2.364   0.664  0.00  0.00    +0.121 C 
ATOM      5  C   UNL     1      -4.854  -3.389   0.911  0.00  0.00    +0.100 C 
ATOM      6  C   UNL     1      -4.480  -4.071   2.238  0.00  0.00    -0.004 C 
ATOM      7  C   UNL     1      -3.164  -3.415   2.680  0.00  0.00    +0.115 C 
ATOM      8  C   UNL     1      -4.272  -5.567   2.024  0.00  0.00    -0.010 C 
ATOM      9  C   UNL     1      -3.957  -6.232   3.367  0.00  0.00    -0.082 C 
ATOM     10  N   UNL     1      -5.067  -6.001   4.300  0.00  0.00    +0.379 N 
ATOM     11  C   UNL     1      -5.201  -4.565   4.573  0.00  0.00    -0.082 C 
ATOM     12  C   UNL     1      -5.567  -3.829   3.281  0.00  0.00    -0.010 C 
ATOM     13  H   UNL     1      -5.923  -6.346   3.894  0.00  0.00    -0.086 HD
ATOM     14  H   UNL     1      -4.885  -6.490   5.164  0.00  0.00    -0.086 HD
ENDROOT
BRANCH   1  18
ATOM     15  C   UNL     1       2.851  -2.154  -0.813  0.00  0.00    +0.085 C 
ATOM     16  C   UNL     1       1.379  -2.461  -0.710  0.00  0.00    +0.092 C 
ATOM     17  C   UNL     1       0.510  -1.643  -0.158  0.00  0.00    +0.030 C 
ATOM     18  C   UNL     1      -0.857  -2.299  -0.257  0.00  0.00    +0.150 C 
ATOM     19  C   UNL     1      -0.595  -3.412  -1.302  0.00  0.00    +0.292 C 
ATOM     20  O   UNL     1       0.826  -3.602  -1.180  0.00  0.00    -0.484 OA
BRANCH  19  21
ATOM     21  C   UNL     1      -1.356  -4.689  -0.944  0.00  0.00    +0.427 C 
ATOM     22  F   UNL     1      -2.713  -4.392  -0.775  0.00  0.00    -0.167 F 
ATOM     23  F   UNL     1      -1.208  -5.625  -1.974  0.00  0.00    -0.167 F 
ATOM     24  F   UNL     1      -0.844  -5.220   0.245  0.00  0.00    -0.167 F 
ENDBRANCH  19  21
ENDBRANCH   1  18
BRANCH   5  25
ATOM     25  C   UNL     1      -6.182  -2.688   1.035  0.00  0.00    +0.219 C 
ATOM     26  O   UNL     1      -6.226  -1.532   1.401  0.00  0.00    -0.275 OA
ATOM     27  N   UNL     1      -7.321  -3.344   0.737  0.00  0.00    -0.309 N 
ATOM     28  H   UNL     1      -7.285  -4.268   0.444  0.00  0.00    +0.149 HD
BRANCH  27  29
ATOM     29  C   UNL     1      -8.612  -2.663   0.857  0.00  0.00    +0.157 C 
BRANCH  29  30
ATOM     30  C   UNL     1      -9.718  -3.610   0.469  0.00  0.00    +0.034 A 
ATOM     31  H   UNL     1      -9.793  -3.399  -1.601  0.00  0.00    +0.166 HD
ATOM     32  C   UNL     1     -10.427  -4.359   1.328  0.00  0.00    +0.032 A 
ATOM     33  C   UNL     1     -11.390  -5.125   0.534  0.00  0.00    -0.000 A 
ATOM     34  C   UNL     1     -12.382  -6.057   0.845  0.00  0.00    +0.010 A 
ATOM     35  C   UNL     1     -13.134  -6.607  -0.154  0.00  0.00    +0.001 A 
ATOM     36  C   UNL     1     -12.920  -6.247  -1.477  0.00  0.00    +0.002 A 
ATOM     37  C   UNL     1     -11.947  -5.328  -1.807  0.00  0.00    +0.026 A 
ATOM     38  C   UNL     1     -11.170  -4.756  -0.806  0.00  0.00    +0.047 A 
ATOM     39  N   UNL     1     -10.151  -3.830  -0.810  0.00  0.00    -0.357 N 
ENDBRANCH  29  30
ENDBRANCH  27  29
ENDBRANCH   5  25
TORSDOF 5
