REMARK  Name = ZINC19840033
REMARK  5 active torsions:
REMARK  status: ('A' for Active; 'I' for Inactive)
REMARK    1  A    between atoms: C_1  and  C_2
REMARK    2  A    between atoms: C_5  and  O_20
REMARK    3  A    between atoms: C_6  and  C_8
REMARK    4  A    between atoms: C_12  and  C_19
REMARK    5  A    between atoms: C_15  and  C_18
REMARK                            x       y       z     vdW  Elec       q    Type
REMARK                         _______ _______ _______ _____ _____    ______ ____
ROOT
ATOM      1  C   UNL     1       0.002  -0.004   0.002  0.00  0.00    +0.250 C 
ATOM      2  O   UNL     1      -0.015   1.209   0.086  0.00  0.00    -0.270 OA
ATOM      3  N   UNL     1      -1.155  -0.689  -0.092  0.00  0.00    -0.297 N 
ATOM      4  C   UNL     1      -2.439   0.019  -0.181  0.00  0.00    +0.111 C 
ATOM      5  C   UNL     1      -3.192  -0.490  -1.420  0.00  0.00    +0.004 C 
ATOM      6  C   UNL     1      -3.319  -2.014  -1.343  0.00  0.00    +0.009 C 
ATOM      7  C   UNL     1      -1.924  -2.643  -1.335  0.00  0.00    +0.004 C 
ATOM      8  C   UNL     1      -1.156  -2.159  -0.102  0.00  0.00    +0.111 C 
ATOM      9  C   UNL     1      -2.052  -4.167  -1.291  0.00  0.00    +0.009 C 
ATOM     10  C   UNL     1      -2.422  -0.105  -2.684  0.00  0.00    +0.009 C 
ENDROOT
BRANCH   1  16
ATOM     11  C   UNL     1       2.965  -3.533   1.910  0.00  0.00    +0.044 C 
ATOM     12  C   UNL     1       2.720  -2.424   0.919  0.00  0.00    -0.050 A 
ATOM     13  C   UNL     1       3.708  -2.083   0.009  0.00  0.00    +0.007 A 
ATOM     14  C   UNL     1       3.496  -1.069  -0.904  0.00  0.00    +0.046 A 
ATOM     15  C   UNL     1       2.290  -0.383  -0.915  0.00  0.00    +0.129 A 
ATOM     16  C   UNL     1       1.289  -0.726   0.004  0.00  0.00    +0.078 A 
ATOM     17  C   UNL     1       1.519  -1.750   0.926  0.00  0.00    +0.020 A 
BRANCH  15  18
ATOM     18  O   UNL     1       2.081   0.613  -1.811  0.00  0.00    -0.506 OA
ATOM     19  H   UNL     1       1.123   1.155  -1.818  0.00  0.00    +0.292 HD
ENDBRANCH  15  18
ENDBRANCH   1  16
TORSDOF 2
