REMARK  Name = ZINC13724050
REMARK  3 active torsions:
REMARK  status: ('A' for Active; 'I' for Inactive)
REMARK    1  A    between atoms: C_1  and  C_2
REMARK    2  A    between atoms: C_10  and  C_14
REMARK    3  A    between atoms: C_14  and  N_16
REMARK                            x       y       z     vdW  Elec       q    Type
REMARK                         _______ _______ _______ _____ _____    ______ ____
ROOT
ATOM      1  C   UNL     1      -0.008   1.502   0.070  0.00  0.00    +0.109 C 
ATOM      2  C   UNL     1       0.011  -0.005   0.053  0.00  0.00    +0.216 C 
ATOM      3  O   UNL     1       1.069  -0.597   0.027  0.00  0.00    -0.276 OA
ATOM      4  N   UNL     1      -1.147  -0.693   0.067  0.00  0.00    -0.265 N 
ATOM      5  C   UNL     1      -1.130  -2.077   0.052  0.00  0.00    +0.165 A 
ATOM      6  N   UNL     1      -0.096  -2.888   0.029  0.00  0.00    -0.225 NA
ATOM      7  C   UNL     1      -0.226  -4.229   0.017  0.00  0.00    +0.080 A 
ATOM      8  C   UNL     1       0.801  -5.205  -0.008  0.00  0.00    +0.030 A 
ATOM      9  C   UNL     1       0.508  -6.529  -0.019  0.00  0.00    +0.015 A 
ATOM     10  C   UNL     1      -0.816  -6.986  -0.007  0.00  0.00    +0.040 A 
ATOM     11  C   UNL     1      -1.855  -6.051   0.018  0.00  0.00    +0.030 A 
ATOM     12  C   UNL     1      -1.556  -4.716   0.029  0.00  0.00    +0.041 A 
ATOM     13  S   UNL     1      -2.507  -3.216   0.065  0.00  0.00    -0.052 S 
ATOM     14  H   UNL     1      -1.993  -0.219   0.088  0.00  0.00    +0.157 HD
ENDROOT
BRANCH  10  15
ATOM     15  C   UNL     1      -1.110  -8.434  -0.020  0.00  0.00    +0.270 C 
ATOM     16  O   UNL     1      -2.266  -8.822  -0.009  0.00  0.00    -0.268 OA
BRANCH  15  17
ATOM     17  N   UNL     1      -0.107  -9.320  -0.044  0.00  0.00    -0.143 NA
ATOM     18  C   UNL     1      -0.366 -10.619   0.049  0.00  0.00    +0.199 A 
ATOM     19  N   UNL     1      -1.607 -11.176   0.057  0.00  0.00    -0.326 N 
ATOM     20  H   UNL     1      -2.447 -10.695  -0.005  0.00  0.00    +0.169 HD
ATOM     21  C   UNL     1      -1.465 -12.556   0.168  0.00  0.00    +0.065 A 
ATOM     22  C   UNL     1      -2.377 -13.600   0.222  0.00  0.00    +0.028 A 
ATOM     23  C   UNL     1      -1.927 -14.901   0.335  0.00  0.00    +0.002 A 
ATOM     24  C   UNL     1      -0.570 -15.168   0.396  0.00  0.00    +0.002 A 
ATOM     25  C   UNL     1       0.346 -14.136   0.343  0.00  0.00    +0.028 A 
ATOM     26  C   UNL     1      -0.096 -12.825   0.228  0.00  0.00    +0.065 A 
ATOM     27  N   UNL     1       0.567 -11.604   0.147  0.00  0.00    -0.326 N 
ATOM     28  H   UNL     1       1.528 -11.477   0.159  0.00  0.00    +0.169 HD
ENDBRANCH  15  17
ENDBRANCH  10  15
TORSDOF 2
