REMARK  Name = ZINC39597982
REMARK  5 active torsions:
REMARK  status: ('A' for Active; 'I' for Inactive)
REMARK    1  A    between atoms: C_7  and  C_10
REMARK    2  A    between atoms: C_10  and  C_11
REMARK    3  A    between atoms: C_11  and  N_12
REMARK    4  A    between atoms: C_13  and  C_15
REMARK    5  A    between atoms: C_26  and  C_28
REMARK                            x       y       z     vdW  Elec       q    Type
REMARK                         _______ _______ _______ _____ _____    ______ ____
ROOT
ATOM      1  C   UNL     1      -5.660   7.126  -2.507  0.00  0.00    +0.100 C 
ATOM      2  C   UNL     1      -7.142   7.129  -2.069  0.00  0.00    +0.121 C 
ATOM      3  N   UNL     1      -7.777   8.176  -2.904  0.00  0.00    -0.296 N 
ATOM      4  C   UNL     1      -7.147   8.018  -4.236  0.00  0.00    +0.115 C 
ATOM      5  C   UNL     1      -5.668   7.709  -3.930  0.00  0.00    -0.004 C 
ATOM      6  C   UNL     1      -4.840   8.990  -3.980  0.00  0.00    -0.010 C 
ATOM      7  C   UNL     1      -4.816   9.520  -5.417  0.00  0.00    -0.082 C 
ATOM      8  N   UNL     1      -4.238   8.505  -6.305  0.00  0.00    +0.379 N 
ATOM      9  C   UNL     1      -5.090   7.310  -6.322  0.00  0.00    -0.082 C 
ATOM     10  C   UNL     1      -5.126   6.686  -4.924  0.00  0.00    -0.010 C 
ATOM     11  C   UNL     1      -8.715   9.070  -2.535  0.00  0.00    +0.252 C 
ATOM     12  O   UNL     1      -9.141   9.873  -3.342  0.00  0.00    -0.270 OA
ATOM     13  H   UNL     1      -4.167   8.879  -7.240  0.00  0.00    -0.086 HD
ATOM     14  H   UNL     1      -3.318   8.255  -5.975  0.00  0.00    -0.086 HD
ENDROOT
BRANCH  11  15
ATOM     15  C   UNL     1      -9.226   9.075  -1.150  0.00  0.00    +0.108 A 
ATOM     16  C   UNL     1      -8.604   9.862  -0.174  0.00  0.00    +0.138 A 
ATOM     17  C   UNL     1      -9.089   9.862   1.120  0.00  0.00    +0.041 A 
ATOM     18  C   UNL     1     -10.185   9.086   1.452  0.00  0.00    +0.026 A 
ATOM     19  C   UNL     1     -10.806   8.305   0.494  0.00  0.00    +0.077 A 
ATOM     20  C   UNL     1     -10.337   8.298  -0.808  0.00  0.00    +0.156 A 
ATOM     21  F   UNL     1     -10.947   7.539  -1.744  0.00  0.00    -0.203 F 
ATOM     22 CL   UNL     1     -12.180   7.335   0.924  0.00  0.00    -0.081 Cl
ATOM     23  F   UNL     1      -7.534  10.620  -0.496  0.00  0.00    -0.205 F 
ENDBRANCH  11  15
BRANCH   1  25
ATOM     24  N   UNL     1      -3.808   5.499  -2.300  0.00  0.00    -0.315 N 
ATOM     25  C   UNL     1      -5.120   5.719  -2.519  0.00  0.00    +0.218 C 
ATOM     26  O   UNL     1      -5.865   4.785  -2.727  0.00  0.00    -0.275 OA
ATOM     27  H   UNL     1      -3.212   6.246  -2.135  0.00  0.00    +0.149 HD
BRANCH  24  28
ATOM     28  C   UNL     1      -3.283   4.132  -2.313  0.00  0.00    +0.109 C 
BRANCH  28  29
ATOM     29  C   UNL     1      -1.778   4.161  -2.039  0.00  0.00    +0.056 C 
BRANCH  29  36
ATOM     30  C   UNL     1      -0.300   1.323  -5.465  0.00  0.00    +0.001 A 
ATOM     31  C   UNL     1       0.121   0.086  -4.999  0.00  0.00    +0.002 A 
ATOM     32  C   UNL     1       0.080  -0.209  -3.653  0.00  0.00    +0.026 A 
ATOM     33  C   UNL     1      -0.386   0.742  -2.752  0.00  0.00    +0.047 A 
ATOM     34  N   UNL     1      -0.547   0.753  -1.384  0.00  0.00    -0.360 N 
ATOM     35  C   UNL     1      -1.055   1.960  -0.986  0.00  0.00    +0.087 A 
ATOM     36  C   UNL     1      -1.237   2.755  -2.052  0.00  0.00    -0.021 A 
ATOM     37  C   UNL     1      -0.811   1.995  -3.230  0.00  0.00    +0.003 A 
ATOM     38  C   UNL     1      -0.757   2.274  -4.596  0.00  0.00    +0.010 A 
ATOM     39  H   UNL     1      -0.333   0.016  -0.792  0.00  0.00    +0.165 HD
ENDBRANCH  29  36
ENDBRANCH  28  29
ENDBRANCH  24  28
ENDBRANCH   1  25
TORSDOF 5
