REMARK  Name = ZINC13065090
REMARK  15 active torsions:
REMARK  status: ('A' for Active; 'I' for Inactive)
REMARK    1  A    between atoms: C_1  and  C_2
REMARK    2  A    between atoms: C_2  and  C_3
REMARK    3  A    between atoms: C_3  and  C_5
REMARK    4  A    between atoms: C_3  and  N_65
REMARK    5  A    between atoms: N_9  and  C_10
REMARK    6  A    between atoms: C_10  and  C_11
REMARK    7  A    between atoms: C_11  and  O_13
REMARK    8  A    between atoms: O_13  and  C_14
REMARK    9  A    between atoms: C_14  and  C_15
REMARK   10  A    between atoms: C_16  and  C_17
REMARK   11  A    between atoms: C_16  and  N_65
REMARK   12  A    between atoms: C_22  and  C_23
REMARK   13  A    between atoms: C_22  and  N_65
REMARK   14  A    between atoms: C_28  and  C_36
REMARK   15  A    between atoms: C_29  and  C_35
REMARK                            x       y       z     vdW  Elec       q    Type
REMARK                         _______ _______ _______ _____ _____    ______ ____
ROOT
ATOM      1  N   UNL     1      -4.100   3.510   0.345  0.00  0.00    +0.392 N 
ATOM      2  H   UNL     1      -3.570   4.365   0.139  0.00  0.00    -0.080 HD
ENDROOT
BRANCH   1   3
ATOM      3  C   UNL     1      -3.166   2.364   0.382  0.00  0.00    +0.003 C 
BRANCH   3   4
ATOM      4  C   UNL     1      -3.925   1.068   0.497  0.00  0.00    +0.139 A 
ATOM      5  N   UNL     1      -4.980   0.714  -0.196  0.00  0.00    -0.115 NA
ATOM      6  N   UNL     1      -5.338  -0.460   0.197  0.00  0.00    -0.023 NA
ATOM      7  N   UNL     1      -4.537  -0.866   1.119  0.00  0.00    -0.043 NA
ATOM      8  N   UNL     1      -3.649   0.047   1.330  0.00  0.00    -0.220 N 
BRANCH   8   9
ATOM      9  C   UNL     1      -2.552  -0.014   2.299  0.00  0.00    +0.267 C 
BRANCH   9  10
ATOM     10  C   UNL     1      -1.338  -0.621   1.645  0.00  0.00    +0.329 C 
ATOM     11  O   UNL     1      -1.384  -0.967   0.488  0.00  0.00    -0.249 OA
BRANCH  10  12
ATOM     12  O   UNL     1      -0.204  -0.777   2.347  0.00  0.00    -0.464 OA
BRANCH  12  13
ATOM     13  C   UNL     1       0.925  -1.368   1.653  0.00  0.00    +0.229 C 
ATOM     14  C   UNL     1       2.117  -1.464   2.607  0.00  0.00    +0.048 C 
ENDBRANCH  12  13
ENDBRANCH  10  12
ENDBRANCH   9  10
ENDBRANCH   8   9
ENDBRANCH   3   4
BRANCH   3  16
ATOM     15  C   UNL     1      -1.518   3.646  -0.990  0.00  0.00    +0.002 C 
ATOM     16  C   UNL     1      -2.341   2.359  -0.907  0.00  0.00    -0.011 C 
ENDBRANCH   3  16
ENDBRANCH   1   3
BRANCH   1  17
ATOM     17  C   UNL     1      -4.766   3.660   1.655  0.00  0.00    -0.034 C 
BRANCH  17  18
ATOM     18  C   UNL     1      -3.755   4.147   2.661  0.00  0.00    -0.027 A 
ATOM     19  C   UNL     1      -3.454   5.419   3.021  0.00  0.00    +0.009 A 
ATOM     20  C   UNL     1      -2.479   5.632   3.978  0.00  0.00    +0.008 A 
ATOM     21  C   UNL     1      -1.853   4.562   4.527  0.00  0.00    +0.045 A 
ATOM     22  S   UNL     1      -2.648   3.199   3.692  0.00  0.00    -0.103 S 
ENDBRANCH  17  18
ENDBRANCH   1  17
BRANCH   1  23
ATOM     23  C   UNL     1      -5.110   3.304  -0.715  0.00  0.00    -0.036 C 
BRANCH  23  24
ATOM     24  C   UNL     1      -5.787   4.620  -0.999  0.00  0.00    +0.001 A 
ATOM     25  C   UNL     1      -5.329   5.414  -1.998  0.00  0.00    +0.017 A 
ATOM     26  C   UNL     1      -6.012   6.684  -2.252  0.00  0.00    -0.001 A 
ATOM     27  C   UNL     1      -5.589   7.542  -3.272  0.00  0.00    +0.010 A 
ATOM     28  C   UNL     1      -6.245   8.722  -3.480  0.00  0.00    +0.004 A 
ATOM     29  C   UNL     1      -7.327   9.078  -2.687  0.00  0.00    -0.046 A 
ATOM     30  C   UNL     1      -7.762   8.248  -1.676  0.00  0.00    -0.024 A 
ATOM     31  C   UNL     1      -7.110   7.041  -1.446  0.00  0.00    +0.052 A 
ATOM     32  N   UNL     1      -7.523   6.191  -0.442  0.00  0.00    -0.322 N 
ATOM     33  H   UNL     1      -8.280   6.438   0.112  0.00  0.00    +0.169 HD
ATOM     34  C   UNL     1      -6.892   5.024  -0.220  0.00  0.00    +0.251 A 
ATOM     35  O   UNL     1      -7.285   4.298   0.676  0.00  0.00    -0.268 OA
ATOM     36  C   UNL     1      -8.939   8.646  -0.824  0.00  0.00    +0.046 C 
ATOM     37  C   UNL     1      -8.036  10.385  -2.934  0.00  0.00    +0.044 C 
ENDBRANCH  23  24
ENDBRANCH   1  23
TORSDOF 11
