REMARK  Name = ZINC03290151
REMARK  4 active torsions:
REMARK  status: ('A' for Active; 'I' for Inactive)
REMARK    1  A    between atoms: C_1  and  C_2
REMARK    2  A    between atoms: N_5  and  C_7
REMARK    3  A    between atoms: C_25  and  C_27
REMARK    4  A    between atoms: C_31  and  N_33
REMARK                            x       y       z     vdW  Elec       q    Type
REMARK                         _______ _______ _______ _____ _____    ______ ____
ROOT
ATOM      1  C   UNL     1      -6.919   2.213   0.082  0.00  0.00    +0.068 C 
ATOM      2  C   UNL     1      -6.329   3.599   0.084  0.00  0.00    +0.068 A 
ATOM      3  C   UNL     1      -4.975   3.903   0.073  0.00  0.00    +0.043 A 
ATOM      4  C   UNL     1      -4.841   5.282   0.079  0.00  0.00    +0.141 A 
ATOM      5  N   UNL     1      -6.110   5.795   0.094  0.00  0.00    -0.216 N 
ATOM      6  N   UNL     1      -7.008   4.721   0.097  0.00  0.00    -0.169 NA
ATOM      7  N   UNL     1      -3.619   5.854   0.070  0.00  0.00    -0.328 N 
ATOM      8  C   UNL     1      -2.478   5.193   0.055  0.00  0.00    +0.105 C 
ATOM      9  C   UNL     1      -1.269   5.937   0.047  0.00  0.00    +0.043 C 
ATOM     10  C   UNL     1      -0.072   5.311   0.032  0.00  0.00    +0.013 C 
ATOM     11  C   UNL     1      -0.033   3.846   0.023  0.00  0.00    -0.004 A 
ATOM     12  C   UNL     1       1.183   3.156   0.008  0.00  0.00    +0.010 A 
ATOM     13  C   UNL     1       1.184   1.779   0.000  0.00  0.00    +0.001 A 
ATOM     14  C   UNL     1      -0.013   1.076   0.008  0.00  0.00    +0.002 A 
ATOM     15  C   UNL     1      -1.220   1.742   0.017  0.00  0.00    +0.024 A 
ATOM     16  C   UNL     1      -1.245   3.132   0.031  0.00  0.00    +0.043 A 
ATOM     17  N   UNL     1      -2.442   3.819   0.046  0.00  0.00    -0.274 N 
ATOM     18  C   UNL     1      -3.713   3.073   0.056  0.00  0.00    +0.146 C 
ATOM     19  H   UNL     1      -3.618   6.955   0.076  0.00  0.00    +0.169 HD
ENDROOT
BRANCH   5  20
ATOM     20  C   UNL     1      -6.449   7.154   0.105  0.00  0.00    +0.068 A 
ATOM     21  C   UNL     1      -5.659   8.063   0.796  0.00  0.00    +0.029 A 
ATOM     22  C   UNL     1      -5.994   9.403   0.800  0.00  0.00    +0.022 A 
ATOM     23  C   UNL     1      -7.121   9.839   0.126  0.00  0.00    +0.041 A 
ATOM     24  C   UNL     1      -7.913   8.934  -0.559  0.00  0.00    +0.022 A 
ATOM     25  C   UNL     1      -7.580   7.594  -0.571  0.00  0.00    +0.029 A 
ATOM     26 CL   UNL     1      -7.542  11.523   0.139  0.00  0.00    -0.084 Cl
ENDBRANCH   5  20
BRANCH  18  27
ATOM     27  C   UNL     1      -3.745   2.196  -1.169  0.00  0.00    -0.020 A 
ATOM     28  C   UNL     1      -3.398   2.718  -2.402  0.00  0.00    +0.007 A 
ATOM     29  C   UNL     1      -3.427   1.914  -3.526  0.00  0.00    +0.022 A 
ATOM     30  C   UNL     1      -3.804   0.587  -3.417  0.00  0.00    +0.071 A 
ATOM     31  C   UNL     1      -4.151   0.066  -2.184  0.00  0.00    +0.145 A 
ATOM     32  C   UNL     1      -4.116   0.869  -1.059  0.00  0.00    +0.040 A 
ATOM     33 CL   UNL     1      -3.841  -0.423  -4.829  0.00  0.00    -0.081 Cl
BRANCH  31  34
ATOM     34  N   UNL     1      -4.553  -1.354  -2.067  0.00  0.00    +0.058 N 
ATOM     35  O   UNL     1      -4.859  -1.812  -0.981  0.00  0.00    -0.126 OA
ATOM     36  O   UNL     1      -4.579  -2.063  -3.057  0.00  0.00    -0.126 OA
ENDBRANCH  31  34
ENDBRANCH  18  27
TORSDOF 3
