REMARK  Name = ZINC19745692
REMARK  10 active torsions:
REMARK  status: ('A' for Active; 'I' for Inactive)
REMARK    1  A    between atoms: C_1  and  C_2
REMARK    2  A    between atoms: C_2  and  N_3
REMARK    3  A    between atoms: C_4  and  C_6
REMARK    4  A    between atoms: C_9  and  N_21
REMARK    5  A    between atoms: N_12  and  C_13
REMARK    6  A    between atoms: C_13  and  C_14
REMARK    7  A    between atoms: N_21  and  C_22
REMARK    8  A    between atoms: C_22  and  C_23
REMARK    9  A    between atoms: C_26  and  O_33
REMARK   10  A    between atoms: O_33  and  C_34
REMARK                            x       y       z     vdW  Elec       q    Type
REMARK                         _______ _______ _______ _____ _____    ______ ____
ROOT
ATOM      1  C   UNL     1     -10.628   1.293   1.073  0.00  0.00    +0.142 C 
ATOM      2  C   UNL     1      -9.286   1.840   1.627  0.00  0.00    +0.014 C 
ATOM      3  C   UNL     1      -8.370   0.594   1.508  0.00  0.00    -0.055 C 
ATOM      4  C   UNL     1      -8.864  -0.085   0.214  0.00  0.00    +0.070 C 
ATOM      5  N   UNL     1     -10.243   0.381  -0.025  0.00  0.00    -0.289 NA
ENDROOT
BRANCH   1   7
ATOM      6  N   UNL     1     -11.937   3.368   1.386  0.00  0.00    -0.314 N 
ATOM      7  C   UNL     1     -11.477   2.420   0.545  0.00  0.00    +0.230 C 
ATOM      8  O   UNL     1     -11.747   2.474  -0.636  0.00  0.00    -0.274 OA
ATOM      9  H   UNL     1     -11.692   3.319   2.457  0.00  0.00    +0.149 HD
BRANCH   6  11
ATOM     10  C   UNL     1     -13.149   5.394   2.025  0.00  0.00    +0.024 C 
ATOM     11  C   UNL     1     -12.763   4.464   0.873  0.00  0.00    +0.101 C 
ENDBRANCH   6  11
ENDBRANCH   1   7
BRANCH   3  12
ATOM     12  N   UNL     1      -6.962   0.994   1.380  0.00  0.00    +0.384 N 
ATOM     13  H   UNL     1      -6.747   1.246   0.332  0.00  0.00    -0.085 HD
ATOM     14  H   UNL     1      -6.771   1.872   2.015  0.00  0.00    -0.085 HD
BRANCH  12  15
ATOM     15  C   UNL     1      -6.066  -0.093   1.797  0.00  0.00    -0.046 C 
BRANCH  15  16
ATOM     16  C   UNL     1      -4.634   0.354   1.652  0.00  0.00    -0.056 A 
ATOM     17  C   UNL     1      -3.905  -0.030   0.568  0.00  0.00    +0.006 A 
ATOM     18  C   UNL     1      -2.581   0.372   0.414  0.00  0.00    +0.046 A 
ATOM     19  C   UNL     1      -1.974   1.163   1.348  0.00  0.00    +0.128 A 
ATOM     20  C   UNL     1      -2.697   1.574   2.486  0.00  0.00    +0.024 A 
ATOM     21  C   UNL     1      -4.046   1.168   2.635  0.00  0.00    -0.013 A 
ATOM     22  C   UNL     1      -4.769   1.582   3.767  0.00  0.00    +0.009 A 
ATOM     23  C   UNL     1      -4.167   2.370   4.699  0.00  0.00    +0.001 A 
ATOM     24  C   UNL     1      -2.842   2.774   4.550  0.00  0.00    +0.001 A 
ATOM     25  C   UNL     1      -2.111   2.392   3.466  0.00  0.00    +0.012 A 
BRANCH  19  26
ATOM     26  O   UNL     1      -0.682   1.547   1.184  0.00  0.00    -0.495 OA
ATOM     27  C   UNL     1      -0.013   1.086   0.008  0.00  0.00    +0.277 C 
ENDBRANCH  19  26
ENDBRANCH  15  16
ENDBRANCH  12  15
ENDBRANCH   3  12
BRANCH   5  28
ATOM     28  C   UNL     1     -11.172  -0.753  -0.118  0.00  0.00    +0.120 C 
BRANCH  28  29
ATOM     29  C   UNL     1     -10.913  -1.512  -1.393  0.00  0.00    -0.033 A 
ATOM     30  C   UNL     1     -11.587  -1.169  -2.551  0.00  0.00    +0.006 A 
ATOM     31  C   UNL     1     -11.345  -1.861  -3.722  0.00  0.00    +0.020 A 
ATOM     32  C   UNL     1     -10.437  -2.905  -3.734  0.00  0.00    +0.041 A 
ATOM     33  C   UNL     1      -9.766  -3.251  -2.575  0.00  0.00    +0.020 A 
ATOM     34  C   UNL     1     -10.005  -2.554  -1.405  0.00  0.00    +0.006 A 
ATOM     35 CL   UNL     1     -10.137  -3.778  -5.204  0.00  0.00    -0.084 Cl
ENDBRANCH  28  29
ENDBRANCH   5  28
TORSDOF 8
