REMARK  Name = ZINC40295290
REMARK  5 active torsions:
REMARK  status: ('A' for Active; 'I' for Inactive)
REMARK    1  A    between atoms: C_1  and  C_2
REMARK    2  A    between atoms: C_7  and  N_12
REMARK    3  A    between atoms: C_9  and  C_11
REMARK    4  A    between atoms: C_13  and  C_15
REMARK    5  A    between atoms: C_17  and  N_23
REMARK                            x       y       z     vdW  Elec       q    Type
REMARK                         _______ _______ _______ _____ _____    ______ ____
ROOT
ATOM      1  N   UNL     1       0.735  -0.503   3.687  0.00  0.00    -0.308 N 
ATOM      2  C   UNL     1       0.634   0.166   4.853  0.00  0.00    +0.244 C 
ATOM      3  O   UNL     1      -0.045   1.173   4.919  0.00  0.00    -0.270 OA
ATOM      4  H   UNL     1       1.276  -1.306   3.634  0.00  0.00    +0.149 HD
ENDROOT
BRANCH   1  10
ATOM      5  C   UNL     1      -0.019   1.526   0.010  0.00  0.00    +0.008 C 
ATOM      6  C   UNL     1       0.002  -0.004   0.002  0.00  0.00    -0.009 C 
ATOM      7  C   UNL     1      -1.433  -0.534   0.013  0.00  0.00    +0.003 C 
ATOM      8  C   UNL     1      -2.149  -0.040   1.272  0.00  0.00    +0.002 C 
ATOM      9  C   UNL     1      -1.409  -0.547   2.511  0.00  0.00    +0.022 C 
ATOM     10  C   UNL     1       0.026  -0.018   2.500  0.00  0.00    +0.076 C 
ATOM     11  C   UNL     1       0.742  -0.511   1.242  0.00  0.00    +0.009 C 
ATOM     12  C   UNL     1       2.178   0.019   1.231  0.00  0.00    +0.009 C 
ENDBRANCH   1  10
BRANCH   2  13
ATOM     13  C   UNL     1       1.349  -0.323   6.050  0.00  0.00    +0.040 A 
ATOM     14  C   UNL     1       1.241   0.365   7.260  0.00  0.00    +0.037 A 
ATOM     15  C   UNL     1       1.914  -0.099   8.379  0.00  0.00    +0.045 A 
ATOM     16  C   UNL     1       2.694  -1.248   8.294  0.00  0.00    +0.080 A 
ATOM     17  C   UNL     1       2.801  -1.930   7.095  0.00  0.00    +0.062 A 
ATOM     18  C   UNL     1       2.129  -1.478   5.976  0.00  0.00    +0.034 A 
ATOM     19 CL   UNL     1       3.777  -3.363   6.998  0.00  0.00    -0.082 Cl
ATOM     20 CL   UNL     1       3.536  -1.827   9.697  0.00  0.00    -0.080 Cl
BRANCH  15  21
ATOM     21  N   UNL     1       1.808   0.587   9.592  0.00  0.00    -0.357 N 
ATOM     22  H   UNL     1       1.265   1.388   9.650  0.00  0.00    +0.142 HD
ATOM     23  H   UNL     1       2.280   0.262  10.375  0.00  0.00    +0.142 HD
ENDBRANCH  15  21
ENDBRANCH   2  13
TORSDOF 3
