REMARK  Name = ZINC47534279
REMARK  7 active torsions:
REMARK  status: ('A' for Active; 'I' for Inactive)
REMARK    1  A    between atoms: C_1  and  C_2
REMARK    2  A    between atoms: C_2  and  C_4
REMARK    3  A    between atoms: C_2  and  N_16
REMARK    4  A    between atoms: C_17  and  C_19
REMARK    5  A    between atoms: C_19  and  C_20
REMARK    6  A    between atoms: C_20  and  C_21
REMARK    7  A    between atoms: C_21  and  C_22
REMARK                            x       y       z     vdW  Elec       q    Type
REMARK                         _______ _______ _______ _____ _____    ______ ____
ROOT
ATOM      1  N   UNL     1      -1.372  -0.511   0.012  0.00  0.00    -0.309 N 
ATOM      2  C   UNL     1      -2.051  -0.643  -1.145  0.00  0.00    +0.213 C 
ATOM      3  O   UNL     1      -1.524  -0.341  -2.194  0.00  0.00    -0.276 OA
ATOM      4  H   UNL     1      -1.794  -0.752   0.852  0.00  0.00    +0.149 HD
ENDROOT
BRANCH   1   6
ATOM      5  C   UNL     1      -0.019   1.526   0.010  0.00  0.00    +0.033 C 
ATOM      6  C   UNL     1       0.002  -0.004   0.002  0.00  0.00    +0.100 C 
BRANCH   6   7
ATOM      7  C   UNL     1       0.731  -0.503   1.223  0.00  0.00    -0.025 A 
ATOM      8  C   UNL     1       0.077  -0.557   2.442  0.00  0.00    +0.007 A 
ATOM      9  C   UNL     1       0.737  -1.013   3.566  0.00  0.00    +0.028 A 
ATOM     10  C   UNL     1       2.059  -1.419   3.474  0.00  0.00    +0.067 A 
ATOM     11  C   UNL     1       2.719  -1.364   2.244  0.00  0.00    +0.067 A 
ATOM     12  C   UNL     1       2.047  -0.910   1.120  0.00  0.00    +0.033 A 
ATOM     13  N   UNL     1       4.014  -1.829   2.461  0.00  0.00    -0.306 N 
ATOM     14  H   UNL     1       4.709  -1.906   1.789  0.00  0.00    +0.170 HD
ATOM     15  C   UNL     1       4.137  -2.151   3.763  0.00  0.00    +0.325 A 
ATOM     16  O   UNL     1       5.145  -2.589   4.284  0.00  0.00    -0.247 OA
ATOM     17  N   UNL     1       2.974  -1.915   4.400  0.00  0.00    -0.306 N 
ATOM     18  H   UNL     1       2.803  -2.064   5.343  0.00  0.00    +0.170 HD
ENDBRANCH   6   7
ENDBRANCH   1   6
BRANCH   2  19
ATOM     19  C   UNL     1      -3.465  -1.164  -1.134  0.00  0.00    +0.096 C 
BRANCH  19  20
ATOM     20  C   UNL     1      -4.000  -1.215  -2.566  0.00  0.00    +0.014 C 
BRANCH  20  21
ATOM     21  C   UNL     1      -5.436  -1.745  -2.555  0.00  0.00    +0.038 C 
BRANCH  21  22
ATOM     22  C   UNL     1      -5.963  -1.795  -3.966  0.00  0.00    -0.022 A 
ATOM     23  C   UNL     1      -6.690  -0.848  -4.581  0.00  0.00    +0.087 A 
ATOM     24  N   UNL     1      -6.987  -1.244  -5.857  0.00  0.00    -0.360 N 
ATOM     25  H   UNL     1      -7.503  -0.726  -6.495  0.00  0.00    +0.165 HD
ATOM     26  C   UNL     1      -6.446  -2.486  -6.100  0.00  0.00    +0.047 A 
ATOM     27  C   UNL     1      -5.776  -2.883  -4.928  0.00  0.00    +0.003 A 
ATOM     28  C   UNL     1      -5.119  -4.114  -4.885  0.00  0.00    +0.010 A 
ATOM     29  C   UNL     1      -5.128  -4.927  -5.984  0.00  0.00    +0.001 A 
ATOM     30  C   UNL     1      -5.785  -4.538  -7.143  0.00  0.00    +0.002 A 
ATOM     31  C   UNL     1      -6.447  -3.331  -7.204  0.00  0.00    +0.026 A 
ENDBRANCH  21  22
ENDBRANCH  20  21
ENDBRANCH  19  20
ENDBRANCH   2  19
TORSDOF 6
