REMARK  Name = ZINC45767313
REMARK  8 active torsions:
REMARK  status: ('A' for Active; 'I' for Inactive)
REMARK    1  A    between atoms: C_1  and  C_2
REMARK    2  A    between atoms: C_5  and  C_7
REMARK    3  A    between atoms: C_7  and  C_9
REMARK    4  A    between atoms: C_7  and  N_10
REMARK    5  A    between atoms: C_11  and  C_13
REMARK    6  A    between atoms: C_16  and  C_19
REMARK    7  A    between atoms: C_19  and  N_20
REMARK    8  A    between atoms: C_21  and  C_23
REMARK                            x       y       z     vdW  Elec       q    Type
REMARK                         _______ _______ _______ _____ _____    ______ ____
ROOT
ATOM      1  C   UNL     1       4.631  -3.688  -2.382  0.00  0.00    +0.037 A 
ATOM      2  C   UNL     1       5.004  -2.368  -2.641  0.00  0.00    +0.013 A 
ATOM      3  C   UNL     1       6.067  -2.107  -3.481  0.00  0.00    +0.006 A 
ATOM      4  C   UNL     1       6.762  -3.151  -4.067  0.00  0.00    -0.030 A 
ATOM      5  C   UNL     1       6.397  -4.461  -3.814  0.00  0.00    +0.006 A 
ATOM      6  C   UNL     1       5.340  -4.736  -2.971  0.00  0.00    +0.013 A 
ENDROOT
BRANCH   1   8
ATOM      7  N   UNL     1       2.811  -2.961  -0.914  0.00  0.00    -0.302 N 
ATOM      8  C   UNL     1       3.494  -3.975  -1.482  0.00  0.00    +0.245 C 
ATOM      9  O   UNL     1       3.174  -5.125  -1.254  0.00  0.00    -0.270 OA
ATOM     10  H   UNL     1       3.066  -2.043  -1.096  0.00  0.00    +0.150 HD
BRANCH   7  11
ATOM     11  C   UNL     1       1.684  -3.245  -0.023  0.00  0.00    +0.136 C 
ATOM     12  C   UNL     1       2.205  -3.494   1.394  0.00  0.00    +0.036 C 
BRANCH  11  17
ATOM     13  C   UNL     1      -0.018   1.503   0.010  0.00  0.00    +0.086 C 
ATOM     14  C   UNL     1       0.002  -0.004   0.002  0.00  0.00    +0.102 A 
ATOM     15  C   UNL     1      -1.078  -0.805   0.003  0.00  0.00    +0.045 A 
ATOM     16  C   UNL     1      -0.601  -2.136  -0.007  0.00  0.00    +0.047 A 
ATOM     17  C   UNL     1       0.742  -2.069  -0.013  0.00  0.00    +0.125 A 
ATOM     18  O   UNL     1       1.102  -0.775  -0.013  0.00  0.00    -0.463 OA
ENDBRANCH  11  17
ENDBRANCH   7  11
ENDBRANCH   1   8
BRANCH   4  19
ATOM     19  C   UNL     1       7.921  -2.858  -4.984  0.00  0.00    +0.139 C 
BRANCH  19  20
ATOM     20  N   UNL     1       9.159  -2.795  -4.202  0.00  0.00    -0.311 N 
ATOM     21  C   UNL     1      10.332  -2.544  -4.816  0.00  0.00    +0.219 C 
ATOM     22  O   UNL     1      10.363  -2.370  -6.016  0.00  0.00    -0.275 OA
ATOM     23  H   UNL     1       9.134  -2.934  -3.243  0.00  0.00    +0.149 HD
BRANCH  21  24
ATOM     24  C   UNL     1      11.605  -2.479  -4.012  0.00  0.00    +0.048 C 
ATOM     25  C   UNL     1      11.490  -1.369  -2.965  0.00  0.00    +0.019 C 
ATOM     26  C   UNL     1      12.783  -1.304  -2.148  0.00  0.00    -0.009 C 
ATOM     27  C   UNL     1      13.960  -1.007  -3.079  0.00  0.00    +0.007 C 
ATOM     28  C   UNL     1      14.074  -2.116  -4.127  0.00  0.00    -0.009 C 
ATOM     29  C   UNL     1      12.782  -2.182  -4.943  0.00  0.00    +0.019 C 
ATOM     30  C   UNL     1      14.303  -3.457  -3.426  0.00  0.00    +0.007 C 
ATOM     31  C   UNL     1      13.126  -3.754  -2.495  0.00  0.00    -0.009 C 
ATOM     32  C   UNL     1      13.012  -2.644  -1.448  0.00  0.00    +0.007 C 
ATOM     33  C   UNL     1      11.834  -3.820  -3.311  0.00  0.00    +0.019 C 
ENDBRANCH  21  24
ENDBRANCH  19  20
ENDBRANCH   4  19
TORSDOF 6
