REMARK  Name = ZINC32879105
REMARK  9 active torsions:
REMARK  status: ('A' for Active; 'I' for Inactive)
REMARK    1  A    between atoms: C_1  and  C_2
REMARK    2  A    between atoms: C_2  and  C_3
REMARK    3  A    between atoms: C_6  and  C_9
REMARK    4  A    between atoms: C_9  and  C_11
REMARK    5  A    between atoms: C_9  and  N_12
REMARK    6  A    between atoms: C_13  and  C_15
REMARK    7  A    between atoms: C_15  and  C_16
REMARK    8  A    between atoms: C_16  and  C_18
REMARK    9  A    between atoms: C_16  and  N_23
REMARK                            x       y       z     vdW  Elec       q    Type
REMARK                         _______ _______ _______ _____ _____    ______ ____
ROOT
ATOM      1  N   UNL     1      -1.635  -1.853  -0.138  0.00  0.00    -0.309 N 
ATOM      2  C   UNL     1      -1.407  -0.525  -0.111  0.00  0.00    +0.216 C 
ATOM      3  O   UNL     1      -2.337   0.251  -0.178  0.00  0.00    -0.276 OA
ATOM      4  H   UNL     1      -0.792  -2.557  -0.077  0.00  0.00    +0.149 HD
ENDROOT
BRANCH   1   5
ATOM      5  C   UNL     1      -3.005  -2.360  -0.248  0.00  0.00    +0.100 C 
ATOM      6  C   UNL     1      -3.637  -2.427   1.144  0.00  0.00    +0.033 C 
BRANCH   5  10
ATOM      7  C   UNL     1      -2.945  -6.265  -1.976  0.00  0.00    -0.048 A 
ATOM      8  C   UNL     1      -3.927  -5.363  -2.340  0.00  0.00    +0.004 A 
ATOM      9  C   UNL     1      -3.947  -4.099  -1.781  0.00  0.00    +0.006 A 
ATOM     10  C   UNL     1      -2.984  -3.737  -0.857  0.00  0.00    -0.027 A 
ATOM     11  C   UNL     1      -1.999  -4.638  -0.497  0.00  0.00    +0.006 A 
ATOM     12  C   UNL     1      -1.982  -5.903  -1.053  0.00  0.00    +0.004 A 
BRANCH   7  14
ATOM     13  C   UNL     1      -2.075  -7.623  -3.860  0.00  0.00    +0.009 C 
ATOM     14  C   UNL     1      -2.923  -7.643  -2.587  0.00  0.00    +0.032 C 
ENDBRANCH   7  14
ENDBRANCH   5  10
ENDBRANCH   1   5
BRANCH   2  15
ATOM     15  C   UNL     1       0.002  -0.004   0.002  0.00  0.00    +0.123 C 
BRANCH  15  16
ATOM     16  C   UNL     1      -0.019   1.526   0.010  0.00  0.00    +0.120 C 
BRANCH  16  17
ATOM     17  N   UNL     1      -0.704   1.998   1.216  0.00  0.00    -0.292 N 
ATOM     18  C   UNL     1      -0.228   1.672   2.434  0.00  0.00    +0.298 C 
ATOM     19  O   UNL     1       0.771   0.986   2.532  0.00  0.00    -0.253 OA
ATOM     20  N   UNL     1      -0.859   2.107   3.542  0.00  0.00    -0.313 N 
ATOM     21  H   UNL     1      -1.608   2.619   1.127  0.00  0.00    +0.151 HD
ATOM     22  H   UNL     1      -0.470   1.841   4.537  0.00  0.00    +0.146 HD
ATOM     23  H   UNL     1      -1.762   2.728   3.454  0.00  0.00    +0.146 HD
ENDBRANCH  16  17
BRANCH  16  24
ATOM     24  C   UNL     1       1.395   2.047  -0.000  0.00  0.00    +0.010 A 
ATOM     25  C   UNL     1       2.125   2.515  -1.043  0.00  0.00    +0.013 A 
ATOM     26  C   UNL     1       3.417   2.950  -0.815  0.00  0.00    +0.008 A 
ATOM     27  C   UNL     1       3.920   2.887   0.442  0.00  0.00    +0.045 A 
ATOM     28  S   UNL     1       2.546   2.203   1.355  0.00  0.00    -0.100 S 
ENDBRANCH  16  24
ENDBRANCH  15  16
ENDBRANCH   2  15
TORSDOF 7
