REMARK  Name = ZINC05416629
REMARK  6 active torsions:
REMARK  status: ('A' for Active; 'I' for Inactive)
REMARK    1  A    between atoms: C_1  and  C_2
REMARK    2  A    between atoms: C_5  and  C_8
REMARK    3  A    between atoms: C_8  and  C_10
REMARK    4  A    between atoms: C_8  and  O_29
REMARK    5  A    between atoms: C_10  and  N_20
REMARK    6  A    between atoms: C_12  and  C_14
REMARK                            x       y       z     vdW  Elec       q    Type
REMARK                         _______ _______ _______ _____ _____    ______ ____
ROOT
ATOM      1  C   UNL     1      -0.677  -0.416  -0.404  0.00  0.00    +0.103 C 
ATOM      2  C   UNL     1       0.785  -0.860  -0.325  0.00  0.00    +0.044 C 
ATOM      3  C   UNL     1       0.430   0.626  -0.233  0.00  0.00    +0.052 C 
ENDROOT
BRANCH   1   4
ATOM      4  N   UNL     1      -1.338  -0.491  -1.709  0.00  0.00    -0.234 N 
ATOM      5  C   UNL     1      -2.019  -1.568  -2.225  0.00  0.00    +0.090 A 
ATOM      6  C   UNL     1      -2.316  -2.842  -1.751  0.00  0.00    +0.029 A 
ATOM      7  C   UNL     1      -3.041  -3.703  -2.525  0.00  0.00    +0.002 A 
ATOM      8  C   UNL     1      -3.490  -3.317  -3.781  0.00  0.00    +0.002 A 
ATOM      9  C   UNL     1      -3.218  -2.072  -4.267  0.00  0.00    +0.032 A 
ATOM     10  C   UNL     1      -2.476  -1.169  -3.493  0.00  0.00    +0.113 A 
ATOM     11  N   UNL     1      -2.060   0.096  -3.699  0.00  0.00    -0.129 NA
ATOM     12  N   UNL     1      -1.396   0.519  -2.681  0.00  0.00    -0.064 NA
ENDBRANCH   1   4
BRANCH   3  13
ATOM     13  C   UNL     1       0.559   1.289   1.115  0.00  0.00    -0.042 A 
ATOM     14  C   UNL     1       0.950   0.549   2.215  0.00  0.00    +0.004 A 
ATOM     15  C   UNL     1       1.072   1.158   3.450  0.00  0.00    +0.000 A 
ATOM     16  C   UNL     1       0.795   2.506   3.586  0.00  0.00    +0.000 A 
ATOM     17  C   UNL     1       0.401   3.245   2.486  0.00  0.00    +0.000 A 
ATOM     18  C   UNL     1       0.282   2.636   1.251  0.00  0.00    +0.004 A 
ENDBRANCH   3  13
BRANCH   1  19
ATOM     19  C   UNL     1      -1.569  -0.704   0.805  0.00  0.00    +0.173 C 
BRANCH  19  24
ATOM     20  C   UNL     1      -5.614   3.401   1.238  0.00  0.00    +0.044 C 
ATOM     21  C   UNL     1      -4.559   2.331   1.125  0.00  0.00    -0.050 A 
ATOM     22  C   UNL     1      -3.463   2.348   1.968  0.00  0.00    +0.004 A 
ATOM     23  C   UNL     1      -2.496   1.366   1.864  0.00  0.00    +0.006 A 
ATOM     24  C   UNL     1      -2.624   0.366   0.918  0.00  0.00    -0.017 A 
ATOM     25  C   UNL     1      -3.717   0.352   0.072  0.00  0.00    +0.006 A 
ATOM     26  C   UNL     1      -4.686   1.331   0.178  0.00  0.00    +0.004 A 
ENDBRANCH  19  24
BRANCH  19  27
ATOM     27  O   UNL     1      -2.198  -1.977   0.641  0.00  0.00    -0.385 OA
ATOM     28  H   UNL     1      -2.855  -2.002  -0.069  0.00  0.00    +0.210 HD
ENDBRANCH  19  27
ENDBRANCH   1  19
TORSDOF 5
