REMARK  Name = ZINC16327894
REMARK  10 active torsions:
REMARK  status: ('A' for Active; 'I' for Inactive)
REMARK    1  A    between atoms: C_1  and  C_2
REMARK    2  A    between atoms: C_2  and  C_3
REMARK    3  A    between atoms: C_7  and  C_28
REMARK    4  A    between atoms: C_8  and  N_9
REMARK    5  A    between atoms: C_13  and  S_15
REMARK    6  A    between atoms: S_15  and  C_16
REMARK    7  A    between atoms: C_16  and  C_17
REMARK    8  A    between atoms: C_20  and  C_22
REMARK    9  A    between atoms: N_26  and  C_27
REMARK   10  A    between atoms: C_28  and  C_29
REMARK                            x       y       z     vdW  Elec       q    Type
REMARK                         _______ _______ _______ _____ _____    ______ ____
ROOT
ATOM      1  N   UNL     1      11.938   5.020   1.006  0.00  0.00    -0.292 N 
ATOM      2  C   UNL     1      11.407   6.106   1.692  0.00  0.00    +0.187 A 
ATOM      3  N   UNL     1      11.267   7.357   1.298  0.00  0.00    -0.125 NA
ATOM      4  N   UNL     1      10.709   8.284   2.147  0.00  0.00    -0.133 NA
ATOM      5  C   UNL     1      10.317   7.918   3.353  0.00  0.00    +0.160 A 
ATOM      6  S   UNL     1      10.740   6.182   3.347  0.00  0.00    -0.024 S 
ATOM      7  H   UNL     1      12.022   4.161   1.447  0.00  0.00    +0.154 HD
ENDROOT
BRANCH   1  13
ATOM      8  C   UNL     1      11.415   5.165  -1.347  0.00  0.00    -0.026 A 
ATOM      9  C   UNL     1      11.827   5.315  -2.656  0.00  0.00    +0.005 A 
ATOM     10  C   UNL     1      13.171   5.457  -2.948  0.00  0.00    +0.001 A 
ATOM     11  C   UNL     1      14.107   5.453  -1.930  0.00  0.00    +0.005 A 
ATOM     12  C   UNL     1      13.702   5.308  -0.618  0.00  0.00    -0.026 A 
ATOM     13  C   UNL     1      12.352   5.167  -0.321  0.00  0.00    +0.039 A 
BRANCH   8  15
ATOM     14  C   UNL     1       9.171   4.772  -2.326  0.00  0.00    +0.009 C 
ATOM     15  C   UNL     1       9.950   5.006  -1.030  0.00  0.00    +0.033 C 
ENDBRANCH   8  15
BRANCH  12  16
ATOM     16  C   UNL     1      14.723   5.305   0.491  0.00  0.00    +0.033 C 
ATOM     17  C   UNL     1      15.100   3.862   0.833  0.00  0.00    +0.009 C 
ENDBRANCH  12  16
ENDBRANCH   1  13
BRANCH   5  18
ATOM     18  S   UNL     1       9.581   8.884   4.629  0.00  0.00    -0.088 S 
BRANCH  18  19
ATOM     19  C   UNL     1       9.471  10.547   3.912  0.00  0.00    +0.172 C 
BRANCH  19  20
ATOM     20  C   UNL     1       8.850  11.486   4.915  0.00  0.00    +0.230 C 
ATOM     21  O   UNL     1       8.516  11.074   6.005  0.00  0.00    -0.274 OA
ATOM     22  N   UNL     1       8.667  12.783   4.599  0.00  0.00    -0.250 N 
ATOM     23  C   UNL     1       8.112  13.623   5.496  0.00  0.00    +0.267 C 
ATOM     24  O   UNL     1       7.874  13.236   6.625  0.00  0.00    -0.268 OA
ATOM     25  H   UNL     1       8.934  13.113   3.727  0.00  0.00    +0.158 HD
BRANCH  23  26
ATOM     26  C   UNL     1       7.795  15.001   5.111  0.00  0.00    +0.105 A 
ATOM     27  C   UNL     1       7.896  15.538   3.844  0.00  0.00    +0.032 A 
ATOM     28  C   UNL     1       7.496  16.874   3.934  0.00  0.00    +0.020 A 
ATOM     29  C   UNL     1       7.166  17.122   5.224  0.00  0.00    +0.086 A 
ATOM     30  N   UNL     1       7.343  15.996   5.947  0.00  0.00    -0.346 N 
ATOM     31  C   UNL     1       7.094  15.856   7.384  0.00  0.00    +0.149 C 
ENDBRANCH  23  26
ENDBRANCH  19  20
ENDBRANCH  18  19
ENDBRANCH   5  18
TORSDOF 7
