REMARK  Name = ZINC02450440
REMARK  3 active torsions:
REMARK  status: ('A' for Active; 'I' for Inactive)
REMARK    1  A    between atoms: C_1  and  C_2
REMARK    2  A    between atoms: N_23  and  C_26
REMARK    3  A    between atoms: C_30  and  N_32
REMARK                            x       y       z     vdW  Elec       q    Type
REMARK                         _______ _______ _______ _____ _____    ______ ____
ROOT
ATOM      1  C   UNL     1       9.879   2.533  -1.781  0.00  0.00    +0.047 C 
ATOM      2  C   UNL     1       9.012   3.708  -1.408  0.00  0.00    -0.011 A 
ATOM      3  C   UNL     1       9.595   4.896  -1.014  0.00  0.00    +0.046 A 
ATOM      4  C   UNL     1       8.806   5.980  -0.670  0.00  0.00    +0.020 A 
ATOM      5  C   UNL     1       7.428   5.872  -0.720  0.00  0.00    +0.006 A 
ATOM      6  C   UNL     1       6.843   4.688  -1.112  0.00  0.00    -0.027 A 
ATOM      7  C   UNL     1       7.626   3.592  -1.461  0.00  0.00    +0.040 A 
ATOM      8  N   UNL     1       6.814   2.514  -1.822  0.00  0.00    -0.286 N 
ATOM      9  C   UNL     1       5.504   2.815  -1.740  0.00  0.00    +0.212 C 
ATOM     10  O   UNL     1       4.575   2.077  -1.992  0.00  0.00    -0.277 OA
ATOM     11  C   UNL     1       5.416   4.244  -1.274  0.00  0.00    +0.053 C 
ATOM     12  C   UNL     1       4.640   4.351   0.044  0.00  0.00    +0.089 C 
ATOM     13  C   UNL     1       3.845   5.680  -0.074  0.00  0.00    +0.074 C 
ATOM     14  C   UNL     1       4.218   6.252  -1.454  0.00  0.00    -0.054 C 
ATOM     15  C   UNL     1       3.456   4.391  -2.681  0.00  0.00    -0.076 C 
ATOM     16  C   UNL     1       2.451   5.519  -2.989  0.00  0.00    -0.020 C 
ATOM     17  C   UNL     1       2.941   6.729  -2.170  0.00  0.00    -0.016 C 
ATOM     18  C   UNL     1       2.404   5.223  -0.097  0.00  0.00    +0.228 C 
ATOM     19  O   UNL     1       1.440   5.952  -0.187  0.00  0.00    -0.275 OA
ATOM     20  N   UNL     1       2.358   3.889   0.000  0.00  0.00    -0.210 N 
ATOM     21  C   UNL     1       3.556   3.298   0.083  0.00  0.00    +0.229 C 
ATOM     22  O   UNL     1       3.742   2.103   0.175  0.00  0.00    -0.275 OA
ATOM     23 CL   UNL     1      11.325   5.032  -0.952  0.00  0.00    -0.083 Cl
ATOM     24  H   UNL     1       7.155   1.649  -2.100  0.00  0.00    +0.155 HD
ATOM     25  N   UNL     1       4.662   5.095  -2.198  0.00  0.00    +0.395 N 
ATOM     26  H   UNL     1       5.253   5.373  -2.990  0.00  0.00    -0.079 HD
ENDROOT
BRANCH  20  27
ATOM     27  C   UNL     1       1.155   3.170   0.008  0.00  0.00    +0.046 A 
ATOM     28  C   UNL     1       0.280   3.291   1.079  0.00  0.00    +0.025 A 
ATOM     29  C   UNL     1      -0.905   2.581   1.085  0.00  0.00    +0.024 A 
ATOM     30  C   UNL     1      -1.218   1.746   0.027  0.00  0.00    +0.071 A 
ATOM     31  C   UNL     1      -0.350   1.628  -1.044  0.00  0.00    +0.146 A 
ATOM     32  C   UNL     1       0.836   2.336  -1.055  0.00  0.00    +0.058 A 
ATOM     33 CL   UNL     1      -2.704   0.849   0.041  0.00  0.00    -0.081 Cl
BRANCH  31  34
ATOM     34  N   UNL     1      -0.690   0.739  -2.177  0.00  0.00    +0.058 N 
ATOM     35  O   UNL     1       0.075   0.631  -3.118  0.00  0.00    -0.126 OA
ATOM     36  O   UNL     1      -1.736   0.114  -2.169  0.00  0.00    -0.126 OA
ENDBRANCH  31  34
ENDBRANCH  20  27
TORSDOF 2
