REMARK  Name = ZINC39677939
REMARK  9 active torsions:
REMARK  status: ('A' for Active; 'I' for Inactive)
REMARK    1  A    between atoms: C_4  and  C_7
REMARK    2  A    between atoms: C_7  and  C_8
REMARK    3  A    between atoms: C_8  and  C_9
REMARK    4  A    between atoms: C_9  and  C_10
REMARK    5  A    between atoms: C_14  and  C_23
REMARK    6  A    between atoms: N_25  and  C_26
REMARK    7  A    between atoms: C_26  and  C_27
REMARK    8  A    between atoms: N_30  and  C_34
REMARK    9  A    between atoms: C_34  and  C_35
REMARK                            x       y       z     vdW  Elec       q    Type
REMARK                         _______ _______ _______ _____ _____    ______ ____
ROOT
ATOM      1  C   UNL     1       5.932  -2.076   2.503  0.00  0.00    +0.216 C 
ATOM      2  O   UNL     1       5.173  -1.691   3.368  0.00  0.00    -0.276 OA
ATOM      3  N   UNL     1       7.089  -2.677   2.841  0.00  0.00    -0.300 N 
ATOM      4  C   UNL     1       8.137  -3.204   1.936  0.00  0.00    +0.121 C 
ATOM      5  C   UNL     1       9.470  -2.836   2.626  0.00  0.00    +0.100 C 
ATOM      6  C   UNL     1       9.112  -2.680   4.113  0.00  0.00    -0.004 C 
ATOM      7  C   UNL     1       7.604  -2.955   4.204  0.00  0.00    +0.115 C 
ATOM      8  C   UNL     1       9.411  -1.259   4.582  0.00  0.00    -0.010 C 
ATOM      9  C   UNL     1       9.101  -1.144   6.077  0.00  0.00    -0.082 C 
ATOM     10  N   UNL     1       9.917  -2.109   6.824  0.00  0.00    +0.379 N 
ATOM     11  C   UNL     1       9.557  -3.478   6.433  0.00  0.00    -0.082 C 
ATOM     12  C   UNL     1       9.887  -3.691   4.953  0.00  0.00    -0.010 C 
ATOM     13  H   UNL     1      10.893  -1.949   6.623  0.00  0.00    -0.086 HD
ATOM     14  H   UNL     1       9.756  -1.990   7.812  0.00  0.00    -0.086 HD
ENDROOT
BRANCH   5  15
ATOM     15  C   UNL     1      10.006  -1.540   2.073  0.00  0.00    +0.218 C 
ATOM     16  O   UNL     1       9.241  -0.693   1.663  0.00  0.00    -0.275 OA
ATOM     17  N   UNL     1      11.335  -1.323   2.035  0.00  0.00    -0.313 N 
ATOM     18  H   UNL     1      11.947  -2.000   2.364  0.00  0.00    +0.149 HD
BRANCH  17  19
ATOM     19  C   UNL     1      11.856  -0.063   1.498  0.00  0.00    +0.137 C 
BRANCH  19  20
ATOM     20  C   UNL     1      13.384  -0.071   1.570  0.00  0.00    +0.149 C 
ATOM     21  C   UNL     1      13.925   1.290   1.124  0.00  0.00    +0.118 C 
ATOM     22  N   UNL     1      15.394   1.251   1.121  0.00  0.00    -0.293 NA
ATOM     23  C   UNL     1      15.885   0.196   0.223  0.00  0.00    +0.113 C 
ATOM     24  C   UNL     1      15.326  -1.155   0.678  0.00  0.00    +0.175 C 
ATOM     25  O   UNL     1      13.897  -1.089   0.706  0.00  0.00    -0.372 OA
BRANCH  22  26
ATOM     26  C   UNL     1      15.955   2.558   0.752  0.00  0.00    +0.119 C 
BRANCH  26  27
ATOM     27  C   UNL     1      17.442   2.554   0.995  0.00  0.00    -0.033 A 
ATOM     28  C   UNL     1      17.942   2.939   2.225  0.00  0.00    +0.005 A 
ATOM     29  C   UNL     1      19.307   2.935   2.448  0.00  0.00    +0.000 A 
ATOM     30  C   UNL     1      20.170   2.545   1.441  0.00  0.00    +0.000 A 
ATOM     31  C   UNL     1      19.670   2.159   0.212  0.00  0.00    +0.000 A 
ATOM     32  C   UNL     1      18.305   2.159  -0.010  0.00  0.00    +0.005 A 
ENDBRANCH  26  27
ENDBRANCH  22  26
ENDBRANCH  19  20
ENDBRANCH  17  19
ENDBRANCH   5  15
BRANCH   1  33
ATOM     33  C   UNL     1       5.580  -1.881   1.051  0.00  0.00    +0.096 C 
BRANCH  33  34
ATOM     34  C   UNL     1       4.225  -1.179   0.944  0.00  0.00    +0.014 C 
BRANCH  34  35
ATOM     35  C   UNL     1       3.868  -0.982  -0.531  0.00  0.00    +0.035 C 
BRANCH  35  39
ATOM     36  C   UNL     1       0.084   0.978  -0.832  0.00  0.00    +0.000 A 
ATOM     37  C   UNL     1       1.246   1.724  -0.773  0.00  0.00    +0.000 A 
ATOM     38  C   UNL     1       2.470   1.090  -0.676  0.00  0.00    +0.003 A 
ATOM     39  C   UNL     1       2.533  -0.291  -0.636  0.00  0.00    -0.047 A 
ATOM     40  C   UNL     1       1.370  -1.037  -0.694  0.00  0.00    +0.003 A 
ATOM     41  C   UNL     1       0.146  -0.403  -0.793  0.00  0.00    +0.000 A 
ENDBRANCH  35  39
ENDBRANCH  34  35
ENDBRANCH  33  34
ENDBRANCH   1  33
TORSDOF 9
