REMARK  Name = ZINC66627530
REMARK  10 active torsions:
REMARK  status: ('A' for Active; 'I' for Inactive)
REMARK    1  A    between atoms: C_1  and  C_2
REMARK    2  A    between atoms: C_2  and  C_4
REMARK    3  A    between atoms: C_2  and  N_19
REMARK    4  A    between atoms: C_4  and  C_5
REMARK    5  A    between atoms: N_7  and  C_8
REMARK    6  A    between atoms: C_8  and  C_9
REMARK    7  A    between atoms: C_9  and  C_11
REMARK    8  A    between atoms: C_9  and  C_12
REMARK    9  A    between atoms: C_12  and  N_13
REMARK   10  A    between atoms: C_20  and  C_22
REMARK                            x       y       z     vdW  Elec       q    Type
REMARK                         _______ _______ _______ _____ _____    ______ ____
ROOT
ATOM      1  C   UNL     1       0.870  -2.011   1.172  0.00  0.00    +0.215 C 
ATOM      2  O   UNL     1       0.414  -2.615   0.224  0.00  0.00    -0.276 OA
ATOM      3  N   UNL     1       1.491  -2.681   2.163  0.00  0.00    -0.315 N 
ATOM      4  H   UNL     1       1.855  -2.198   2.921  0.00  0.00    +0.149 HD
ENDROOT
BRANCH   1   5
ATOM      5  C   UNL     1       0.742  -0.511   1.242  0.00  0.00    +0.117 C 
BRANCH   5   7
ATOM      6  C   UNL     1      -0.019   1.526   0.010  0.00  0.00    +0.028 C 
ATOM      7  C   UNL     1       0.002  -0.004   0.002  0.00  0.00    +0.079 C 
BRANCH   7   8
ATOM      8  N   UNL     1      -1.372  -0.511   0.012  0.00  0.00    -0.312 N 
ATOM      9  C   UNL     1      -2.051  -0.643  -1.145  0.00  0.00    +0.216 C 
ATOM     10  O   UNL     1      -1.524  -0.341  -2.194  0.00  0.00    -0.276 OA
ATOM     11  H   UNL     1      -1.794  -0.752   0.852  0.00  0.00    +0.149 HD
BRANCH   9  12
ATOM     12  C   UNL     1      -3.465  -1.164  -1.134  0.00  0.00    +0.075 C 
ATOM     13  C   UNL     1      -3.485  -2.571  -0.532  0.00  0.00    +0.013 C 
ATOM     14  C   UNL     1      -4.920  -3.100  -0.521  0.00  0.00    +0.001 C 
ATOM     15  C   UNL     1      -5.456  -3.151  -1.953  0.00  0.00    +0.000 C 
ATOM     16  C   UNL     1      -5.436  -1.745  -2.555  0.00  0.00    +0.001 C 
ATOM     17  C   UNL     1      -4.000  -1.215  -2.566  0.00  0.00    +0.013 C 
ENDBRANCH   9  12
ENDBRANCH   7   8
ENDBRANCH   5   7
ENDBRANCH   1   5
BRANCH   3  18
ATOM     18  C   UNL     1       1.615  -4.139   2.095  0.00  0.00    +0.105 C 
BRANCH  18  19
ATOM     19  C   UNL     1       2.355  -4.646   3.335  0.00  0.00    -0.014 C 
ATOM     20  C   UNL     1       1.512  -4.369   4.581  0.00  0.00    +0.007 C 
BRANCH  19  21
ATOM     21  C   UNL     1       2.595  -6.152   3.205  0.00  0.00    -0.074 C 
BRANCH  21  22
ATOM     22  N   UNL     1       3.409  -6.617   4.337  0.00  0.00    +0.380 N 
ATOM     23  C   UNL     1       4.737  -5.996   4.269  0.00  0.00    -0.079 C 
ATOM     24  C   UNL     1       5.562  -6.414   5.489  0.00  0.00    -0.019 C 
ATOM     25  C   UNL     1       5.709  -7.938   5.502  0.00  0.00    -0.004 C 
ATOM     26  C   UNL     1       4.316  -8.575   5.496  0.00  0.00    -0.019 C 
ATOM     27  C   UNL     1       3.538  -8.078   4.276  0.00  0.00    -0.079 C 
ATOM     28  H   UNL     1       2.961  -6.355   5.202  0.00  0.00    -0.082 HD
ENDBRANCH  21  22
ENDBRANCH  19  21
ENDBRANCH  18  19
ENDBRANCH   3  18
TORSDOF 8
