REMARK  Name = ZINC15968795
REMARK  6 active torsions:
REMARK  status: ('A' for Active; 'I' for Inactive)
REMARK    1  A    between atoms: C_1  and  C_2
REMARK    2  A    between atoms: C_13  and  C_16
REMARK    3  A    between atoms: C_16  and  C_17
REMARK    4  A    between atoms: C_20  and  O_23
REMARK    5  A    between atoms: N_26  and  C_29
REMARK    6  A    between atoms: C_29  and  C_30
REMARK                            x       y       z     vdW  Elec       q    Type
REMARK                         _______ _______ _______ _____ _____    ______ ____
ROOT
ATOM      1  C   UNL     1      -0.018   1.503   0.010  0.00  0.00    +0.044 C 
ATOM      2  C   UNL     1       0.002  -0.004   0.002  0.00  0.00    -0.050 A 
ATOM      3  C   UNL     1       0.006  -0.691  -1.198  0.00  0.00    +0.005 A 
ATOM      4  C   UNL     1       0.025  -2.070  -1.212  0.00  0.00    +0.024 A 
ATOM      5  C   UNL     1       0.041  -2.782  -0.015  0.00  0.00    +0.039 A 
ATOM      6  C   UNL     1       0.036  -2.081   1.187  0.00  0.00    +0.004 A 
ATOM      7  C   UNL     1       0.023  -0.704   1.195  0.00  0.00    +0.011 A 
ATOM      8  C   UNL     1       0.056  -3.122   2.270  0.00  0.00    +0.136 C 
ATOM      9  C   UNL     1      -1.166  -3.002   3.187  0.00  0.00    +0.122 C 
ATOM     10  C   UNL     1      -0.633  -3.365   4.601  0.00  0.00    +0.107 C 
ATOM     11  C   UNL     1       0.864  -3.677   4.391  0.00  0.00    +0.072 C 
ATOM     12  N   UNL     1       1.235  -2.971   3.143  0.00  0.00    -0.295 NA
ATOM     13  C   UNL     1      -1.377  -4.638   4.938  0.00  0.00    +0.227 C 
ATOM     14  O   UNL     1      -1.260  -5.266   5.968  0.00  0.00    -0.275 OA
ATOM     15  N   UNL     1      -2.183  -4.964   3.921  0.00  0.00    -0.237 N 
ATOM     16  C   UNL     1      -2.151  -4.106   2.876  0.00  0.00    +0.229 C 
ATOM     17  O   UNL     1      -2.798  -4.200   1.855  0.00  0.00    -0.275 OA
ATOM     18  C   UNL     1       0.073  -4.440   1.545  0.00  0.00    +0.243 C 
ATOM     19  O   UNL     1       0.093  -5.543   2.049  0.00  0.00    -0.273 OA
ATOM     20  N   UNL     1       0.062  -4.157   0.228  0.00  0.00    -0.283 N 
ATOM     21  H   UNL     1       2.053  -3.382   2.719  0.00  0.00    +0.124 HD
ATOM     22  H   UNL     1       0.068  -4.831  -0.470  0.00  0.00    +0.155 HD
ENDROOT
BRANCH  11  23
ATOM     23  C   UNL     1       1.686  -3.167   5.576  0.00  0.00    +0.054 C 
BRANCH  23  24
ATOM     24  C   UNL     1       3.123  -3.588   5.410  0.00  0.00    -0.046 A 
ATOM     25  C   UNL     1       3.552  -4.798   5.923  0.00  0.00    +0.007 A 
ATOM     26  C   UNL     1       4.869  -5.187   5.772  0.00  0.00    +0.045 A 
ATOM     27  C   UNL     1       5.762  -4.362   5.104  0.00  0.00    +0.117 A 
ATOM     28  C   UNL     1       5.329  -3.148   4.589  0.00  0.00    +0.045 A 
ATOM     29  C   UNL     1       4.010  -2.767   4.738  0.00  0.00    +0.007 A 
BRANCH  27  30
ATOM     30  O   UNL     1       7.058  -4.741   4.954  0.00  0.00    -0.507 OA
ATOM     31  H   UNL     1       7.229  -5.248   4.148  0.00  0.00    +0.292 HD
ENDBRANCH  27  30
ENDBRANCH  23  24
ENDBRANCH  11  23
BRANCH  15  32
ATOM     32  C   UNL     1      -3.040  -6.152   3.939  0.00  0.00    +0.151 C 
BRANCH  32  33
ATOM     33  C   UNL     1      -4.380  -5.796   4.529  0.00  0.00    -0.026 A 
ATOM     34  C   UNL     1      -4.584  -5.906   5.893  0.00  0.00    +0.009 A 
ATOM     35  C   UNL     1      -5.811  -5.581   6.439  0.00  0.00    +0.050 A 
ATOM     36  C   UNL     1      -6.840  -5.144   5.622  0.00  0.00    +0.166 A 
ATOM     37  C   UNL     1      -6.635  -5.034   4.249  0.00  0.00    +0.167 A 
ATOM     38  C   UNL     1      -5.401  -5.356   3.708  0.00  0.00    +0.054 A 
ATOM     39  O   UNL     1      -7.788  -4.588   3.670  0.00  0.00    -0.453 OA
ATOM     40  C   UNL     1      -8.822  -4.817   4.646  0.00  0.00    +0.466 C 
ATOM     41  O   UNL     1      -8.122  -4.768   5.903  0.00  0.00    -0.453 OA
ENDBRANCH  32  33
ENDBRANCH  15  32
TORSDOF 5
