REMARK  Name = ZINC06793332
REMARK  6 active torsions:
REMARK  status: ('A' for Active; 'I' for Inactive)
REMARK    1  A    between atoms: C_1  and  O_2
REMARK    2  A    between atoms: O_2  and  C_3
REMARK    3  A    between atoms: C_5  and  C_10
REMARK    4  A    between atoms: C_8  and  O_9
REMARK    5  A    between atoms: N_15  and  C_18
REMARK    6  A    between atoms: C_16  and  O_17
REMARK                            x       y       z     vdW  Elec       q    Type
REMARK                         _______ _______ _______ _____ _____    ______ ____
ROOT
ATOM      1  C   UNL     1      -4.871   0.257   0.037  0.00  0.00    +0.092 C 
ATOM      2  C   UNL     1      -5.679  -0.072  -1.186  0.00  0.00    +0.067 A 
ATOM      3  C   UNL     1      -6.849  -0.864  -1.121  0.00  0.00    +0.153 A 
ATOM      4  N   UNL     1      -7.330  -0.986  -2.322  0.00  0.00    -0.148 NA
ATOM      5  N   UNL     1      -6.496  -0.278  -3.203  0.00  0.00    -0.199 N 
ATOM      6  C   UNL     1      -5.486   0.276  -2.473  0.00  0.00    +0.222 A 
ATOM      7  N   UNL     1      -7.302  -1.364   0.104  0.00  0.00    -0.301 N 
ATOM      8  C   UNL     1      -6.787  -0.829   1.258  0.00  0.00    +0.017 C 
ATOM      9  C   UNL     1      -5.667  -0.078   1.281  0.00  0.00    +0.024 C 
ATOM     10  C   UNL     1      -5.175   0.441   2.493  0.00  0.00    +0.162 C 
ATOM     11  C   UNL     1      -5.862   0.173   3.802  0.00  0.00    +0.080 C 
ATOM     12  C   UNL     1      -6.587  -1.174   3.712  0.00  0.00    +0.014 C 
ATOM     13  C   UNL     1      -7.551  -1.117   2.532  0.00  0.00    +0.051 C 
ATOM     14  O   UNL     1      -4.168   1.122   2.481  0.00  0.00    -0.292 OA
ATOM     15  H   UNL     1      -7.965  -2.071   0.137  0.00  0.00    +0.153 HD
ENDROOT
BRANCH   1  18
ATOM     16  C   UNL     1      -1.201  -0.638   0.010  0.00  0.00    +0.162 A 
ATOM     17  C   UNL     1      -2.374   0.099   0.019  0.00  0.00    +0.054 A 
ATOM     18  C   UNL     1      -3.596  -0.546   0.027  0.00  0.00    -0.032 A 
ATOM     19  C   UNL     1      -3.652  -1.928   0.026  0.00  0.00    +0.008 A 
ATOM     20  C   UNL     1      -2.485  -2.669   0.017  0.00  0.00    +0.049 A 
ATOM     21  C   UNL     1      -1.257  -2.028   0.003  0.00  0.00    +0.158 A 
BRANCH  16  23
ATOM     22  C   UNL     1      -0.017   1.425   0.010  0.00  0.00    +0.277 C 
ATOM     23  O   UNL     1       0.002  -0.004   0.002  0.00  0.00    -0.491 OA
ENDBRANCH  16  23
BRANCH  21  24
ATOM     24  O   UNL     1      -0.108  -2.756  -0.012  0.00  0.00    -0.503 OA
ATOM     25  H   UNL     1       0.232  -2.972   0.867  0.00  0.00    +0.292 HD
ENDBRANCH  21  24
ENDBRANCH   1  18
BRANCH   5  26
ATOM     26  C   UNL     1      -6.671  -0.162  -4.588  0.00  0.00    +0.069 A 
ATOM     27  C   UNL     1      -6.321   1.014  -5.237  0.00  0.00    +0.028 A 
ATOM     28  C   UNL     1      -6.494   1.126  -6.603  0.00  0.00    +0.002 A 
ATOM     29  C   UNL     1      -7.017   0.068  -7.324  0.00  0.00    +0.000 A 
ATOM     30  C   UNL     1      -7.368  -1.105  -6.680  0.00  0.00    +0.002 A 
ATOM     31  C   UNL     1      -7.190  -1.225  -5.316  0.00  0.00    +0.028 A 
ENDBRANCH   5  26
BRANCH   6  32
ATOM     32  O   UNL     1      -4.472   1.039  -2.956  0.00  0.00    -0.492 OA
ATOM     33  H   UNL     1      -3.691   0.534  -3.219  0.00  0.00    +0.294 HD
ENDBRANCH   6  32
TORSDOF 5
