REMARK  Name = ZINC39688506
REMARK  7 active torsions:
REMARK  status: ('A' for Active; 'I' for Inactive)
REMARK    1  A    between atoms: C_1  and  C_2
REMARK    2  A    between atoms: C_2  and  C_4
REMARK    3  A    between atoms: C_2  and  N_12
REMARK    4  A    between atoms: C_4  and  C_5
REMARK    5  A    between atoms: C_13  and  C_15
REMARK    6  A    between atoms: C_26  and  C_28
REMARK    7  A    between atoms: C_31  and  C_35
REMARK                            x       y       z     vdW  Elec       q    Type
REMARK                         _______ _______ _______ _____ _____    ______ ____
ROOT
ATOM      1  C   UNL     1       0.374  -1.527   3.259  0.00  0.00    +0.100 C 
ATOM      2  C   UNL     1       1.079  -2.902   3.231  0.00  0.00    +0.121 C 
ATOM      3  N   UNL     1       0.901  -3.442   4.599  0.00  0.00    -0.296 N 
ATOM      4  C   UNL     1      -0.480  -3.053   4.972  0.00  0.00    +0.115 C 
ATOM      5  C   UNL     1      -0.649  -1.631   4.402  0.00  0.00    -0.004 C 
ATOM      6  C   UNL     1      -0.346  -0.592   5.478  0.00  0.00    -0.010 C 
ATOM      7  C   UNL     1      -1.409  -0.677   6.577  0.00  0.00    -0.082 C 
ATOM      8  N   UNL     1      -2.736  -0.437   5.996  0.00  0.00    +0.379 N 
ATOM      9  C   UNL     1      -3.058  -1.493   5.029  0.00  0.00    -0.082 C 
ATOM     10  C   UNL     1      -2.064  -1.443   3.865  0.00  0.00    -0.010 C 
ATOM     11  C   UNL     1       1.794  -4.130   5.338  0.00  0.00    +0.247 C 
ATOM     12  O   UNL     1       2.931  -4.277   4.936  0.00  0.00    -0.270 OA
ATOM     13  H   UNL     1      -3.427  -0.433   6.731  0.00  0.00    -0.086 HD
ATOM     14  H   UNL     1      -2.740   0.458   5.529  0.00  0.00    -0.086 HD
ENDROOT
BRANCH  11  15
ATOM     15  C   UNL     1       1.389  -4.707   6.638  0.00  0.00    +0.040 A 
ATOM     16  C   UNL     1       0.041  -4.946   6.909  0.00  0.00    +0.014 A 
ATOM     17  C   UNL     1      -0.331  -5.485   8.124  0.00  0.00    +0.016 A 
ATOM     18  C   UNL     1       0.628  -5.788   9.073  0.00  0.00    +0.090 A 
ATOM     19  C   UNL     1       1.968  -5.553   8.812  0.00  0.00    +0.136 A 
ATOM     20  C   UNL     1       2.354  -5.019   7.596  0.00  0.00    +0.052 A 
ATOM     21  F   UNL     1       2.900  -5.851   9.744  0.00  0.00    -0.205 F 
BRANCH  18  22
ATOM     22  C   UNL     1       0.214  -6.376  10.397  0.00  0.00    +0.420 C 
ATOM     23  F   UNL     1      -1.177  -6.520  10.429  0.00  0.00    -0.166 F 
ATOM     24  F   UNL     1       0.816  -7.628  10.560  0.00  0.00    -0.166 F 
ATOM     25  F   UNL     1       0.618  -5.526  11.432  0.00  0.00    -0.166 F 
ENDBRANCH  18  22
ENDBRANCH  11  15
BRANCH   1  27
ATOM     26  N   UNL     1      -0.500  -0.006   1.514  0.00  0.00    -0.312 N 
ATOM     27  C   UNL     1      -0.327  -1.270   1.950  0.00  0.00    +0.218 C 
ATOM     28  O   UNL     1      -0.736  -2.201   1.288  0.00  0.00    -0.275 OA
ATOM     29  H   UNL     1      -0.173   0.738   2.043  0.00  0.00    +0.149 HD
BRANCH  26  31
ATOM     30  C   UNL     1      -2.694   0.271   0.470  0.00  0.00    +0.028 C 
ATOM     31  C   UNL     1      -1.181   0.243   0.242  0.00  0.00    +0.074 C 
BRANCH  31  32
ATOM     32  C   UNL     1      -0.726   1.589  -0.325  0.00  0.00    +0.057 C 
BRANCH  32  33
ATOM     33  C   UNL     1       0.741   1.521  -0.665  0.00  0.00    -0.045 A 
ATOM     34  C   UNL     1       1.686   1.857   0.286  0.00  0.00    +0.006 A 
ATOM     35  C   UNL     1       3.031   1.795  -0.025  0.00  0.00    +0.038 A 
ATOM     36  C   UNL     1       3.432   1.395  -1.288  0.00  0.00    +0.123 A 
ATOM     37  C   UNL     1       2.484   1.059  -2.240  0.00  0.00    +0.038 A 
ATOM     38  C   UNL     1       1.139   1.117  -1.926  0.00  0.00    +0.006 A 
ATOM     39  F   UNL     1       4.747   1.334  -1.593  0.00  0.00    -0.205 F 
ENDBRANCH  32  33
ENDBRANCH  31  32
ENDBRANCH  26  31
ENDBRANCH   1  27
TORSDOF 6
