REMARK  Name = ZINC39218068
REMARK  7 active torsions:
REMARK  status: ('A' for Active; 'I' for Inactive)
REMARK    1  A    between atoms: C_1  and  C_2
REMARK    2  A    between atoms: C_2  and  C_3
REMARK    3  A    between atoms: C_2  and  C_4
REMARK    4  A    between atoms: C_2  and  C_5
REMARK    5  A    between atoms: C_7  and  C_11
REMARK    6  A    between atoms: C_15  and  S_26
REMARK    7  A    between atoms: N_17  and  C_18
REMARK                            x       y       z     vdW  Elec       q    Type
REMARK                         _______ _______ _______ _____ _____    ______ ____
ROOT
ATOM      1  C   UNL     1       1.176  -0.466  -4.541  0.00  0.00    +0.188 C 
ATOM      2  N   UNL     1       1.330   0.924  -5.046  0.00  0.00    -0.232 NA
ATOM      3  N   UNL     1       1.140   0.771  -6.497  0.00  0.00    -0.226 NA
ATOM      4  C   UNL     1       1.798  -0.516  -6.821  0.00  0.00    +0.214 C 
ATOM      5  N   UNL     1       1.818  -1.304  -5.574  0.00  0.00    -0.286 N 
ATOM      6  H   UNL     1       2.249   1.284  -4.838  0.00  0.00    +0.143 HD
ATOM      7  H   UNL     1       0.159   0.745  -6.733  0.00  0.00    +0.143 HD
ENDROOT
BRANCH   5   8
ATOM      8  C   UNL     1       2.341  -2.588  -5.403  0.00  0.00    +0.036 A 
ATOM      9  C   UNL     1       1.493  -3.654  -5.127  0.00  0.00    +0.043 A 
ATOM     10  C   UNL     1       2.014  -4.923  -4.958  0.00  0.00    +0.044 A 
ATOM     11  C   UNL     1       3.377  -5.133  -5.064  0.00  0.00    +0.040 A 
ATOM     12  C   UNL     1       4.224  -4.073  -5.339  0.00  0.00    +0.044 A 
ATOM     13  C   UNL     1       3.708  -2.803  -5.514  0.00  0.00    +0.043 A 
ATOM     14 CL   UNL     1       5.934  -4.341  -5.470  0.00  0.00    -0.083 Cl
ATOM     15 CL   UNL     1       0.955  -6.255  -4.613  0.00  0.00    -0.083 Cl
ENDBRANCH   5   8
BRANCH   1  18
ATOM     16  C   UNL     1       0.837  -0.477  -1.217  0.00  0.00    +0.067 C 
ATOM     17  C   UNL     1       1.322   0.327  -2.166  0.00  0.00    +0.030 C 
ATOM     18  C   UNL     1       1.891  -0.630  -3.199  0.00  0.00    +0.189 C 
ATOM     19  N   UNL     1       1.613  -1.952  -2.614  0.00  0.00    -0.177 NA
ATOM     20  N   UNL     1       1.043  -1.774  -1.535  0.00  0.00    -0.158 NA
BRANCH  16  22
ATOM     21  C   UNL     1       0.111   1.528   0.049  0.00  0.00    +0.017 C 
ATOM     22  C   UNL     1       0.159  -0.001   0.042  0.00  0.00    +0.006 C 
ATOM     23  C   UNL     1       0.943  -0.493   1.261  0.00  0.00    +0.017 C 
ATOM     24  C   UNL     1      -1.266  -0.556   0.094  0.00  0.00    +0.017 C 
ENDBRANCH  16  22
ENDBRANCH   1  18
BRANCH   4  25
ATOM     25  S   UNL     1       0.851  -1.394  -8.095  0.00  0.00    -0.139 S 
ATOM     26  H   UNL     1       0.883  -0.565  -9.154  0.00  0.00    +0.105 HD
ENDBRANCH   4  25
TORSDOF 4
