REMARK  Name = ZINC64890555
REMARK  8 active torsions:
REMARK  status: ('A' for Active; 'I' for Inactive)
REMARK    1  A    between atoms: C_1  and  C_2
REMARK    2  A    between atoms: C_5  and  S_8
REMARK    3  A    between atoms: S_8  and  N_11
REMARK    4  A    between atoms: N_11  and  C_12
REMARK    5  A    between atoms: C_12  and  C_14
REMARK    6  A    between atoms: C_12  and  C_15
REMARK    7  A    between atoms: C_18  and  C_21
REMARK    8  A    between atoms: N_33  and  C_34
REMARK                            x       y       z     vdW  Elec       q    Type
REMARK                         _______ _______ _______ _____ _____    ______ ____
ROOT
ATOM      1  C   UNL     1       3.929  -4.400   0.621  0.00  0.00    +0.261 C 
ATOM      2  N   UNL     1       4.800  -4.067   1.755  0.00  0.00    -0.341 N 
ATOM      3  C   UNL     1       5.249  -2.860   1.595  0.00  0.00    +0.134 C 
ATOM      4  N   UNL     1       4.771  -2.297   0.438  0.00  0.00    -0.247 N 
ATOM      5  O   UNL     1       3.929  -3.235  -0.218  0.00  0.00    -0.246 OA
ATOM      6  H   UNL     1       4.975  -1.404   0.119  0.00  0.00    +0.196 HD
ATOM      7  H   UNL     1       5.006  -4.653   2.501  0.00  0.00    +0.164 HD
ENDROOT
BRANCH   3   8
ATOM      8  C   UNL     1       6.159  -2.177   2.541  0.00  0.00    +0.019 A 
ATOM      9  C   UNL     1       7.072  -2.920   3.294  0.00  0.00    +0.013 A 
ATOM     10  C   UNL     1       7.919  -2.287   4.173  0.00  0.00    +0.028 A 
ATOM     11  C   UNL     1       7.873  -0.902   4.317  0.00  0.00    +0.068 A 
ATOM     12  C   UNL     1       6.962  -0.153   3.567  0.00  0.00    +0.067 A 
ATOM     13  C   UNL     1       6.111  -0.791   2.676  0.00  0.00    +0.039 A 
ATOM     14  N   UNL     1       6.904   1.232   3.701  0.00  0.00    -0.316 N 
ATOM     15  H   UNL     1       6.269   1.743   3.176  0.00  0.00    +0.169 HD
ATOM     16  C   UNL     1       7.731   1.863   4.560  0.00  0.00    +0.314 A 
ATOM     17  O   UNL     1       7.684   3.071   4.682  0.00  0.00    -0.262 OA
ATOM     18  C   UNL     1       8.702   1.062   5.360  0.00  0.00    +0.316 A 
ATOM     19  O   UNL     1       9.455   1.611   6.139  0.00  0.00    -0.262 OA
ATOM     20  N   UNL     1       8.736  -0.277   5.210  0.00  0.00    -0.305 N 
ATOM     21  C   UNL     1       9.685  -1.076   5.989  0.00  0.00    +0.153 C 
ENDBRANCH   3   8
BRANCH   1  22
ATOM     22  C   UNL     1       2.512  -4.699   1.113  0.00  0.00    +0.125 C 
ATOM     23  C   UNL     1       2.542  -5.903   2.056  0.00  0.00    +0.030 C 
BRANCH  22  24
ATOM     24  N   UNL     1       1.651  -4.999  -0.034  0.00  0.00    -0.183 NA
ATOM     25  H   UNL     1       2.011  -5.473  -0.800  0.00  0.00    +0.148 HD
BRANCH  24  26
ATOM     26  S   UNL     1       0.063  -4.530  -0.023  0.00  0.00    +0.059 S 
ATOM     27  O   UNL     1      -0.476  -4.950   1.223  0.00  0.00    -0.153 OA
ATOM     28  O   UNL     1      -0.490  -4.937  -1.267  0.00  0.00    -0.153 OA
BRANCH  26  33
ATOM     29  C   UNL     1      -0.018   1.503   0.010  0.00  0.00    +0.044 C 
ATOM     30  C   UNL     1       0.002  -0.004   0.002  0.00  0.00    -0.050 A 
ATOM     31  C   UNL     1       0.006  -0.689  -1.199  0.00  0.00    +0.005 A 
ATOM     32  C   UNL     1       0.025  -2.071  -1.206  0.00  0.00    +0.029 A 
ATOM     33  C   UNL     1       0.040  -2.768  -0.013  0.00  0.00    +0.105 A 
ATOM     34  C   UNL     1       0.037  -2.084   1.188  0.00  0.00    +0.029 A 
ATOM     35  C   UNL     1       0.023  -0.702   1.195  0.00  0.00    +0.005 A 
ENDBRANCH  26  33
ENDBRANCH  24  26
ENDBRANCH  22  24
ENDBRANCH   1  22
TORSDOF 5
