REMARK  Name = ZINC62953465
REMARK  2 active torsions:
REMARK  status: ('A' for Active; 'I' for Inactive)
REMARK    1  A    between atoms: C_3  and  N_9
REMARK    2  A    between atoms: C_4  and  N_8
REMARK                            x       y       z     vdW  Elec       q    Type
REMARK                         _______ _______ _______ _____ _____    ______ ____
ROOT
ATOM      1  C   UNL     1      -0.017   1.379   0.010  0.00  0.00    +0.022 A 
ATOM      2  C   UNL     1       1.169   2.090   0.002  0.00  0.00    +0.026 A 
ATOM      3  C   UNL     1       2.381   1.418  -0.013  0.00  0.00    +0.051 A 
ATOM      4  C   UNL     1       2.401   0.023  -0.021  0.00  0.00    +0.047 A 
ATOM      5  C   UNL     1       1.208  -0.683  -0.013  0.00  0.00    +0.044 A 
ATOM      6  C   UNL     1       0.002  -0.004   0.002  0.00  0.00    +0.043 A 
ATOM      7 CL   UNL     1      -1.491  -0.890   0.012  0.00  0.00    -0.083 Cl
ENDROOT
BRANCH   3   8
ATOM      8  N   UNL     1       3.583   2.137  -0.022  0.00  0.00    -0.328 N 
ATOM      9  C   UNL     1       4.209   2.532  -1.291  0.00  0.00    +0.105 C 
ATOM     10  C   UNL     1       5.656   2.026  -1.306  0.00  0.00    +0.026 C 
ATOM     11  C   UNL     1       6.376   2.513  -0.054  0.00  0.00    -0.026 C 
ATOM     12  C   UNL     1       7.848   2.050  -0.076  0.00  0.00    +0.007 C 
ATOM     13  C   UNL     1       8.546   3.085   0.843  0.00  0.00    +0.001 C 
ATOM     14  C   UNL     1       7.833   4.416   0.525  0.00  0.00    +0.001 C 
ATOM     15  C   UNL     1       6.448   4.049  -0.040  0.00  0.00    +0.007 C 
ATOM     16  C   UNL     1       5.687   2.002   1.206  0.00  0.00    +0.026 C 
ATOM     17  C   UNL     1       4.238   2.514   1.238  0.00  0.00    +0.105 C 
ENDBRANCH   3   8
BRANCH   4  18
ATOM     18  N   UNL     1       3.622  -0.662  -0.037  0.00  0.00    -0.357 N 
ATOM     19  H   UNL     1       4.456  -0.166  -0.043  0.00  0.00    +0.142 HD
ATOM     20  H   UNL     1       3.634  -1.632  -0.043  0.00  0.00    +0.142 HD
ENDBRANCH   4  18
TORSDOF 2
