REMARK  Name = ZINC06782284
REMARK  9 active torsions:
REMARK  status: ('A' for Active; 'I' for Inactive)
REMARK    1  A    between atoms: C_1  and  C_2
REMARK    2  A    between atoms: C_2  and  C_3
REMARK    3  A    between atoms: C_2  and  C_4
REMARK    4  A    between atoms: C_7  and  N_10
REMARK    5  A    between atoms: C_14  and  N_15
REMARK    6  A    between atoms: N_15  and  N_16
REMARK    7  A    between atoms: C_17  and  C_19
REMARK    8  A    between atoms: C_24  and  O_25
REMARK    9  A    between atoms: C_26  and  O_30
REMARK                            x       y       z     vdW  Elec       q    Type
REMARK                         _______ _______ _______ _____ _____    ______ ____
ROOT
ATOM      1  N   UNL     1       8.380   6.140  -0.255  0.00  0.00    -0.188 N 
ATOM      2  C   UNL     1       7.537   5.511   0.591  0.00  0.00    +0.265 C 
ATOM      3  O   UNL     1       6.827   6.139   1.354  0.00  0.00    -0.269 OA
ATOM      4  C   UNL     1       7.505   4.037   0.560  0.00  0.00    +0.111 C 
ATOM      5  C   UNL     1       6.668   3.314   1.396  0.00  0.00    +0.106 C 
ATOM      6  C   UNL     1       8.403   3.370  -0.392  0.00  0.00    +0.219 C 
ATOM      7  N   UNL     1       9.173   4.119  -1.164  0.00  0.00    -0.127 NA
ATOM      8  C   UNL     1       9.163   5.447  -1.096  0.00  0.00    +0.340 C 
ATOM      9  O   UNL     1       9.904   6.068  -1.837  0.00  0.00    -0.250 OA
ENDROOT
BRANCH   1  13
ATOM     10  C   UNL     1       8.556  10.304  -0.256  0.00  0.00    -0.045 A 
ATOM     11  C   UNL     1       9.305   9.582   0.656  0.00  0.00    +0.006 A 
ATOM     12  C   UNL     1       9.248   8.202   0.658  0.00  0.00    +0.024 A 
ATOM     13  C   UNL     1       8.439   7.540  -0.255  0.00  0.00    +0.046 A 
ATOM     14  C   UNL     1       7.693   8.268  -1.173  0.00  0.00    +0.024 A 
ATOM     15  C   UNL     1       7.750   9.648  -1.167  0.00  0.00    +0.006 A 
BRANCH  10  17
ATOM     16  C   UNL     1       9.123  12.299  -1.616  0.00  0.00    +0.012 C 
ATOM     17  C   UNL     1       8.620  11.810  -0.256  0.00  0.00    +0.013 C 
ATOM     18  C   UNL     1       7.225  12.380   0.007  0.00  0.00    +0.012 C 
ENDBRANCH  10  17
ENDBRANCH   1  13
BRANCH   5  19
ATOM     19  N   UNL     1       5.875   3.955   2.275  0.00  0.00    -0.271 N 
ATOM     20  H   UNL     1       5.948   4.917   2.381  0.00  0.00    +0.169 HD
BRANCH  19  21
ATOM     21  N   UNL     1       4.946   3.235   3.036  0.00  0.00    -0.233 N 
ATOM     22  C   UNL     1       4.153   3.877   3.916  0.00  0.00    +0.264 C 
ATOM     23  O   UNL     1       4.243   5.082   4.049  0.00  0.00    -0.269 OA
ATOM     24  H   UNL     1       4.874   2.273   2.931  0.00  0.00    +0.173 HD
BRANCH  22  25
ATOM     25  C   UNL     1       3.174   3.118   4.718  0.00  0.00    +0.079 A 
ATOM     26  C   UNL     1       3.067   1.733   4.569  0.00  0.00    +0.017 A 
ATOM     27  C   UNL     1       2.152   1.030   5.321  0.00  0.00    +0.001 A 
ATOM     28  C   UNL     1       1.332   1.691   6.222  0.00  0.00    +0.004 A 
ATOM     29  C   UNL     1       1.431   3.058   6.383  0.00  0.00    +0.046 A 
ATOM     30  C   UNL     1       2.348   3.782   5.634  0.00  0.00    +0.129 A 
BRANCH  30  31
ATOM     31  O   UNL     1       2.443   5.127   5.788  0.00  0.00    -0.506 OA
ATOM     32  H   UNL     1       1.863   5.631   5.201  0.00  0.00    +0.292 HD
ENDBRANCH  30  31
ENDBRANCH  22  25
ENDBRANCH  19  21
ENDBRANCH   5  19
BRANCH   6  33
ATOM     33  O   UNL     1       8.438   2.024  -0.479  0.00  0.00    -0.493 OA
ATOM     34  H   UNL     1       9.063   1.689  -1.137  0.00  0.00    +0.294 HD
ENDBRANCH   6  33
TORSDOF 7
