REMARK  Name = ZINC63594715
REMARK  5 active torsions:
REMARK  status: ('A' for Active; 'I' for Inactive)
REMARK    1  A    between atoms: C_1  and  C_2
REMARK    2  A    between atoms: N_4  and  C_5
REMARK    3  A    between atoms: C_5  and  C_11
REMARK    4  A    between atoms: C_22  and  C_24
REMARK    5  A    between atoms: C_22  and  C_25
REMARK                            x       y       z     vdW  Elec       q    Type
REMARK                         _______ _______ _______ _____ _____    ______ ____
ROOT
ATOM      1  C   UNL     1      -1.162  -2.678  -0.616  0.00  0.00    +0.242 C 
ATOM      2  O   UNL     1      -1.613  -3.750  -0.959  0.00  0.00    -0.273 OA
ATOM      3  N   UNL     1      -1.799  -1.947   0.321  0.00  0.00    -0.263 N 
ATOM      4  C   UNL     1      -3.018  -2.372   0.818  0.00  0.00    +0.165 A 
ATOM      5  N   UNL     1      -3.780  -1.785   1.727  0.00  0.00    -0.229 NA
ATOM      6  C   UNL     1      -4.923  -2.295   2.114  0.00  0.00    +0.062 A 
ATOM      7  C   UNL     1      -5.261  -3.499   1.484  0.00  0.00    +0.079 A 
ATOM      8  S   UNL     1      -3.887  -3.756   0.403  0.00  0.00    -0.049 S 
ATOM      9  C   UNL     1      -6.420  -4.232   1.714  0.00  0.00    +0.172 C 
ATOM     10  O   UNL     1      -6.630  -5.283   1.141  0.00  0.00    -0.291 OA
ATOM     11  C   UNL     1      -7.412  -3.663   2.712  0.00  0.00    +0.087 C 
ATOM     12  C   UNL     1      -6.659  -2.867   3.778  0.00  0.00    -0.022 C 
ATOM     13  C   UNL     1      -5.873  -1.712   3.150  0.00  0.00    +0.063 C 
ATOM     14  C   UNL     1      -5.688  -3.797   4.508  0.00  0.00    +0.011 C 
ATOM     15  C   UNL     1      -7.663  -2.302   4.785  0.00  0.00    +0.011 C 
ATOM     16  H   UNL     1      -1.403  -1.124   0.646  0.00  0.00    +0.157 HD
ENDROOT
BRANCH   1  17
ATOM     17  C   UNL     1       0.110  -2.162  -1.237  0.00  0.00    +0.111 C 
ATOM     18  C   UNL     1       0.944  -3.340  -1.745  0.00  0.00    +0.035 C 
ATOM     19  C   UNL     1       2.236  -2.816  -2.375  0.00  0.00    +0.003 C 
ATOM     20  C   UNL     1       1.893  -1.891  -3.545  0.00  0.00    +0.000 C 
ATOM     21  C   UNL     1       1.060  -0.713  -3.037  0.00  0.00    +0.003 C 
ATOM     22  C   UNL     1      -0.232  -1.237  -2.407  0.00  0.00    +0.035 C 
BRANCH  17  26
ATOM     23  C   UNL     1       2.189  -1.305   1.859  0.00  0.00    +0.109 C 
ATOM     24  C   UNL     1       1.309  -2.039   0.881  0.00  0.00    +0.211 C 
ATOM     25  O   UNL     1       0.990  -3.189   1.097  0.00  0.00    -0.276 OA
ATOM     26  N   UNL     1       0.876  -1.417  -0.234  0.00  0.00    -0.302 N 
ATOM     27  H   UNL     1       1.072  -0.478  -0.372  0.00  0.00    +0.150 HD
ENDBRANCH  17  26
ENDBRANCH   1  17
TORSDOF 2
