REMARK  Name = ZINC35682708
REMARK  6 active torsions:
REMARK  status: ('A' for Active; 'I' for Inactive)
REMARK    1  A    between atoms: C_1  and  C_2
REMARK    2  A    between atoms: C_3  and  N_15
REMARK    3  A    between atoms: N_6  and  C_9
REMARK    4  A    between atoms: N_7  and  C_8
REMARK    5  A    between atoms: N_15  and  C_16
REMARK    6  A    between atoms: N_26  and  C_29
REMARK                            x       y       z     vdW  Elec       q    Type
REMARK                         _______ _______ _______ _____ _____    ______ ____
ROOT
ATOM      1  C   UNL     1      -3.249  -1.165   1.329  0.00  0.00    +0.118 C 
ATOM      2  C   UNL     1      -4.225  -0.402   2.250  0.00  0.00    +0.033 C 
ATOM      3  C   UNL     1      -5.559  -1.130   1.973  0.00  0.00    +0.044 C 
ATOM      4  C   UNL     1      -5.410  -1.703   0.581  0.00  0.00    +0.038 A 
ATOM      5  C   UNL     1      -4.110  -1.726   0.218  0.00  0.00    +0.049 A 
ATOM      6  N   UNL     1      -3.761  -2.213  -1.016  0.00  0.00    -0.309 N 
ATOM      7  H   UNL     1      -2.827  -2.228  -1.278  0.00  0.00    +0.170 HD
ATOM      8  C   UNL     1      -4.696  -2.671  -1.865  0.00  0.00    +0.330 A 
ATOM      9  O   UNL     1      -4.361  -3.099  -2.953  0.00  0.00    -0.246 OA
ATOM     10  N   UNL     1      -6.000  -2.662  -1.529  0.00  0.00    -0.258 N 
ATOM     11  C   UNL     1      -6.388  -2.187  -0.324  0.00  0.00    +0.260 A 
ATOM     12  O   UNL     1      -7.566  -2.178  -0.017  0.00  0.00    -0.267 OA
ENDROOT
BRANCH  10  13
ATOM     13  C   UNL     1      -7.001  -3.166  -2.472  0.00  0.00    +0.095 C 
ATOM     14  C   UNL     1      -6.710  -4.634  -2.789  0.00  0.00    +0.025 C 
ATOM     15  C   UNL     1      -7.756  -5.160  -3.775  0.00  0.00    +0.002 C 
ATOM     16  C   UNL     1      -7.700  -4.338  -5.064  0.00  0.00    +0.000 C 
ATOM     17  C   UNL     1      -7.992  -2.870  -4.747  0.00  0.00    +0.002 C 
ATOM     18  C   UNL     1      -6.946  -2.345  -3.762  0.00  0.00    +0.025 C 
ENDBRANCH  10  13
BRANCH   1  19
ATOM     19  N   UNL     1      -2.245  -0.249   0.781  0.00  0.00    -0.330 N 
ATOM     20  H   UNL     1      -2.436   0.700   0.721  0.00  0.00    +0.147 HD
BRANCH  19  23
ATOM     21  C   UNL     1      -0.003   1.475  -0.394  0.00  0.00    +0.067 C 
ATOM     22  C   UNL     1       0.008  -0.017  -0.179  0.00  0.00    +0.059 A 
ATOM     23  C   UNL     1      -1.000  -0.748   0.343  0.00  0.00    +0.116 A 
ATOM     24  C   UNL     1      -0.588  -2.105   0.374  0.00  0.00    +0.293 A 
ATOM     25  O   UNL     1      -1.245  -3.046   0.782  0.00  0.00    -0.264 OA
ATOM     26  N   UNL     1       0.661  -2.167  -0.131  0.00  0.00    -0.216 N 
ATOM     27  N   UNL     1       1.044  -0.866  -0.485  0.00  0.00    -0.282 N 
ATOM     28  C   UNL     1       2.327  -0.479  -1.078  0.00  0.00    +0.171 C 
BRANCH  26  29
ATOM     29  C   UNL     1       1.435  -3.322  -0.278  0.00  0.00    +0.067 A 
ATOM     30  C   UNL     1       2.750  -3.341   0.170  0.00  0.00    +0.028 A 
ATOM     31  C   UNL     1       3.511  -4.484   0.023  0.00  0.00    +0.002 A 
ATOM     32  C   UNL     1       2.965  -5.609  -0.568  0.00  0.00    +0.000 A 
ATOM     33  C   UNL     1       1.657  -5.593  -1.015  0.00  0.00    +0.002 A 
ATOM     34  C   UNL     1       0.888  -4.455  -0.866  0.00  0.00    +0.028 A 
ENDBRANCH  26  29
ENDBRANCH  19  23
ENDBRANCH   1  19
TORSDOF 4
