REMARK  Name = ZINC20412840
REMARK  7 active torsions:
REMARK  status: ('A' for Active; 'I' for Inactive)
REMARK    1  A    between atoms: C_1  and  C_2
REMARK    2  A    between atoms: C_7  and  C_42
REMARK    3  A    between atoms: C_18  and  C_20
REMARK    4  A    between atoms: C_20  and  N_21
REMARK    5  A    between atoms: N_24  and  C_27
REMARK    6  A    between atoms: C_27  and  C_29
REMARK    7  A    between atoms: C_27  and  C_35
REMARK                            x       y       z     vdW  Elec       q    Type
REMARK                         _______ _______ _______ _____ _____    ______ ____
ROOT
ATOM      1  N   UNL     1      -2.779   3.372   4.894  0.00  0.00    +0.382 N 
ATOM      2  C   UNL     1      -1.362   3.408   5.280  0.00  0.00    -0.063 C 
ATOM      3  C   UNL     1      -1.167   4.430   6.402  0.00  0.00    +0.067 C 
ATOM      4  N   UNL     1      -2.012   4.063   7.547  0.00  0.00    -0.295 NA
ATOM      5  C   UNL     1      -3.430   4.027   7.161  0.00  0.00    +0.067 C 
ATOM      6  C   UNL     1      -3.624   3.005   6.039  0.00  0.00    -0.063 C 
ATOM      7  H   UNL     1      -3.068   4.382   4.568  0.00  0.00    -0.082 HD
ENDROOT
BRANCH   1   8
ATOM      8  C   UNL     1      -2.994   2.456   3.766  0.00  0.00    -0.063 C 
BRANCH   8  23
ATOM      9  C   UNL     1       0.241   7.555   3.151  0.00  0.00    +0.012 C 
ATOM     10  C   UNL     1      -1.208   7.585   2.749  0.00  0.00    +0.012 C 
ATOM     11  C   UNL     1      -1.444   8.818   1.770  0.00  0.00    +0.007 C 
ATOM     12  C   UNL     1      -1.023   8.545   0.316  0.00  0.00    +0.001 C 
ATOM     13  C   UNL     1      -1.698   7.313  -0.223  0.00  0.00    +0.011 C 
ATOM     14  C   UNL     1      -1.445   6.097   0.567  0.00  0.00    -0.007 C 
ATOM     15  C   UNL     1      -1.748   6.320   2.057  0.00  0.00    -0.064 C 
ATOM     16  C   UNL     1      -2.394   5.566   2.722  0.00  0.00    -0.019 C 
ATOM     17  C   UNL     1      -3.206   4.335   2.235  0.00  0.00    +0.064 C 
ATOM     18  C   UNL     1      -3.283   4.341   0.719  0.00  0.00    +0.185 C 
ATOM     19  C   UNL     1      -1.996   4.785   0.097  0.00  0.00    +0.056 C 
ATOM     20  O   UNL     1      -3.467   2.941   0.331  0.00  0.00    -0.461 OA
ATOM     21  C   UNL     1      -2.973   2.205   1.354  0.00  0.00    +0.309 C 
ATOM     22  O   UNL     1      -2.825   0.933   1.274  0.00  0.00    -0.251 OA
ATOM     23  C   UNL     1      -2.440   3.060   2.524  0.00  0.00    +0.092 C 
ATOM     24  C   UNL     1       0.135   5.886   0.433  0.00  0.00    +0.016 C 
ENDBRANCH   8  23
ENDBRANCH   1   8
BRANCH   4  25
ATOM     25  C   UNL     1      -1.797   4.979   8.675  0.00  0.00    +0.117 C 
BRANCH  25  26
ATOM     26  C   UNL     1      -0.328   5.034   9.004  0.00  0.00    -0.026 A 
ATOM     27  C   UNL     1       0.405   3.865   9.091  0.00  0.00    +0.007 A 
ATOM     28  C   UNL     1       1.754   3.915   9.387  0.00  0.00    +0.020 A 
ATOM     29  C   UNL     1       2.369   5.135   9.608  0.00  0.00    +0.041 A 
ATOM     30  C   UNL     1       1.634   6.304   9.527  0.00  0.00    +0.020 A 
ATOM     31  C   UNL     1       0.286   6.253   9.225  0.00  0.00    +0.007 A 
ATOM     32 CL   UNL     1       4.062   5.198   9.986  0.00  0.00    -0.084 Cl
ENDBRANCH  25  26
BRANCH  25  33
ATOM     33  C   UNL     1      -2.563   4.486   9.876  0.00  0.00    -0.026 A 
ATOM     34  C   UNL     1      -2.527   3.147  10.216  0.00  0.00    +0.005 A 
ATOM     35  C   UNL     1      -3.224   2.695  11.320  0.00  0.00    +0.000 A 
ATOM     36  C   UNL     1      -3.968   3.580  12.078  0.00  0.00    +0.000 A 
ATOM     37  C   UNL     1      -4.008   4.919  11.735  0.00  0.00    +0.000 A 
ATOM     38  C   UNL     1      -3.305   5.372  10.634  0.00  0.00    +0.005 A 
ENDBRANCH  25  33
ENDBRANCH   4  25
TORSDOF 5
