REMARK  Name = ZINC00176954
REMARK  6 active torsions:
REMARK  status: ('A' for Active; 'I' for Inactive)
REMARK    1  A    between atoms: C_1  and  C_2
REMARK    2  A    between atoms: C_5  and  N_8
REMARK    3  A    between atoms: C_9  and  C_17
REMARK    4  A    between atoms: C_11  and  C_14
REMARK    5  A    between atoms: C_12  and  C_13
REMARK    6  A    between atoms: N_15  and  O_16
REMARK                            x       y       z     vdW  Elec       q    Type
REMARK                         _______ _______ _______ _____ _____    ______ ____
ROOT
ATOM      1  N   UNL     1       0.059  -4.172  -0.021  0.00  0.00    -0.317 N 
ATOM      2  C   UNL     1      -0.944  -4.966  -0.498  0.00  0.00    +0.022 A 
ATOM      3  C   UNL     1      -0.588  -6.255  -0.348  0.00  0.00    +0.032 A 
ATOM      4  C   UNL     1       0.741  -6.252   0.272  0.00  0.00    +0.017 A 
ATOM      5  C   UNL     1       1.081  -4.940   0.440  0.00  0.00    +0.030 A 
ATOM      6  C   UNL     1       2.368  -4.431   1.037  0.00  0.00    +0.064 C 
ATOM      7  C   UNL     1      -2.239  -4.479  -1.096  0.00  0.00    +0.064 C 
ENDROOT
BRANCH   1  12
ATOM      8  C   UNL     1      -0.018   1.503   0.010  0.00  0.00    +0.044 C 
ATOM      9  C   UNL     1       0.002  -0.004   0.002  0.00  0.00    -0.050 A 
ATOM     10  C   UNL     1       0.006  -0.688  -1.200  0.00  0.00    +0.005 A 
ATOM     11  C   UNL     1       0.025  -2.068  -1.211  0.00  0.00    +0.026 A 
ATOM     12  C   UNL     1       0.041  -2.771  -0.013  0.00  0.00    +0.047 A 
ATOM     13  C   UNL     1       0.037  -2.082   1.192  0.00  0.00    +0.026 A 
ATOM     14  C   UNL     1       0.023  -0.700   1.196  0.00  0.00    +0.005 A 
ENDBRANCH   1  12
BRANCH   4  15
ATOM     15  C   UNL     1       1.549  -7.429   0.636  0.00  0.00    +0.162 C 
ATOM     16  N   UNL     1       2.713  -7.271   1.181  0.00  0.00    -0.095 NA
BRANCH  16  17
ATOM     17  O   UNL     1       3.490  -8.402   1.531  0.00  0.00    -0.409 OA
ATOM     18  H   UNL     1       4.343  -8.185   1.932  0.00  0.00    +0.328 HD
ENDBRANCH  16  17
ENDBRANCH   4  15
TORSDOF 3
