REMARK  Name = ZINC59121333
REMARK  8 active torsions:
REMARK  status: ('A' for Active; 'I' for Inactive)
REMARK    1  A    between atoms: C_3  and  N_25
REMARK    2  A    between atoms: C_5  and  O_7
REMARK    3  A    between atoms: O_7  and  C_8
REMARK    4  A    between atoms: C_8  and  C_9
REMARK    5  A    between atoms: C_9  and  S_10
REMARK    6  A    between atoms: S_10  and  C_11
REMARK    7  A    between atoms: C_14  and  C_17
REMARK    8  A    between atoms: N_15  and  N_16
REMARK                            x       y       z     vdW  Elec       q    Type
REMARK                         _______ _______ _______ _____ _____    ______ ____
ROOT
ATOM      1  C   UNL     1      -0.977  -6.782   0.051  0.00  0.00    +0.209 A 
ATOM      2  N   UNL     1       0.226  -7.283  -0.121  0.00  0.00    -0.121 NA
ATOM      3  N   UNL     1       0.166  -8.565  -0.179  0.00  0.00    -0.127 NA
ATOM      4  C   UNL     1      -1.079  -8.962  -0.047  0.00  0.00    +0.183 A 
ATOM      5  N   UNL     1      -1.848  -7.832   0.110  0.00  0.00    -0.224 N 
ENDROOT
BRANCH   4   6
ATOM      6  C   UNL     1      -1.561 -10.359  -0.059  0.00  0.00    +0.039 A 
ATOM      7  C   UNL     1      -2.664 -10.713  -0.838  0.00  0.00    +0.014 A 
ATOM      8  C   UNL     1      -3.110 -12.018  -0.845  0.00  0.00    +0.021 A 
ATOM      9  C   UNL     1      -2.466 -12.977  -0.082  0.00  0.00    +0.042 A 
ATOM     10  C   UNL     1      -1.371 -12.634   0.693  0.00  0.00    +0.040 A 
ATOM     11  C   UNL     1      -0.912 -11.332   0.705  0.00  0.00    +0.053 A 
ATOM     12 CL   UNL     1       0.465 -10.903   1.671  0.00  0.00    -0.083 Cl
ATOM     13 CL   UNL     1      -3.033 -14.618  -0.096  0.00  0.00    -0.083 Cl
ENDBRANCH   4   6
BRANCH   5  14
ATOM     14  N   UNL     1      -3.202  -7.773   0.285  0.00  0.00    -0.295 N 
ATOM     15  H   UNL     1      -3.683  -7.797  -0.602  0.00  0.00    +0.163 HD
ATOM     16  H   UNL     1      -3.521  -8.515   0.890  0.00  0.00    +0.163 HD
ENDBRANCH   5  14
BRANCH   1  17
ATOM     17  S   UNL     1      -1.388  -5.074   0.187  0.00  0.00    -0.081 S 
BRANCH  17  18
ATOM     18  C   UNL     1       0.206  -4.224   0.026  0.00  0.00    +0.118 C 
BRANCH  18  19
ATOM     19  C   UNL     1      -0.008  -2.713   0.127  0.00  0.00    +0.240 C 
BRANCH  19  20
ATOM     20  O   UNL     1       1.248  -2.043   0.000  0.00  0.00    -0.491 OA
BRANCH  20  25
ATOM     21  C   UNL     1       0.023   1.367   0.323  0.00  0.00    +0.006 A 
ATOM     22  C   UNL     1       1.204   2.076   0.207  0.00  0.00    +0.033 A 
ATOM     23  C   UNL     1       2.400   1.407   0.023  0.00  0.00    +0.130 A 
ATOM     24  C   UNL     1       2.417   0.028  -0.047  0.00  0.00    +0.078 A 
ATOM     25  C   UNL     1       1.234  -0.686   0.069  0.00  0.00    +0.123 A 
ATOM     26  C   UNL     1       0.035  -0.012   0.254  0.00  0.00    +0.046 A 
BRANCH  23  27
ATOM     27  N   UNL     1       3.663   2.170  -0.101  0.00  0.00    +0.057 N 
ATOM     28  O   UNL     1       3.648   3.377  -0.040  0.00  0.00    -0.126 OA
ATOM     29  O   UNL     1       4.708   1.585  -0.262  0.00  0.00    -0.126 OA
ENDBRANCH  23  27
ENDBRANCH  20  25
ENDBRANCH  19  20
ENDBRANCH  18  19
ENDBRANCH  17  18
ENDBRANCH   1  17
TORSDOF 8
