REMARK  Name = ZINC40691041
REMARK  10 active torsions:
REMARK  status: ('A' for Active; 'I' for Inactive)
REMARK    1  A    between atoms: C_1  and  C_2
REMARK    2  A    between atoms: C_7  and  C_9
REMARK    3  A    between atoms: C_7  and  C_10
REMARK    4  A    between atoms: N_11  and  C_13
REMARK    5  A    between atoms: C_13  and  C_14
REMARK    6  A    between atoms: C_15  and  C_24
REMARK    7  A    between atoms: C_20  and  N_23
REMARK    8  A    between atoms: C_24  and  C_25
REMARK    9  A    between atoms: C_25  and  O_27
REMARK   10  A    between atoms: O_27  and  C_28
REMARK                            x       y       z     vdW  Elec       q    Type
REMARK                         _______ _______ _______ _____ _____    ______ ____
ROOT
ATOM      1  C   UNL     1      -3.653  -3.399  -1.380  0.00  0.00    +0.030 A 
ATOM      2  C   UNL     1      -4.369  -3.699  -2.487  0.00  0.00    +0.072 A 
ATOM      3  N   UNL     1      -5.654  -3.428  -2.249  0.00  0.00    -0.232 NA
ATOM      4  C   UNL     1      -5.779  -2.962  -1.013  0.00  0.00    +0.138 A 
ATOM      5  N   UNL     1      -4.535  -2.938  -0.441  0.00  0.00    -0.303 N 
ATOM      6  C   UNL     1      -4.371  -2.502   0.844  0.00  0.00    +0.115 A 
ATOM      7  C   UNL     1      -5.437  -2.090   1.573  0.00  0.00    +0.041 A 
ATOM      8  C   UNL     1      -6.729  -2.108   1.009  0.00  0.00    +0.028 A 
ATOM      9  C   UNL     1      -6.898  -2.532  -0.272  0.00  0.00    +0.048 A 
ENDROOT
BRANCH   7  10
ATOM     10  N   UNL     1      -5.255  -1.647   2.889  0.00  0.00    -0.357 N 
ATOM     11  H   UNL     1      -4.367  -1.634   3.279  0.00  0.00    +0.142 HD
ATOM     12  H   UNL     1      -6.018  -1.351   3.412  0.00  0.00    +0.142 HD
ENDBRANCH   7  10
BRANCH   1  13
ATOM     13  C   UNL     1      -2.164  -3.550  -1.210  0.00  0.00    -0.022 C 
BRANCH  13  23
ATOM     14  C   UNL     1      -0.694   1.139  -1.112  0.00  0.00    +0.009 C 
ATOM     15  C   UNL     1      -0.495  -0.363  -0.862  0.00  0.00    -0.048 C 
ATOM     16  C   UNL     1       0.439  -1.019  -1.915  0.00  0.00    -0.011 C 
ATOM     17  C   UNL     1      -0.019  -2.498  -1.772  0.00  0.00    -0.067 C 
ATOM     18  C   UNL     1       0.532  -3.029  -0.464  0.00  0.00    -0.009 C 
ATOM     19  C   UNL     1       0.448  -2.118   0.742  0.00  0.00    -0.036 C 
ATOM     20  C   UNL     1       0.119  -0.658   0.507  0.00  0.00    +0.011 C 
ATOM     21  C   UNL     1       1.831  -2.163   1.444  0.00  0.00    +0.011 C 
ATOM     22  C   UNL     1      -0.557  -2.703   1.753  0.00  0.00    +0.011 C 
ATOM     23  N   UNL     1      -1.491  -2.378  -1.756  0.00  0.00    +0.386 N 
ATOM     24  C   UNL     1      -1.814  -1.159  -0.990  0.00  0.00    -0.071 C 
ATOM     25  H   UNL     1      -1.810  -2.237  -2.717  0.00  0.00    -0.081 HD
ENDBRANCH  13  23
ENDBRANCH   1  13
BRANCH   2  26
ATOM     26  C   UNL     1      -3.809  -4.246  -3.775  0.00  0.00    +0.177 C 
BRANCH  26  27
ATOM     27  C   UNL     1      -3.929  -5.748  -3.776  0.00  0.00    +0.313 C 
ATOM     28  O   UNL     1      -4.505  -6.309  -2.874  0.00  0.00    -0.250 OA
BRANCH  27  29
ATOM     29  O   UNL     1      -3.395  -6.463  -4.778  0.00  0.00    -0.468 OA
ATOM     30  C   UNL     1      -3.639  -7.871  -4.773  0.00  0.00    +0.280 C 
ENDBRANCH  27  29
ENDBRANCH  26  27
ENDBRANCH   2  26
TORSDOF 6
