REMARK  Name = ZINC09449636
REMARK  7 active torsions:
REMARK  status: ('A' for Active; 'I' for Inactive)
REMARK    1  A    between atoms: C_1  and  C_2
REMARK    2  A    between atoms: C_2  and  C_30
REMARK    3  A    between atoms: C_6  and  N_23
REMARK    4  A    between atoms: C_9  and  N_22
REMARK    5  A    between atoms: C_10  and  C_12
REMARK    6  A    between atoms: N_14  and  C_15
REMARK    7  A    between atoms: C_15  and  C_16
REMARK                            x       y       z     vdW  Elec       q    Type
REMARK                         _______ _______ _______ _____ _____    ______ ____
ROOT
ATOM      1  C   UNL     1       0.382   3.704  -0.804  0.00  0.00    +0.041 C 
ATOM      2  C   UNL     1      -0.921   2.974  -1.137  0.00  0.00    +0.068 C 
ATOM      3  C   UNL     1      -1.972   3.281  -0.068  0.00  0.00    +0.070 C 
ATOM      4  C   UNL     1      -1.607   2.586   1.217  0.00  0.00    -0.025 A 
ATOM      5  C   UNL     1      -0.708   1.572   1.254  0.00  0.00    +0.020 A 
ATOM      6  C   UNL     1      -0.402   0.951   2.475  0.00  0.00    +0.105 A 
ATOM      7  C   UNL     1      -1.867   2.324   3.596  0.00  0.00    +0.089 A 
ATOM      8  C   UNL     1      -2.235   3.011   2.418  0.00  0.00    +0.031 A 
ATOM      9  C   UNL     1      -3.217   4.068   2.600  0.00  0.00    +0.054 A 
ATOM     10  C   UNL     1      -3.694   4.306   3.872  0.00  0.00    +0.097 A 
ATOM     11  S   UNL     1      -2.830   3.106   4.867  0.00  0.00    -0.064 S 
ATOM     12  C   UNL     1      -0.007   1.091   0.009  0.00  0.00    +0.199 C 
ATOM     13  O   UNL     1      -0.691   1.560  -1.152  0.00  0.00    -0.369 OA
ATOM     14  C   UNL     1      -1.431   3.428  -2.506  0.00  0.00    +0.041 C 
ATOM     15  N   UNL     1      -0.972   1.309   3.659  0.00  0.00    -0.337 N 
ATOM     16  H   UNL     1      -0.739   0.840   4.543  0.00  0.00    +0.168 HD
ENDROOT
BRANCH   6  17
ATOM     17  N   UNL     1       0.519  -0.085   2.509  0.00  0.00    -0.316 N 
ATOM     18  C   UNL     1       1.862   0.383   2.082  0.00  0.00    +0.106 C 
ATOM     19  C   UNL     1       2.814  -0.690   2.669  0.00  0.00    +0.020 C 
ATOM     20  C   UNL     1       2.162  -1.023   4.030  0.00  0.00    +0.020 C 
ATOM     21  C   UNL     1       0.689  -0.598   3.885  0.00  0.00    +0.106 C 
ENDBRANCH   6  17
BRANCH  10  22
ATOM     22  C   UNL     1      -4.643   5.270   4.287  0.00  0.00    +0.253 C 
ATOM     23  O   UNL     1      -5.145   6.022   3.470  0.00  0.00    -0.270 OA
ATOM     24  N   UNL     1      -4.991   5.357   5.586  0.00  0.00    -0.308 N 
ATOM     25  H   UNL     1      -4.591   4.758   6.237  0.00  0.00    +0.149 HD
BRANCH  24  26
ATOM     26  C   UNL     1      -5.973   6.355   6.016  0.00  0.00    +0.136 C 
BRANCH  26  27
ATOM     27  C   UNL     1      -6.187   6.243   7.527  0.00  0.00    +0.135 C 
ATOM     28  C   UNL     1      -7.219   7.289   7.989  0.00  0.00    +0.035 C 
ATOM     29  C   UNL     1      -8.344   6.450   8.644  0.00  0.00    +0.031 C 
ATOM     30  C   UNL     1      -7.610   5.125   8.972  0.00  0.00    +0.160 C 
ATOM     31  O   UNL     1      -6.719   4.947   7.850  0.00  0.00    -0.375 OA
ENDBRANCH  26  27
ENDBRANCH  24  26
ENDBRANCH  10  22
BRANCH   9  32
ATOM     32  N   UNL     1      -3.662   4.819   1.522  0.00  0.00    -0.356 N 
ATOM     33  H   UNL     1      -3.627   4.449   0.626  0.00  0.00    +0.142 HD
ATOM     34  H   UNL     1      -4.008   5.714   1.664  0.00  0.00    +0.142 HD
ENDBRANCH   9  32
TORSDOF 5
