REMARK  Name = ZINC10108579
REMARK  12 active torsions:
REMARK  status: ('A' for Active; 'I' for Inactive)
REMARK    1  A    between atoms: C_1  and  C_2
REMARK    2  A    between atoms: N_9  and  C_10
REMARK    3  A    between atoms: C_15  and  O_16
REMARK    4  A    between atoms: O_16  and  C_17
REMARK    5  A    between atoms: N_18  and  C_38
REMARK    6  A    between atoms: N_21  and  C_24
REMARK    7  A    between atoms: C_24  and  C_25
REMARK    8  A    between atoms: C_25  and  C_27
REMARK    9  A    between atoms: C_25  and  C_28
REMARK   10  A    between atoms: C_28  and  N_72
REMARK   11  A    between atoms: C_30  and  C_37
REMARK   12  A    between atoms: C_33  and  C_36
REMARK                            x       y       z     vdW  Elec       q    Type
REMARK                         _______ _______ _______ _____ _____    ______ ____
ROOT
ATOM      1  C   UNL     1      -1.368  -1.700   2.607  0.00  0.00    +0.065 C 
ATOM      2  C   UNL     1      -2.058  -0.756   3.557  0.00  0.00    +0.041 A 
ATOM      3  C   UNL     1      -3.208  -0.127   3.334  0.00  0.00    +0.116 A 
ATOM      4  N   UNL     1      -3.507   0.644   4.444  0.00  0.00    -0.277 N 
ATOM      5  C   UNL     1      -4.422   1.525   4.999  0.00  0.00    +0.157 A 
ATOM      6  C   UNL     1      -3.924   1.869   6.255  0.00  0.00    +0.170 A 
ATOM      7  N   UNL     1      -2.775   1.218   6.421  0.00  0.00    -0.193 NA
ATOM      8  C   UNL     1      -2.513   0.484   5.349  0.00  0.00    +0.223 A 
ATOM      9  N   UNL     1      -1.601  -0.388   4.810  0.00  0.00    -0.279 N 
ATOM     10  N   UNL     1      -4.649   2.750   7.043  0.00  0.00    -0.279 N 
ATOM     11  C   UNL     1      -5.811   3.257   6.590  0.00  0.00    +0.333 A 
ATOM     12  O   UNL     1      -6.435   4.028   7.294  0.00  0.00    -0.246 OA
ATOM     13  N   UNL     1      -6.300   2.932   5.381  0.00  0.00    -0.259 N 
ATOM     14  C   UNL     1      -5.639   2.080   4.570  0.00  0.00    +0.283 A 
ATOM     15  O   UNL     1      -6.094   1.794   3.476  0.00  0.00    -0.265 OA
ATOM     16  C   UNL     1      -4.151   3.129   8.367  0.00  0.00    +0.155 C 
ENDROOT
BRANCH   9  17
ATOM     17  C   UNL     1      -0.417  -0.827   5.420  0.00  0.00    +0.091 A 
ATOM     18  C   UNL     1       0.763  -0.122   5.235  0.00  0.00    +0.030 A 
ATOM     19  C   UNL     1       1.928  -0.557   5.837  0.00  0.00    +0.002 A 
ATOM     20  C   UNL     1       1.921  -1.694   6.625  0.00  0.00    +0.004 A 
ATOM     21  C   UNL     1       0.749  -2.401   6.813  0.00  0.00    +0.048 A 
ATOM     22  C   UNL     1      -0.425  -1.969   6.217  0.00  0.00    +0.144 A 
BRANCH  22  23
ATOM     23  O   UNL     1      -1.580  -2.661   6.406  0.00  0.00    -0.493 OA
ATOM     24  C   UNL     1      -1.513  -3.822   7.236  0.00  0.00    +0.277 C 
ENDBRANCH  22  23
ENDBRANCH   9  17
BRANCH  13  25
ATOM     25  C   UNL     1      -7.569   3.512   4.936  0.00  0.00    +0.131 C 
BRANCH  25  26
ATOM     26  C   UNL     1      -7.298   4.823   4.196  0.00  0.00    -0.011 C 
ATOM     27  C   UNL     1      -6.705   5.845   5.168  0.00  0.00    +0.007 C 
BRANCH  26  28
ATOM     28  C   UNL     1      -8.610   5.366   3.624  0.00  0.00    -0.074 C 
BRANCH  28  36
ATOM     29  C   UNL     1      -8.288   4.506   1.384  0.00  0.00    -0.076 C 
ATOM     30  C   UNL     1      -8.752   3.434   0.395  0.00  0.00    -0.031 C 
ATOM     31  C   UNL     1     -10.223   3.672   0.045  0.00  0.00    +0.003 C 
ATOM     32  C   UNL     1     -11.055   3.652   1.330  0.00  0.00    -0.031 C 
ATOM     33  C   UNL     1     -10.525   4.717   2.292  0.00  0.00    -0.076 C 
ATOM     34  C   UNL     1     -12.519   3.948   0.996  0.00  0.00    +0.005 C 
ATOM     35  C   UNL     1      -8.595   2.051   1.029  0.00  0.00    +0.005 C 
ATOM     36  N   UNL     1      -9.112   4.417   2.608  0.00  0.00    +0.380 N 
ATOM     37  H   UNL     1      -9.049   3.463   2.983  0.00  0.00    -0.082 HD
ENDBRANCH  28  36
ENDBRANCH  26  28
ENDBRANCH  25  26
ENDBRANCH  13  25
TORSDOF 6
