REMARK  Name = ZINC20237674
REMARK  13 active torsions:
REMARK  status: ('A' for Active; 'I' for Inactive)
REMARK    1  A    between atoms: C_1  and  C_2
REMARK    2  A    between atoms: C_2  and  C_3
REMARK    3  A    between atoms: C_3  and  C_5
REMARK    4  A    between atoms: C_3  and  S_16
REMARK    5  A    between atoms: N_7  and  C_8
REMARK    6  A    between atoms: C_8  and  C_9
REMARK    7  A    between atoms: C_12  and  C_15
REMARK    8  A    between atoms: S_16  and  C_17
REMARK    9  A    between atoms: C_21  and  C_28
REMARK   10  A    between atoms: C_22  and  C_24
REMARK   11  A    between atoms: C_24  and  O_26
REMARK   12  A    between atoms: O_26  and  C_27
REMARK   13  A    between atoms: N_31  and  N_32
REMARK                            x       y       z     vdW  Elec       q    Type
REMARK                         _______ _______ _______ _____ _____    ______ ____
ROOT
ATOM      1  C   UNL     1       1.937   0.709  -2.344  0.00  0.00    +0.190 A 
ATOM      2  N   UNL     1       0.783   1.260  -2.664  0.00  0.00    -0.215 NA
ATOM      3  C   UNL     1       0.225   1.057  -3.846  0.00  0.00    +0.117 A 
ATOM      4  C   UNL     1       0.830   0.240  -4.832  0.00  0.00    +0.077 A 
ATOM      5  C   UNL     1       0.128   0.116  -6.032  0.00  0.00    -0.015 A 
ATOM      6  C   UNL     1      -1.064   0.762  -6.192  0.00  0.00    +0.102 A 
ATOM      7  S   UNL     1      -1.271   1.602  -4.631  0.00  0.00    -0.062 S 
ATOM      8  C   UNL     1       0.684  -0.731  -7.148  0.00  0.00    +0.046 C 
ATOM      9  C   UNL     1       2.123  -0.363  -4.441  0.00  0.00    +0.280 A 
ATOM     10  O   UNL     1       2.733  -1.084  -5.211  0.00  0.00    -0.265 OA
ATOM     11  N   UNL     1       2.613  -0.093  -3.216  0.00  0.00    -0.209 N 
ENDROOT
BRANCH  11  12
ATOM     12  N   UNL     1       3.808  -0.636  -2.837  0.00  0.00    -0.293 N 
ATOM     13  H   UNL     1       4.362  -1.284  -3.532  0.00  0.00    +0.163 HD
ATOM     14  H   UNL     1       4.215  -0.425  -1.837  0.00  0.00    +0.163 HD
ENDBRANCH  11  12
BRANCH   6  15
ATOM     15  C   UNL     1      -1.950   0.767  -7.356  0.00  0.00    +0.346 C 
ATOM     16  O   UNL     1      -1.652   0.132  -8.350  0.00  0.00    -0.244 OA
BRANCH  15  17
ATOM     17  O   UNL     1      -3.098   1.475  -7.327  0.00  0.00    -0.464 OA
ATOM     18  C   UNL     1      -3.916   1.433  -8.498  0.00  0.00    +0.280 C 
ENDBRANCH  15  17
ENDBRANCH   6  15
BRANCH   1  19
ATOM     19  S   UNL     1       2.625   1.021  -0.752  0.00  0.00    -0.073 S 
BRANCH  19  20
ATOM     20  C   UNL     1       1.277   1.972  -0.008  0.00  0.00    +0.140 C 
BRANCH  20  21
ATOM     21  C   UNL     1       0.082   1.077   0.193  0.00  0.00    +0.227 C 
ATOM     22  O   UNL     1       0.234  -0.121   0.307  0.00  0.00    -0.275 OA
ATOM     23  N   UNL     1      -1.157   1.607   0.239  0.00  0.00    -0.310 N 
ATOM     24  H   UNL     1      -1.294   2.693   0.135  0.00  0.00    +0.149 HD
BRANCH  23  25
ATOM     25  C   UNL     1      -2.319   0.736   0.427  0.00  0.00    +0.139 C 
BRANCH  25  26
ATOM     26  C   UNL     1      -3.575   1.569   0.443  0.00  0.00    -0.030 A 
ATOM     27  C   UNL     1      -4.055   2.073   1.637  0.00  0.00    +0.005 A 
ATOM     28  C   UNL     1      -5.204   2.842   1.651  0.00  0.00    +0.003 A 
ATOM     29  C   UNL     1      -5.878   3.099   0.471  0.00  0.00    -0.050 A 
ATOM     30  C   UNL     1      -5.400   2.591  -0.722  0.00  0.00    +0.003 A 
ATOM     31  C   UNL     1      -4.248   1.826  -0.737  0.00  0.00    +0.005 A 
ATOM     32  C   UNL     1      -7.133   3.933   0.487  0.00  0.00    +0.044 C 
ENDBRANCH  25  26
ENDBRANCH  23  25
ENDBRANCH  20  21
BRANCH  20  34
ATOM     33  C   UNL     1       2.848   3.550   1.126  0.00  0.00    +0.005 C 
ATOM     34  C   UNL     1       1.731   2.527   1.344  0.00  0.00    +0.020 C 
ENDBRANCH  20  34
ENDBRANCH  19  20
ENDBRANCH   1  19
TORSDOF 9
