REMARK  Name = ZINC19297738
REMARK  10 active torsions:
REMARK  status: ('A' for Active; 'I' for Inactive)
REMARK    1  A    between atoms: C_1  and  C_2
REMARK    2  A    between atoms: C_2  and  C_3
REMARK    3  A    between atoms: C_2  and  C_4
REMARK    4  A    between atoms: C_2  and  C_5
REMARK    5  A    between atoms: C_12  and  C_14
REMARK    6  A    between atoms: C_17  and  S_22
REMARK    7  A    between atoms: N_18  and  C_19
REMARK    8  A    between atoms: C_19  and  C_20
REMARK    9  A    between atoms: S_22  and  C_23
REMARK   10  A    between atoms: C_23  and  C_24
REMARK                            x       y       z     vdW  Elec       q    Type
REMARK                         _______ _______ _______ _____ _____    ______ ____
ROOT
ATOM      1  C   UNL     1       1.836  -1.236  -3.223  0.00  0.00    +0.172 A 
ATOM      2  N   UNL     1       1.888   0.073  -3.341  0.00  0.00    -0.128 NA
ATOM      3  N   UNL     1       1.310   0.627  -2.336  0.00  0.00    -0.122 NA
ATOM      4  C   UNL     1       0.859  -0.290  -1.510  0.00  0.00    +0.193 A 
ATOM      5  N   UNL     1       1.175  -1.508  -2.046  0.00  0.00    -0.298 N 
ENDROOT
BRANCH   1  12
ATOM      6  C   UNL     1       3.778  -4.402  -8.258  0.00  0.00    -0.001 C 
ATOM      7  C   UNL     1       4.585  -5.360  -7.378  0.00  0.00    +0.009 C 
ATOM      8  C   UNL     1       3.793  -5.633  -6.090  0.00  0.00    +0.043 C 
ATOM      9  C   UNL     1       3.317  -4.325  -5.546  0.00  0.00    -0.006 A 
ATOM     10  C   UNL     1       3.280  -3.122  -6.188  0.00  0.00    -0.036 A 
ATOM     11  C   UNL     1       2.787  -2.043  -5.465  0.00  0.00    +0.023 A 
ATOM     12  C   UNL     1       2.380  -2.222  -4.170  0.00  0.00    +0.057 A 
ATOM     13  S   UNL     1       2.676  -3.968  -3.932  0.00  0.00    -0.090 S 
ATOM     14  C   UNL     1       3.758  -3.007  -7.633  0.00  0.00    +0.040 C 
BRANCH   6  16
ATOM     15  C   UNL     1       5.849  -3.803  -9.521  0.00  0.00    +0.011 C 
ATOM     16  C   UNL     1       4.417  -4.327  -9.646  0.00  0.00    -0.035 C 
ATOM     17  C   UNL     1       4.438  -5.723 -10.274  0.00  0.00    +0.011 C 
ATOM     18  C   UNL     1       3.603  -3.382 -10.532  0.00  0.00    +0.011 C 
ENDBRANCH   6  16
ENDBRANCH   1  12
BRANCH   5  19
ATOM     19  C   UNL     1       0.872  -2.827  -1.485  0.00  0.00    +0.152 C 
BRANCH  19  20
ATOM     20  C   UNL     1      -0.469  -3.293  -1.990  0.00  0.00    -0.013 C 
ATOM     21  C   UNL     1      -0.576  -4.449  -2.595  0.00  0.00    +0.005 C 
ENDBRANCH  19  20
ENDBRANCH   5  19
BRANCH   4  22
ATOM     22  S   UNL     1       0.002  -0.004   0.002  0.00  0.00    -0.078 S 
BRANCH  22  23
ATOM     23  C   UNL     1      -0.022   1.806   0.012  0.00  0.00    +0.153 C 
BRANCH  23  24
ATOM     24  C   UNL     1      -0.728   2.292   1.252  0.00  0.00    +0.146 A 
ATOM     25  N   UNL     1      -2.033   2.499   1.229  0.00  0.00    -0.199 NA
ATOM     26  C   UNL     1      -2.660   2.924   2.324  0.00  0.00    +0.217 A 
ATOM     27  N   UNL     1      -1.971   3.149   3.437  0.00  0.00    -0.181 NA
ATOM     28  C   UNL     1      -0.658   2.944   3.454  0.00  0.00    +0.217 A 
ATOM     29  N   UNL     1      -0.039   2.515   2.357  0.00  0.00    -0.199 NA
ATOM     30  N   UNL     1       0.062   3.177   4.608  0.00  0.00    -0.327 N 
ATOM     31  N   UNL     1      -4.024   3.135   2.300  0.00  0.00    -0.327 N 
ATOM     32  H   UNL     1       1.149   3.008   4.622  0.00  0.00    +0.145 HD
ATOM     33  H   UNL     1      -0.451   3.533   5.514  0.00  0.00    +0.145 HD
ATOM     34  H   UNL     1      -4.541   3.486   3.205  0.00  0.00    +0.145 HD
ATOM     35  H   UNL     1      -4.593   2.952   1.377  0.00  0.00    +0.145 HD
ENDBRANCH  23  24
ENDBRANCH  22  23
ENDBRANCH   4  22
TORSDOF 7
