REMARK  Name = ZINC19225333
REMARK  7 active torsions:
REMARK  status: ('A' for Active; 'I' for Inactive)
REMARK    1  A    between atoms: C_1  and  C_2
REMARK    2  A    between atoms: C_2  and  O_3
REMARK    3  A    between atoms: O_3  and  C_4
REMARK    4  A    between atoms: C_9  and  N_12
REMARK    5  A    between atoms: C_13  and  C_15
REMARK    6  A    between atoms: C_15  and  C_16
REMARK    7  A    between atoms: N_23  and  C_24
REMARK                            x       y       z     vdW  Elec       q    Type
REMARK                         _______ _______ _______ _____ _____    ______ ____
ROOT
ATOM      1  C   UNL     1       2.283   1.025   0.111  0.00  0.00    +0.028 C 
ATOM      2  C   UNL     1       2.340   0.182  -1.132  0.00  0.00    +0.200 C 
ATOM      3  O   UNL     1       2.034   0.688  -2.191  0.00  0.00    -0.278 OA
ATOM      4  N   UNL     1       2.713  -1.101  -1.119  0.00  0.00    -0.318 N 
ATOM      5  C   UNL     1       3.065  -1.814   0.106  0.00  0.00    +0.085 C 
ATOM      6  C   UNL     1       3.378  -0.815   1.221  0.00  0.00    -0.058 C 
ATOM      7  N   UNL     1       2.281   0.164   1.301  0.00  0.00    +0.391 N 
ATOM      8  H   UNL     1       2.749  -1.622  -2.088  0.00  0.00    +0.149 HD
ATOM      9  H   UNL     1       1.326  -0.382   1.334  0.00  0.00    -0.080 HD
ENDROOT
BRANCH   7  10
ATOM     10  C   UNL     1       2.377   0.963   2.529  0.00  0.00    -0.059 C 
ATOM     11  C   UNL     1       3.807   1.513   2.716  0.00  0.00    +0.020 C 
ATOM     12  C   UNL     1       4.047   1.487   4.213  0.00  0.00    -0.046 A 
ATOM     13  C   UNL     1       5.000   2.136   4.979  0.00  0.00    +0.004 A 
ATOM     14  C   UNL     1       5.027   1.962   6.349  0.00  0.00    +0.000 A 
ATOM     15  C   UNL     1       4.099   1.138   6.958  0.00  0.00    +0.000 A 
ATOM     16  C   UNL     1       3.147   0.490   6.196  0.00  0.00    +0.004 A 
ATOM     17  C   UNL     1       3.119   0.663   4.822  0.00  0.00    -0.046 A 
ATOM     18  C   UNL     1       2.194   0.075   3.778  0.00  0.00    +0.020 C 
ENDBRANCH   7  10
BRANCH   1  19
ATOM     19  C   UNL     1       1.007   1.870   0.093  0.00  0.00    +0.089 C 
BRANCH  19  21
ATOM     20  N   UNL     1      -1.434   1.491   0.227  0.00  0.00    -0.312 N 
ATOM     21  C   UNL     1      -0.196   0.964   0.140  0.00  0.00    +0.212 C 
ATOM     22  O   UNL     1      -0.052  -0.239   0.093  0.00  0.00    -0.276 OA
ATOM     23  H   UNL     1      -1.565   2.582   0.268  0.00  0.00    +0.149 HD
BRANCH  20  29
ATOM     24  C   UNL     1      -6.526   0.065  -0.827  0.00  0.00    +0.403 C 
ATOM     25  O   UNL     1      -7.399   0.583  -0.158  0.00  0.00    -0.226 OA
ATOM     26  N   UNL     1      -5.284  -0.075  -0.322  0.00  0.00    -0.267 N 
ATOM     27  C   UNL     1      -4.970   0.393   1.035  0.00  0.00    +0.113 C 
ATOM     28  C   UNL     1      -3.760   1.329   0.965  0.00  0.00    +0.041 C 
ATOM     29  C   UNL     1      -2.604   0.610   0.265  0.00  0.00    +0.076 C 
ATOM     30  C   UNL     1      -3.017   0.248  -1.163  0.00  0.00    +0.041 C 
ATOM     31  C   UNL     1      -4.219  -0.700  -1.118  0.00  0.00    +0.113 C 
BRANCH  24  32
ATOM     32  O   UNL     1      -6.800  -0.369  -2.072  0.00  0.00    -0.451 OA
BRANCH  32  34
ATOM     33  C   UNL     1      -8.277  -0.735  -3.973  0.00  0.00    +0.048 C 
ATOM     34  C   UNL     1      -8.158  -0.185  -2.550  0.00  0.00    +0.230 C 
ENDBRANCH  32  34
ENDBRANCH  24  32
ENDBRANCH  20  29
ENDBRANCH  19  21
ENDBRANCH   1  19
TORSDOF 6
