REMARK  Name = ZINC12401353
REMARK  7 active torsions:
REMARK  status: ('A' for Active; 'I' for Inactive)
REMARK    1  A    between atoms: C_1  and  C_2
REMARK    2  A    between atoms: C_2  and  C_3
REMARK    3  A    between atoms: C_2  and  C_4
REMARK    4  A    between atoms: C_4  and  C_5
REMARK    5  A    between atoms: C_7  and  C_25
REMARK    6  A    between atoms: C_7  and  C_29
REMARK    7  A    between atoms: N_15  and  C_18
REMARK                            x       y       z     vdW  Elec       q    Type
REMARK                         _______ _______ _______ _____ _____    ______ ____
ROOT
ATOM      1  C   UNL     1       0.069  -2.611   1.214  0.00  0.00    +0.097 C 
ATOM      2  N   UNL     1      -1.013  -1.922   1.266  0.00  0.00    -0.244 NA
ATOM      3  C   UNL     1      -1.062  -0.491   0.994  0.00  0.00    +0.285 C 
ATOM      4  C   UNL     1       0.181  -0.030   0.287  0.00  0.00    +0.100 A 
ATOM      5  C   UNL     1       0.213   1.219  -0.357  0.00  0.00    +0.262 A 
ATOM      6  O   UNL     1      -0.774   1.934  -0.359  0.00  0.00    -0.267 OA
ATOM      7  N   UNL     1       1.341   1.616  -0.978  0.00  0.00    -0.274 N 
ATOM      8  H   UNL     1       1.375   2.590  -1.487  0.00  0.00    +0.173 HD
ATOM      9  C   UNL     1       2.434   0.830  -0.984  0.00  0.00    +0.335 A 
ATOM     10  O   UNL     1       3.442   1.211  -1.548  0.00  0.00    -0.246 OA
ATOM     11  N   UNL     1       2.428  -0.370  -0.375  0.00  0.00    -0.250 N 
ATOM     12  C   UNL     1       1.297  -0.814   0.266  0.00  0.00    +0.124 A 
ATOM     13  N   UNL     1       1.274  -2.041   0.886  0.00  0.00    -0.289 N 
ATOM     14  H   UNL     1       2.212  -2.567   1.118  0.00  0.00    +0.155 HD
ENDROOT
BRANCH  11  15
ATOM     15  C   UNL     1       3.579  -1.170  -0.394  0.00  0.00    +0.053 A 
ATOM     16  C   UNL     1       3.765  -2.096  -1.411  0.00  0.00    +0.028 A 
ATOM     17  C   UNL     1       4.902  -2.880  -1.431  0.00  0.00    +0.022 A 
ATOM     18  C   UNL     1       5.851  -2.749  -0.432  0.00  0.00    +0.041 A 
ATOM     19  C   UNL     1       5.666  -1.830   0.585  0.00  0.00    +0.022 A 
ATOM     20  C   UNL     1       4.532  -1.041   0.607  0.00  0.00    +0.028 A 
ATOM     21 CL   UNL     1       7.276  -3.740  -0.456  0.00  0.00    -0.084 Cl
ENDBRANCH  11  15
BRANCH   3  22
ATOM     22  C   UNL     1      -1.198   0.267   2.316  0.00  0.00    +0.428 C 
ATOM     23  F   UNL     1      -1.285   1.639   2.060  0.00  0.00    -0.167 F 
ATOM     24  F   UNL     1      -2.354  -0.158   2.979  0.00  0.00    -0.167 F 
ATOM     25  F   UNL     1      -0.080   0.012   3.117  0.00  0.00    -0.167 F 
ENDBRANCH   3  22
BRANCH   3  26
ATOM     26  C   UNL     1      -2.278  -0.189   0.116  0.00  0.00    +0.428 C 
ATOM     27  F   UNL     1      -2.005  -0.560  -1.204  0.00  0.00    -0.167 F 
ATOM     28  F   UNL     1      -3.382  -0.911   0.584  0.00  0.00    -0.167 F 
ATOM     29  F   UNL     1      -2.561   1.180   0.167  0.00  0.00    -0.167 F 
ENDBRANCH   3  26
BRANCH   1  30
ATOM     30  C   UNL     1       0.015  -4.085   1.522  0.00  0.00    +0.074 C 
BRANCH  30  32
ATOM     31  C   UNL     1      -2.307  -4.295   0.622  0.00  0.00    +0.007 C 
ATOM     32  C   UNL     1      -1.424  -4.483   1.858  0.00  0.00    -0.010 C 
ATOM     33  C   UNL     1      -1.460  -5.950   2.291  0.00  0.00    +0.007 C 
ENDBRANCH  30  32
ENDBRANCH   1  30
TORSDOF 5
