REMARK  Name = ZINC15659119
REMARK  10 active torsions:
REMARK  status: ('A' for Active; 'I' for Inactive)
REMARK    1  A    between atoms: C_1  and  C_2
REMARK    2  A    between atoms: C_4  and  C_23
REMARK    3  A    between atoms: C_7  and  C_14
REMARK    4  A    between atoms: C_9  and  C_13
REMARK    5  A    between atoms: C_17  and  O_22
REMARK    6  A    between atoms: C_18  and  O_20
REMARK    7  A    between atoms: O_20  and  C_21
REMARK    8  A    between atoms: C_26  and  O_31
REMARK    9  A    between atoms: C_27  and  O_29
REMARK   10  A    between atoms: O_29  and  C_30
REMARK                            x       y       z     vdW  Elec       q    Type
REMARK                         _______ _______ _______ _____ _____    ______ ____
ROOT
ATOM      1  C   UNL     1      -0.713   1.559  -0.243  0.00  0.00    +0.017 C 
ATOM      2  C   UNL     1      -0.635   0.031  -0.258  0.00  0.00    +0.074 C 
ATOM      3  C   UNL     1      -2.004  -0.560   0.099  0.00  0.00    +0.094 C 
ATOM      4  N   UNL     1      -2.333  -0.222   1.490  0.00  0.00    -0.301 NA
ATOM      5  C   UNL     1      -1.409  -0.864   2.434  0.00  0.00    +0.094 C 
ATOM      6  C   UNL     1      -0.001  -0.293   2.235  0.00  0.00    +0.074 C 
ATOM      7  C   UNL     1       0.369  -0.440   0.773  0.00  0.00    +0.143 C 
ATOM      8  O   UNL     1       1.428  -0.917   0.441  0.00  0.00    -0.297 OA
ATOM      9  C   UNL     1       0.996  -1.067   3.100  0.00  0.00    +0.017 C 
ATOM     10  H   UNL     1      -2.351   0.777   1.624  0.00  0.00    +0.123 HD
ENDROOT
BRANCH   5  11
ATOM     11  C   UNL     1      -1.390  -2.350   2.187  0.00  0.00    -0.026 A 
ATOM     12  C   UNL     1      -0.830  -2.849   1.026  0.00  0.00    +0.009 A 
ATOM     13  C   UNL     1      -0.809  -4.212   0.794  0.00  0.00    +0.049 A 
ATOM     14  C   UNL     1      -1.351  -5.081   1.728  0.00  0.00    +0.158 A 
ATOM     15  C   UNL     1      -1.914  -4.579   2.897  0.00  0.00    +0.162 A 
ATOM     16  C   UNL     1      -1.927  -3.212   3.125  0.00  0.00    +0.054 A 
BRANCH  15  17
ATOM     17  O   UNL     1      -2.446  -5.428   3.816  0.00  0.00    -0.491 OA
ATOM     18  C   UNL     1      -3.007  -4.842   4.992  0.00  0.00    +0.277 C 
ENDBRANCH  15  17
BRANCH  14  19
ATOM     19  O   UNL     1      -1.332  -6.422   1.501  0.00  0.00    -0.503 OA
ATOM     20  H   UNL     1      -0.542  -6.866   1.838  0.00  0.00    +0.292 HD
ENDBRANCH  14  19
ENDBRANCH   5  11
BRANCH   3  21
ATOM     21  C   UNL     1      -3.053   0.011  -0.819  0.00  0.00    -0.026 A 
ATOM     22  C   UNL     1      -3.567   1.272  -0.579  0.00  0.00    +0.009 A 
ATOM     23  C   UNL     1      -4.530   1.801  -1.419  0.00  0.00    +0.049 A 
ATOM     24  C   UNL     1      -4.981   1.067  -2.504  0.00  0.00    +0.158 A 
ATOM     25  C   UNL     1      -4.464  -0.202  -2.745  0.00  0.00    +0.162 A 
ATOM     26  C   UNL     1      -3.496  -0.724  -1.903  0.00  0.00    +0.054 A 
BRANCH  25  27
ATOM     27  O   UNL     1      -4.904  -0.927  -3.809  0.00  0.00    -0.491 OA
ATOM     28  C   UNL     1      -4.329  -2.221  -3.995  0.00  0.00    +0.277 C 
ENDBRANCH  25  27
BRANCH  24  29
ATOM     29  O   UNL     1      -5.929   1.585  -3.330  0.00  0.00    -0.503 OA
ATOM     30  H   UNL     1      -5.569   2.089  -4.073  0.00  0.00    +0.292 HD
ENDBRANCH  24  29
ENDBRANCH   3  21
TORSDOF 6
