REMARK  Name = ZINC35633393
REMARK  16 active torsions:
REMARK  status: ('A' for Active; 'I' for Inactive)
REMARK    1  A    between atoms: C_1  and  C_2
REMARK    2  A    between atoms: C_2  and  N_3
REMARK    3  A    between atoms: N_3  and  C_4
REMARK    4  A    between atoms: N_3  and  S_6
REMARK    5  A    between atoms: C_4  and  C_5
REMARK    6  A    between atoms: S_6  and  C_9
REMARK    7  A    between atoms: C_12  and  C_15
REMARK    8  A    between atoms: N_19  and  C_20
REMARK    9  A    between atoms: C_23  and  O_26
REMARK   10  A    between atoms: O_26  and  C_27
REMARK   11  A    between atoms: C_27  and  C_28
REMARK   12  A    between atoms: N_29  and  C_30
REMARK   13  A    between atoms: C_30  and  C_31
REMARK   14  A    between atoms: C_31  and  C_32
REMARK   15  A    between atoms: C_32  and  O_33
REMARK   16  A    between atoms: O_33  and  C_34
REMARK                            x       y       z     vdW  Elec       q    Type
REMARK                         _______ _______ _______ _____ _____    ______ ____
ROOT
ATOM      1  C   UNL     1      -4.739   4.194   3.204  0.00  0.00    +0.057 A 
ATOM      2  C   UNL     1      -4.050   5.054   4.011  0.00  0.00    +0.074 A 
ATOM      3  S   UNL     1      -5.395   5.990   4.726  0.00  0.00    -0.062 S 
ATOM      4  C   UNL     1      -6.728   5.148   3.884  0.00  0.00    +0.143 A 
ATOM      5  N   UNL     1      -8.094   5.367   3.968  0.00  0.00    -0.295 N 
ATOM      6  N   UNL     1      -6.067   4.266   3.157  0.00  0.00    -0.322 N 
ATOM      7  H   UNL     1      -8.710   4.769   3.514  0.00  0.00    +0.154 HD
ENDROOT
BRANCH   1  11
ATOM      8  C   UNL     1      -2.661   1.325   0.852  0.00  0.00    +0.106 A 
ATOM      9  C   UNL     1      -3.892   1.008   1.397  0.00  0.00    +0.029 A 
ATOM     10  C   UNL     1      -4.571   1.935   2.161  0.00  0.00    +0.012 A 
ATOM     11  C   UNL     1      -4.014   3.193   2.384  0.00  0.00    -0.001 A 
ATOM     12  C   UNL     1      -2.773   3.507   1.833  0.00  0.00    +0.012 A 
ATOM     13  C   UNL     1      -2.100   2.571   1.074  0.00  0.00    +0.029 A 
BRANCH   8  14
ATOM     14  S   UNL     1      -1.800   0.137  -0.123  0.00  0.00    +0.061 S 
ATOM     15  O   UNL     1      -0.917   0.865  -0.966  0.00  0.00    -0.153 OA
ATOM     16  O   UNL     1      -2.780  -0.755  -0.636  0.00  0.00    -0.153 OA
BRANCH  14  17
ATOM     17  N   UNL     1      -0.849  -0.746   0.907  0.00  0.00    -0.177 NA
BRANCH  17  19
ATOM     18  C   UNL     1      -1.933  -1.624   2.917  0.00  0.00    +0.022 C 
ATOM     19  C   UNL     1      -1.378  -1.961   1.531  0.00  0.00    +0.106 C 
ENDBRANCH  17  19
BRANCH  17  20
ATOM     20  C   UNL     1       0.520  -0.310   1.195  0.00  0.00    +0.106 C 
ATOM     21  C   UNL     1       1.492  -1.036   0.262  0.00  0.00    +0.022 C 
ENDBRANCH  17  20
ENDBRANCH  14  17
ENDBRANCH   8  14
ENDBRANCH   1  11
BRANCH   5  22
ATOM     22  C   UNL     1      -8.586   6.449   4.707  0.00  0.00    +0.033 A 
ATOM     23  C   UNL     1      -7.868   7.636   4.762  0.00  0.00    +0.027 A 
ATOM     24  C   UNL     1      -8.354   8.704   5.491  0.00  0.00    +0.047 A 
ATOM     25  C   UNL     1      -9.559   8.590   6.169  0.00  0.00    +0.121 A 
ATOM     26  C   UNL     1     -10.277   7.404   6.115  0.00  0.00    +0.047 A 
ATOM     27  C   UNL     1      -9.795   6.338   5.381  0.00  0.00    +0.027 A 
BRANCH  25  28
ATOM     28  O   UNL     1     -10.037   9.641   6.886  0.00  0.00    -0.492 OA
BRANCH  28  29
ATOM     29  C   UNL     1     -11.284   9.455   7.559  0.00  0.00    +0.225 C 
ATOM     30  C   UNL     1     -11.656  10.736   8.308  0.00  0.00    +0.048 C 
ENDBRANCH  28  29
ENDBRANCH  25  28
ENDBRANCH   5  22
BRANCH   6  31
ATOM     31  C   UNL     1      -6.808   3.349   2.287  0.00  0.00    +0.126 C 
BRANCH  31  32
ATOM     32  C   UNL     1      -7.371   2.198   3.123  0.00  0.00    +0.050 C 
BRANCH  32  33
ATOM     33  C   UNL     1      -8.011   1.161   2.197  0.00  0.00    +0.161 C 
BRANCH  33  34
ATOM     34  O   UNL     1      -8.537   0.086   2.977  0.00  0.00    -0.383 OA
ATOM     35  C   UNL     1      -9.159  -0.943   2.204  0.00  0.00    +0.193 C 
ENDBRANCH  33  34
ENDBRANCH  32  33
ENDBRANCH  31  32
ENDBRANCH   6  31
TORSDOF 12
