REMARK  Name = ZINC00630490
REMARK  8 active torsions:
REMARK  status: ('A' for Active; 'I' for Inactive)
REMARK    1  A    between atoms: C_1  and  C_2
REMARK    2  A    between atoms: C_2  and  C_3
REMARK    3  A    between atoms: C_8  and  C_18
REMARK    4  A    between atoms: C_12  and  C_15
REMARK    5  A    between atoms: C_13  and  O_14
REMARK    6  A    between atoms: C_15  and  N_51
REMARK    7  A    between atoms: C_16  and  N_51
REMARK    8  A    between atoms: C_17  and  N_51
REMARK                            x       y       z     vdW  Elec       q    Type
REMARK                         _______ _______ _______ _____ _____    ______ ____
ROOT
ATOM      1  C   UNL     1      -8.156  -1.824   1.710  0.00  0.00    -0.005 A 
ATOM      2  C   UNL     1      -7.027  -1.061   1.807  0.00  0.00    +0.022 A 
ATOM      3  C   UNL     1      -5.968  -1.276   0.924  0.00  0.00    +0.065 A 
ATOM      4  C   UNL     1      -4.732  -0.477   1.002  0.00  0.00    +0.200 A 
ATOM      5  O   UNL     1      -4.590   0.400   1.837  0.00  0.00    -0.286 OA
ATOM      6  C   UNL     1      -3.680  -0.785   0.019  0.00  0.00    +0.064 A 
ATOM      7  C   UNL     1      -3.898  -1.778  -0.881  0.00  0.00    +0.208 A 
ATOM      8  O   UNL     1      -5.033  -2.482  -0.914  0.00  0.00    -0.462 OA
ATOM      9  C   UNL     1      -6.057  -2.274  -0.063  0.00  0.00    +0.143 A 
ATOM     10  C   UNL     1      -7.212  -3.041  -0.147  0.00  0.00    +0.021 A 
ATOM     11  C   UNL     1      -8.254  -2.815   0.737  0.00  0.00    +0.125 A 
ENDROOT
BRANCH   6  12
ATOM     12  C   UNL     1      -2.403  -0.030   0.016  0.00  0.00    -0.008 A 
ATOM     13  C   UNL     1      -2.416   1.364   0.026  0.00  0.00    +0.012 A 
ATOM     14  C   UNL     1      -1.228   2.065   0.019  0.00  0.00    +0.050 A 
ATOM     15  C   UNL     1      -0.017   1.387   0.010  0.00  0.00    +0.162 A 
ATOM     16  C   UNL     1       0.002  -0.004   0.002  0.00  0.00    +0.163 A 
ATOM     17  C   UNL     1      -1.189  -0.712   0.004  0.00  0.00    +0.058 A 
ATOM     18  O   UNL     1       1.181  -0.685  -0.007  0.00  0.00    -0.485 OA
ATOM     19  C   UNL     1       2.347   0.053  -0.387  0.00  0.00    +0.270 C 
ATOM     20  C   UNL     1       2.335   1.391   0.365  0.00  0.00    +0.270 C 
ATOM     21  O   UNL     1       1.144   2.098   0.002  0.00  0.00    -0.485 OA
ENDBRANCH   6  12
BRANCH   1  23
ATOM     22  C   UNL     1      -9.187  -2.560   3.842  0.00  0.00    +0.009 C 
ATOM     23  C   UNL     1      -9.301  -1.592   2.663  0.00  0.00    +0.035 C 
ENDBRANCH   1  23
BRANCH  11  24
ATOM     24  O   UNL     1      -9.381  -3.567   0.653  0.00  0.00    -0.506 OA
ATOM     25  H   UNL     1     -10.057  -3.198   0.067  0.00  0.00    +0.292 HD
ENDBRANCH  11  24
BRANCH  10  26
ATOM     26  C   UNL     1      -7.330  -4.116  -1.196  0.00  0.00    -0.036 C 
BRANCH  26  29
ATOM     27  C   UNL     1      -7.137  -6.502  -1.557  0.00  0.00    -0.096 C 
ATOM     28  C   UNL     1      -5.379  -5.306  -0.399  0.00  0.00    -0.096 C 
ATOM     29  N   UNL     1      -6.836  -5.389  -0.632  0.00  0.00    +0.379 N 
ATOM     30  H   UNL     1      -7.308  -5.563   0.263  0.00  0.00    -0.082 HD
ENDBRANCH  26  29
ENDBRANCH  10  26
TORSDOF 5
