REMARK  Name = ZINC32803088
REMARK  11 active torsions:
REMARK  status: ('A' for Active; 'I' for Inactive)
REMARK    1  A    between atoms: C_1  and  C_2
REMARK    2  A    between atoms: C_5  and  S_8
REMARK    3  A    between atoms: S_8  and  N_11
REMARK    4  A    between atoms: N_11  and  C_12
REMARK    5  A    between atoms: C_12  and  C_13
REMARK    6  A    between atoms: C_13  and  N_14
REMARK    7  A    between atoms: N_17  and  C_18
REMARK    8  A    between atoms: C_18  and  C_20
REMARK    9  A    between atoms: C_18  and  C_30
REMARK   10  A    between atoms: C_30  and  C_31
REMARK   11  A    between atoms: C_30  and  C_32
REMARK                            x       y       z     vdW  Elec       q    Type
REMARK                         _______ _______ _______ _____ _____    ______ ____
ROOT
ATOM      1  N   UNL     1      -6.522  -0.262   2.302  0.00  0.00    -0.298 N 
ATOM      2  C   UNL     1      -5.643  -0.864   1.476  0.00  0.00    +0.300 C 
ATOM      3  O   UNL     1      -5.749  -2.051   1.236  0.00  0.00    -0.253 OA
ATOM      4  N   UNL     1      -4.647  -0.149   0.915  0.00  0.00    -0.292 N 
ATOM      5  H   UNL     1      -6.426   0.812   2.519  0.00  0.00    +0.150 HD
ATOM      6  H   UNL     1      -4.552   0.925   1.132  0.00  0.00    +0.151 HD
ENDROOT
BRANCH   1   7
ATOM      7  C   UNL     1      -7.605  -1.039   2.911  0.00  0.00    +0.122 C 
BRANCH   7   8
ATOM      8  C   UNL     1      -8.452  -0.124   3.797  0.00  0.00    +0.124 C 
BRANCH   8   9
ATOM      9  N   UNL     1      -9.535  -0.901   4.406  0.00  0.00    -0.188 NA
ATOM     10  H   UNL     1      -9.897  -1.817   3.917  0.00  0.00    +0.148 HD
BRANCH   9  11
ATOM     11  S   UNL     1     -10.380  -0.280   5.688  0.00  0.00    +0.058 S 
ATOM     12  O   UNL     1     -11.366  -1.245   6.030  0.00  0.00    -0.153 OA
ATOM     13  O   UNL     1      -9.416   0.189   6.621  0.00  0.00    -0.153 OA
BRANCH  11  18
ATOM     14  C   UNL     1     -13.345   4.578   3.685  0.00  0.00    +0.044 C 
ATOM     15  C   UNL     1     -12.605   3.364   4.185  0.00  0.00    -0.050 A 
ATOM     16  C   UNL     1     -13.202   2.119   4.130  0.00  0.00    +0.005 A 
ATOM     17  C   UNL     1     -12.522   1.006   4.589  0.00  0.00    +0.029 A 
ATOM     18  C   UNL     1     -11.246   1.138   5.103  0.00  0.00    +0.105 A 
ATOM     19  C   UNL     1     -10.651   2.385   5.162  0.00  0.00    +0.029 A 
ATOM     20  C   UNL     1     -11.328   3.497   4.699  0.00  0.00    +0.005 A 
ENDBRANCH  11  18
ENDBRANCH   9  11
ENDBRANCH   8   9
ENDBRANCH   7   8
ENDBRANCH   1   7
BRANCH   4  21
ATOM     21  C   UNL     1      -3.692  -0.803   0.018  0.00  0.00    +0.107 C 
BRANCH  21  22
ATOM     22  C   UNL     1      -2.397  -0.033   0.016  0.00  0.00    -0.023 A 
ATOM     23  C   UNL     1      -2.415   1.349   0.025  0.00  0.00    +0.009 A 
ATOM     24  C   UNL     1      -1.229   2.059   0.019  0.00  0.00    +0.050 A 
ATOM     25  C   UNL     1      -0.017   1.385   0.010  0.00  0.00    +0.162 A 
ATOM     26  C   UNL     1       0.002  -0.004   0.002  0.00  0.00    +0.162 A 
ATOM     27  C   UNL     1      -1.192  -0.710   0.004  0.00  0.00    +0.055 A 
ATOM     28  O   UNL     1       1.181  -0.685  -0.007  0.00  0.00    -0.485 OA
ATOM     29  C   UNL     1       2.347   0.053  -0.387  0.00  0.00    +0.270 C 
ATOM     30  C   UNL     1       2.334   1.392   0.364  0.00  0.00    +0.270 C 
ATOM     31  O   UNL     1       1.143   2.098   0.002  0.00  0.00    -0.485 OA
ENDBRANCH  21  22
BRANCH  21  32
ATOM     32  C   UNL     1      -4.266  -0.838  -1.400  0.00  0.00    +0.008 C 
ATOM     33  C   UNL     1      -3.269  -1.521  -2.338  0.00  0.00    +0.009 C 
ATOM     34  C   UNL     1      -5.582  -1.620  -1.398  0.00  0.00    +0.009 C 
ENDBRANCH  21  32
ENDBRANCH   4  21
TORSDOF 8
