REMARK  Name = ZINC09211154
REMARK  5 active torsions:
REMARK  status: ('A' for Active; 'I' for Inactive)
REMARK    1  A    between atoms: C_5  and  C_7
REMARK    2  A    between atoms: C_7  and  N_8
REMARK    3  A    between atoms: C_11  and  C_14
REMARK    4  A    between atoms: C_14  and  N_15
REMARK    5  A    between atoms: C_16  and  C_18
REMARK                            x       y       z     vdW  Elec       q    Type
REMARK                         _______ _______ _______ _____ _____    ______ ____
ROOT
ATOM      1  N   UNL     1       1.307  -6.135   5.200  0.00  0.00    -0.315 N 
ATOM      2  C   UNL     1       1.620  -6.765   6.350  0.00  0.00    +0.218 C 
ATOM      3  O   UNL     1       1.845  -6.120   7.352  0.00  0.00    -0.275 OA
ATOM      4  H   UNL     1       1.127  -6.650   4.398  0.00  0.00    +0.149 HD
ENDROOT
BRANCH   2   5
ATOM      5  C   UNL     1       1.690  -8.270   6.389  0.00  0.00    +0.092 C 
ATOM      6  C   UNL     1       0.328  -8.855   6.008  0.00  0.00    +0.016 C 
ATOM      7  C   UNL     1       0.407 -10.383   6.016  0.00  0.00    +0.020 C 
ATOM      8  C   UNL     1       0.762 -10.864   7.426  0.00  0.00    +0.106 C 
ATOM      9  N   UNL     1       1.996 -10.194   7.858  0.00  0.00    -0.313 N 
ATOM     10  C   UNL     1       2.060  -8.727   7.804  0.00  0.00    +0.119 C 
ATOM     11  C   UNL     1       3.078 -10.930   8.308  0.00  0.00    +0.152 A 
ATOM     12  C   UNL     1       2.980 -12.322   8.480  0.00  0.00    +0.148 A 
ATOM     13  C   UNL     1       4.112 -13.015   8.940  0.00  0.00    +0.166 A 
ATOM     14  N   UNL     1       5.227 -12.336   9.192  0.00  0.00    -0.216 NA
ATOM     15  C   UNL     1       5.273 -11.032   9.017  0.00  0.00    +0.225 A 
ATOM     16  N   UNL     1       4.236 -10.338   8.583  0.00  0.00    -0.218 NA
ATOM     17  N   UNL     1       3.741 -14.333   9.019  0.00  0.00    -0.312 N 
ATOM     18  C   UNL     1       2.442 -14.421   8.613  0.00  0.00    +0.112 A 
ATOM     19  N   UNL     1       1.997 -13.236   8.302  0.00  0.00    -0.227 NA
ATOM     20  C   UNL     1       1.645 -15.701   8.529  0.00  0.00    +0.074 C 
ATOM     21  C   UNL     1       1.841 -16.505   9.816  0.00  0.00    +0.008 C 
ATOM     22  C   UNL     1       3.059 -17.412   9.671  0.00  0.00    +0.002 C 
ATOM     23  C   UNL     1       4.122 -16.742   8.803  0.00  0.00    +0.022 C 
ATOM     24  C   UNL     1       4.586 -15.444   9.468  0.00  0.00    +0.125 C 
ENDBRANCH   2   5
BRANCH   1  25
ATOM     25  C   UNL     1       1.239  -4.672   5.161  0.00  0.00    +0.107 C 
BRANCH  25  29
ATOM     26  N   UNL     1       1.505  -2.597   1.433  0.00  0.00    +0.382 N 
ATOM     27  C   UNL     1       0.381  -2.238   2.305  0.00  0.00    -0.078 C 
ATOM     28  C   UNL     1       0.674  -2.697   3.735  0.00  0.00    -0.014 C 
ATOM     29  C   UNL     1       0.868  -4.216   3.749  0.00  0.00    +0.003 C 
ATOM     30  C   UNL     1       1.993  -4.586   2.779  0.00  0.00    -0.014 C 
ATOM     31  C   UNL     1       1.652  -4.057   1.384  0.00  0.00    -0.078 C 
ATOM     32  H   UNL     1       2.353  -2.187   1.794  0.00  0.00    -0.081 HD
BRANCH  26  33
ATOM     33  C   UNL     1       1.254  -2.086   0.078  0.00  0.00    -0.040 C 
BRANCH  33  38
ATOM     34  C   UNL     1      -0.011   1.470   0.146  0.00  0.00    +0.000 A 
ATOM     35  C   UNL     1       1.173   2.185   0.158  0.00  0.00    +0.003 A 
ATOM     36  C   UNL     1       2.383   1.519   0.145  0.00  0.00    +0.038 A 
ATOM     37  C   UNL     1       2.411   0.135   0.119  0.00  0.00    +0.125 A 
ATOM     38  C   UNL     1       1.226  -0.580   0.107  0.00  0.00    -0.029 A 
ATOM     39  C   UNL     1       0.016   0.088   0.120  0.00  0.00    +0.004 A 
ATOM     40  F   UNL     1       3.594  -0.517   0.106  0.00  0.00    -0.205 F 
ENDBRANCH  33  38
ENDBRANCH  26  33
ENDBRANCH  25  29
ENDBRANCH   1  25
TORSDOF 5
