REMARK  Name = ZINC20881586
REMARK  5 active torsions:
REMARK  status: ('A' for Active; 'I' for Inactive)
REMARK    1  A    between atoms: C_1  and  O_2
REMARK    2  A    between atoms: O_2  and  C_3
REMARK    3  A    between atoms: C_6  and  C_9
REMARK    4  A    between atoms: C_14  and  C_24
REMARK    5  A    between atoms: C_29  and  O_30
REMARK                            x       y       z     vdW  Elec       q    Type
REMARK                         _______ _______ _______ _____ _____    ______ ____
ROOT
ATOM      1  C   UNL     1       4.384   4.332  -3.824  0.00  0.00    +0.032 C 
ATOM      2  C   UNL     1       3.292   5.368  -3.563  0.00  0.00    +0.059 C 
ATOM      3  C   UNL     1       2.868   5.317  -2.104  0.00  0.00    +0.017 C 
ATOM      4  C   UNL     1       2.875   4.155  -1.435  0.00  0.00    +0.037 C 
ATOM      5  C   UNL     1       2.448   3.951  -0.000  0.00  0.00    +0.139 C 
ATOM      6  N   UNL     1       2.252   5.177   0.743  0.00  0.00    -0.331 N 
ATOM      7  C   UNL     1       1.248   6.079   0.394  0.00  0.00    +0.049 A 
ATOM      8  C   UNL     1       0.181   6.338   1.239  0.00  0.00    +0.025 A 
ATOM      9  C   UNL     1      -0.816   7.207   0.829  0.00  0.00    +0.002 A 
ATOM     10  C   UNL     1      -0.751   7.810  -0.414  0.00  0.00    +0.002 A 
ATOM     11  C   UNL     1       0.323   7.566  -1.253  0.00  0.00    +0.025 A 
ATOM     12  C   UNL     1       1.330   6.714  -0.836  0.00  0.00    +0.052 A 
ATOM     13  N   UNL     1       2.485   6.510  -1.583  0.00  0.00    -0.316 N 
ATOM     14  C   UNL     1       3.320   2.968  -2.070  0.00  0.00    +0.163 C 
ATOM     15  O   UNL     1       3.305   1.927  -1.443  0.00  0.00    -0.292 OA
ATOM     16  C   UNL     1       3.807   2.951  -3.488  0.00  0.00    +0.088 C 
ATOM     17  H   UNL     1       2.900   5.410   1.600  0.00  0.00    +0.147 HD
ATOM     18  H   UNL     1       3.106   7.404  -1.741  0.00  0.00    +0.152 HD
ENDROOT
BRANCH   1  22
ATOM     19  C   UNL     1       5.548   4.458  -7.933  0.00  0.00    +0.120 A 
ATOM     20  C   UNL     1       6.483   4.706  -6.938  0.00  0.00    +0.046 A 
ATOM     21  C   UNL     1       6.104   4.665  -5.611  0.00  0.00    +0.007 A 
ATOM     22  C   UNL     1       4.794   4.376  -5.273  0.00  0.00    -0.043 A 
ATOM     23  C   UNL     1       3.863   4.122  -6.262  0.00  0.00    +0.007 A 
ATOM     24  C   UNL     1       4.235   4.168  -7.592  0.00  0.00    +0.046 A 
BRANCH  19  26
ATOM     25  C   UNL     1       4.904   4.232 -10.211  0.00  0.00    +0.277 C 
ATOM     26  O   UNL     1       5.919   4.498  -9.240  0.00  0.00    -0.495 OA
ENDBRANCH  19  26
ENDBRANCH   1  22
BRANCH   5  27
ATOM     27  C   UNL     1       1.156   3.175   0.008  0.00  0.00    +0.019 A 
ATOM     28  C   UNL     1       0.349   3.163  -1.114  0.00  0.00    +0.009 A 
ATOM     29  C   UNL     1      -0.835   2.451  -1.107  0.00  0.00    +0.001 A 
ATOM     30  C   UNL     1      -1.214   1.744   0.020  0.00  0.00    +0.004 A 
ATOM     31  C   UNL     1      -0.413   1.757   1.146  0.00  0.00    +0.046 A 
ATOM     32  C   UNL     1       0.776   2.471   1.141  0.00  0.00    +0.122 A 
BRANCH  32  33
ATOM     33  O   UNL     1       1.569   2.480   2.246  0.00  0.00    -0.506 OA
ATOM     34  H   UNL     1       1.267   1.922   3.144  0.00  0.00    +0.292 HD
ENDBRANCH  32  33
ENDBRANCH   5  27
TORSDOF 4
