REMARK  Name = ZINC12664307
REMARK  8 active torsions:
REMARK  status: ('A' for Active; 'I' for Inactive)
REMARK    1  A    between atoms: C_1  and  C_2
REMARK    2  A    between atoms: C_2  and  N_3
REMARK    3  A    between atoms: C_5  and  O_32
REMARK    4  A    between atoms: N_12  and  C_13
REMARK    5  A    between atoms: C_13  and  C_15
REMARK    6  A    between atoms: N_20  and  S_22
REMARK    7  A    between atoms: S_22  and  C_25
REMARK    8  A    between atoms: O_32  and  C_33
REMARK                            x       y       z     vdW  Elec       q    Type
REMARK                         _______ _______ _______ _____ _____    ______ ____
ROOT
ATOM      1  C   UNL     1      -1.876   4.987  -0.075  0.00  0.00    +0.243 C 
ATOM      2  O   UNL     1      -1.462   5.615  -1.030  0.00  0.00    -0.273 OA
ENDROOT
BRANCH   1  12
ATOM      3  N   UNL     1      -3.197   7.757   1.810  0.00  0.00    -0.318 N 
ATOM      4  C   UNL     1      -3.256   9.123   1.591  0.00  0.00    +0.100 A 
ATOM      5  C   UNL     1      -3.809  10.117   2.421  0.00  0.00    +0.145 A 
ATOM      6  C   UNL     1      -3.780  11.443   2.043  0.00  0.00    +0.048 A 
ATOM      7  C   UNL     1      -3.210  11.835   0.843  0.00  0.00    +0.005 A 
ATOM      8  C   UNL     1      -2.660  10.876   0.011  0.00  0.00    +0.017 A 
ATOM      9  C   UNL     1      -2.687   9.552   0.385  0.00  0.00    +0.042 A 
ATOM     10  S   UNL     1      -2.109   8.045  -0.352  0.00  0.00    -0.052 S 
ATOM     11  C   UNL     1      -2.619   6.944   0.888  0.00  0.00    +0.167 A 
ATOM     12  N   UNL     1      -2.474   5.621   0.928  0.00  0.00    -0.156 NA
BRANCH   3  14
ATOM     13  C   UNL     1      -2.682   7.150   4.122  0.00  0.00    +0.027 C 
ATOM     14  C   UNL     1      -3.760   7.188   3.037  0.00  0.00    +0.121 C 
ENDBRANCH   3  14
BRANCH   5  15
ATOM     15  O   UNL     1      -4.377   9.767   3.605  0.00  0.00    -0.493 OA
ATOM     16  C   UNL     1      -4.920  10.822   4.402  0.00  0.00    +0.277 C 
ENDBRANCH   5  15
ENDBRANCH   1  12
BRANCH   1  17
ATOM     17  C   UNL     1      -1.712   3.490  -0.028  0.00  0.00    +0.093 C 
ATOM     18  C   UNL     1      -0.878   3.105   1.196  0.00  0.00    +0.015 C 
ATOM     19  C   UNL     1      -0.736   1.583   1.264  0.00  0.00    +0.018 C 
ATOM     20  C   UNL     1      -0.013   1.086   0.008  0.00  0.00    +0.109 C 
ATOM     21  N   UNL     1      -0.729   1.575  -1.178  0.00  0.00    -0.176 NA
ATOM     22  C   UNL     1      -0.997   3.015  -1.297  0.00  0.00    +0.122 C 
BRANCH  21  23
ATOM     23  S   UNL     1      -1.225   0.524  -2.357  0.00  0.00    +0.061 S 
ATOM     24  O   UNL     1      -1.351   1.284  -3.552  0.00  0.00    -0.153 OA
ATOM     25  O   UNL     1      -0.382  -0.616  -2.266  0.00  0.00    -0.153 OA
BRANCH  23  26
ATOM     26  C   UNL     1      -2.847  -0.013  -1.928  0.00  0.00    +0.106 A 
ATOM     27  C   UNL     1      -3.018  -1.140  -1.147  0.00  0.00    +0.030 A 
ATOM     28  C   UNL     1      -4.290  -1.558  -0.805  0.00  0.00    +0.022 A 
ATOM     29  C   UNL     1      -5.393  -0.855  -1.255  0.00  0.00    +0.041 A 
ATOM     30  C   UNL     1      -5.222   0.270  -2.042  0.00  0.00    +0.022 A 
ATOM     31  C   UNL     1      -3.949   0.690  -2.378  0.00  0.00    +0.030 A 
ATOM     32 CL   UNL     1      -6.992  -1.384  -0.831  0.00  0.00    -0.084 Cl
ENDBRANCH  23  26
ENDBRANCH  21  23
ENDBRANCH   1  17
TORSDOF 6
