REMARK  Name = ZINC39951397
REMARK  8 active torsions:
REMARK  status: ('A' for Active; 'I' for Inactive)
REMARK    1  A    between atoms: C_1  and  C_2
REMARK    2  A    between atoms: C_2  and  C_3
REMARK    3  A    between atoms: C_2  and  C_4
REMARK    4  A    between atoms: C_9  and  C_27
REMARK    5  A    between atoms: C_10  and  O_12
REMARK    6  A    between atoms: C_16  and  C_18
REMARK    7  A    between atoms: C_23  and  C_25
REMARK    8  A    between atoms: C_23  and  C_26
REMARK                            x       y       z     vdW  Elec       q    Type
REMARK                         _______ _______ _______ _____ _____    ______ ____
ROOT
ATOM      1  C   UNL     1      -1.386  -0.482   0.169  0.00  0.00    -0.014 C 
ATOM      2  C   UNL     1      -2.189   0.167  -0.916  0.00  0.00    +0.023 C 
ATOM      3  C   UNL     1      -3.629   0.364  -0.574  0.00  0.00    +0.083 C 
ATOM      4  N   UNL     1      -4.221  -0.677   0.230  0.00  0.00    -0.315 NA
ATOM      5  C   UNL     1      -3.825  -2.037  -0.018  0.00  0.00    +0.090 C 
ATOM      6  C   UNL     1      -2.618  -2.550   0.741  0.00  0.00    -0.008 C 
ATOM      7  C   UNL     1      -1.354  -1.989   0.127  0.00  0.00    +0.125 C 
ATOM      8  C   UNL     1      -2.662  -2.092   2.203  0.00  0.00    -0.066 C 
ATOM      9  N   UNL     1      -2.841  -0.636   2.201  0.00  0.00    +0.391 N 
ATOM     10  C   UNL     1      -1.738   0.058   1.545  0.00  0.00    -0.067 C 
ATOM     11  C   UNL     1      -4.152  -0.306   1.654  0.00  0.00    +0.005 C 
ATOM     12  C   UNL     1      -2.589  -4.079   0.681  0.00  0.00    +0.013 C 
ATOM     13  H   UNL     1      -2.848  -0.338   3.165  0.00  0.00    -0.079 HD
ENDROOT
BRANCH  11  14
ATOM     14  C   UNL     1      -5.229  -1.066   2.429  0.00  0.00    -0.006 C 
ATOM     15  C   UNL     1      -6.615  -0.640   1.933  0.00  0.00    +0.031 C 
ATOM     16  C   UNL     1      -7.686  -1.347   2.767  0.00  0.00    +0.161 C 
ATOM     17  O   UNL     1      -7.501  -1.028   4.148  0.00  0.00    -0.374 OA
ATOM     18  C   UNL     1      -6.242  -1.446   4.679  0.00  0.00    +0.064 C 
ATOM     19  C   UNL     1      -5.110  -0.745   3.922  0.00  0.00    +0.037 C 
ATOM     20  C   UNL     1      -6.167  -1.080   6.162  0.00  0.00    +0.041 C 
ATOM     21  C   UNL     1      -6.098  -2.961   4.519  0.00  0.00    +0.041 C 
ENDBRANCH  11  14
BRANCH   1  23
ATOM     22  C   UNL     1       0.475  -0.429  -1.497  0.00  0.00    +0.008 C 
ATOM     23  C   UNL     1       0.058  -0.040  -0.077  0.00  0.00    -0.010 C 
ATOM     24  C   UNL     1       0.162   1.477   0.087  0.00  0.00    +0.008 C 
ENDBRANCH   1  23
BRANCH   7  25
ATOM     25  O   UNL     1      -0.232  -2.466   0.872  0.00  0.00    -0.391 OA
ATOM     26  H   UNL     1      -0.150  -3.429   0.886  0.00  0.00    +0.210 HD
ENDBRANCH   7  25
TORSDOF 3
