REMARK  Name = ZINC20757008
REMARK  8 active torsions:
REMARK  status: ('A' for Active; 'I' for Inactive)
REMARK    1  A    between atoms: C_1  and  C_2
REMARK    2  A    between atoms: C_4  and  C_39
REMARK    3  A    between atoms: C_13  and  C_16
REMARK    4  A    between atoms: C_16  and  C_17
REMARK    5  A    between atoms: N_29  and  C_32
REMARK    6  A    between atoms: C_32  and  C_33
REMARK    7  A    between atoms: C_33  and  O_34
REMARK    8  A    between atoms: O_34  and  C_35
REMARK                            x       y       z     vdW  Elec       q    Type
REMARK                         _______ _______ _______ _____ _____    ______ ____
ROOT
ATOM      1  C   UNL     1      -0.096   1.152  -0.088  0.00  0.00    +0.044 C 
ATOM      2  C   UNL     1      -0.038  -0.350   0.019  0.00  0.00    -0.050 A 
ATOM      3  C   UNL     1      -0.027  -1.126  -1.126  0.00  0.00    +0.008 A 
ATOM      4  C   UNL     1       0.026  -2.501  -1.035  0.00  0.00    -0.029 A 
ATOM      5  C   UNL     1       0.071  -3.120   0.213  0.00  0.00    +0.042 A 
ATOM      6  C   UNL     1       0.060  -2.328   1.357  0.00  0.00    +0.004 A 
ATOM      7  C   UNL     1       0.012  -0.956   1.262  0.00  0.00    +0.011 A 
ATOM      8  C   UNL     1       0.117  -3.283   2.517  0.00  0.00    +0.136 C 
ATOM      9  C   UNL     1      -1.100  -3.122   3.436  0.00  0.00    +0.122 C 
ATOM     10  C   UNL     1      -0.544  -3.364   4.867  0.00  0.00    +0.107 C 
ATOM     11  C   UNL     1       0.952  -3.682   4.663  0.00  0.00    +0.072 C 
ATOM     12  N   UNL     1       1.299  -3.036   3.362  0.00  0.00    -0.295 NA
ATOM     13  C   UNL     1      -0.697  -2.016   5.534  0.00  0.00    +0.227 C 
ATOM     14  O   UNL     1      -0.369  -1.756   6.672  0.00  0.00    -0.275 OA
ATOM     15  N   UNL     1      -1.252  -1.155   4.674  0.00  0.00    -0.239 N 
ATOM     16  C   UNL     1      -1.533  -1.673   3.456  0.00  0.00    +0.228 C 
ATOM     17  O   UNL     1      -2.043  -1.082   2.528  0.00  0.00    -0.275 OA
ATOM     18  C   UNL     1       0.159  -4.651   1.895  0.00  0.00    +0.243 C 
ATOM     19  O   UNL     1       0.211  -5.712   2.481  0.00  0.00    -0.273 OA
ATOM     20  N   UNL     1       0.129  -4.471   0.560  0.00  0.00    -0.283 N 
ATOM     21  C   UNL     1       0.037  -3.337  -2.288  0.00  0.00    +0.045 C 
ATOM     22  H   UNL     1       2.124  -3.458   2.962  0.00  0.00    +0.124 HD
ATOM     23  H   UNL     1       0.144  -5.196  -0.084  0.00  0.00    +0.155 HD
ENDROOT
BRANCH  11  24
ATOM     24  C   UNL     1       1.786  -3.065   5.787  0.00  0.00    +0.056 C 
BRANCH  24  25
ATOM     25  C   UNL     1       3.224  -3.488   5.637  0.00  0.00    -0.021 A 
ATOM     26  C   UNL     1       3.818  -4.529   6.243  0.00  0.00    +0.087 A 
ATOM     27  N   UNL     1       5.131  -4.603   5.864  0.00  0.00    -0.360 N 
ATOM     28  H   UNL     1       5.762  -5.272   6.171  0.00  0.00    +0.165 HD
ATOM     29  C   UNL     1       5.421  -3.586   4.983  0.00  0.00    +0.047 A 
ATOM     30  C   UNL     1       4.239  -2.847   4.797  0.00  0.00    +0.003 A 
ATOM     31  C   UNL     1       4.233  -1.745   3.939  0.00  0.00    +0.010 A 
ATOM     32  C   UNL     1       5.377  -1.392   3.281  0.00  0.00    +0.001 A 
ATOM     33  C   UNL     1       6.545  -2.120   3.458  0.00  0.00    +0.002 A 
ATOM     34  C   UNL     1       6.576  -3.205   4.307  0.00  0.00    +0.026 A 
ENDBRANCH  24  25
ENDBRANCH  11  24
BRANCH  15  35
ATOM     35  C   UNL     1      -1.540   0.239   5.022  0.00  0.00    +0.144 C 
BRANCH  35  36
ATOM     36  C   UNL     1      -2.994   0.360   5.481  0.00  0.00    +0.179 C 
BRANCH  36  37
ATOM     37  O   UNL     1      -3.173  -0.369   6.696  0.00  0.00    -0.381 OA
ATOM     38  C   UNL     1      -4.504  -0.320   7.213  0.00  0.00    +0.194 C 
ENDBRANCH  36  37
ENDBRANCH  35  36
ENDBRANCH  15  35
TORSDOF 5
