REMARK  Name = ZINC17127912
REMARK  12 active torsions:
REMARK  status: ('A' for Active; 'I' for Inactive)
REMARK    1  A    between atoms: C_1  and  C_2
REMARK    2  A    between atoms: C_2  and  C_34
REMARK    3  A    between atoms: N_7  and  C_8
REMARK    4  A    between atoms: C_11  and  C_15
REMARK    5  A    between atoms: C_15  and  C_16
REMARK    6  A    between atoms: C_16  and  C_17
REMARK    7  A    between atoms: C_17  and  C_18
REMARK    8  A    between atoms: C_18  and  C_19
REMARK    9  A    between atoms: C_22  and  S_26
REMARK   10  A    between atoms: S_26  and  N_29
REMARK   11  A    between atoms: N_29  and  C_30
REMARK   12  A    between atoms: N_29  and  C_31
REMARK                            x       y       z     vdW  Elec       q    Type
REMARK                         _______ _______ _______ _____ _____    ______ ____
ROOT
ATOM      1  C   UNL     1      -1.286   1.839   0.002  0.00  0.00    +0.040 A 
ATOM      2  C   UNL     1      -0.095   1.278   0.446  0.00  0.00    +0.024 A 
ATOM      3  C   UNL     1       1.066   2.025   0.435  0.00  0.00    +0.007 A 
ATOM      4  C   UNL     1       1.044   3.334  -0.011  0.00  0.00    -0.029 A 
ATOM      5  C   UNL     1      -0.141   3.899  -0.448  0.00  0.00    +0.046 A 
ATOM      6  C   UNL     1      -1.307   3.155  -0.441  0.00  0.00    +0.043 A 
ATOM      7 CL   UNL     1      -0.165   5.542  -1.008  0.00  0.00    -0.083 Cl
ENDROOT
BRANCH   1  14
ATOM      8  C   UNL     1      -2.050   0.669  -2.379  0.00  0.00    +0.056 C 
ATOM      9  C   UNL     1      -2.816   0.219  -1.133  0.00  0.00    +0.109 C 
ATOM     10  N   UNL     1      -4.255   0.331  -1.371  0.00  0.00    -0.337 N 
ATOM     11  C   UNL     1      -5.065   0.646  -0.395  0.00  0.00    +0.191 C 
ATOM     12  N   UNL     1      -4.617   0.916   0.843  0.00  0.00    -0.187 NA
ATOM     13  C   UNL     1      -3.332   1.123   1.070  0.00  0.00    +0.189 C 
ATOM     14  N   UNL     1      -2.462   1.082   0.005  0.00  0.00    -0.250 N 
ATOM     15  N   UNL     1      -2.877   1.371   2.335  0.00  0.00    -0.331 N 
ATOM     16  N   UNL     1      -6.421   0.702  -0.642  0.00  0.00    -0.329 N 
ATOM     17  C   UNL     1      -2.463  -1.234  -0.806  0.00  0.00    +0.056 C 
ATOM     18  H   UNL     1      -1.805   1.542   2.510  0.00  0.00    +0.145 HD
ATOM     19  H   UNL     1      -3.584   1.401   3.177  0.00  0.00    +0.145 HD
ATOM     20  H   UNL     1      -7.118   0.966   0.167  0.00  0.00    +0.145 HD
ATOM     21  H   UNL     1      -6.806   0.484  -1.649  0.00  0.00    +0.145 HD
ATOM     22  H   UNL     1      -4.655   0.148  -2.379  0.00  0.00    +0.164 HD
ENDBRANCH   1  14
BRANCH   4  23
ATOM     23  C   UNL     1       2.313   4.147  -0.020  0.00  0.00    +0.036 C 
BRANCH  23  24
ATOM     24  C   UNL     1       2.892   4.172  -1.436  0.00  0.00    +0.005 C 
BRANCH  24  25
ATOM     25  C   UNL     1       4.180   4.998  -1.445  0.00  0.00    +0.005 C 
BRANCH  25  26
ATOM     26  C   UNL     1       4.759   5.023  -2.861  0.00  0.00    +0.036 C 
BRANCH  26  27
ATOM     27  C   UNL     1       6.028   5.836  -2.870  0.00  0.00    -0.029 A 
ATOM     28  C   UNL     1       7.256   5.201  -2.840  0.00  0.00    +0.007 A 
ATOM     29  C   UNL     1       8.420   5.947  -2.849  0.00  0.00    +0.029 A 
ATOM     30  C   UNL     1       8.357   7.327  -2.887  0.00  0.00    +0.107 A 
ATOM     31  C   UNL     1       7.130   7.963  -2.917  0.00  0.00    +0.048 A 
ATOM     32  C   UNL     1       5.965   7.217  -2.914  0.00  0.00    +0.046 A 
ATOM     33 CL   UNL     1       4.423   8.014  -2.960  0.00  0.00    -0.083 Cl
BRANCH  30  34
ATOM     34  S   UNL     1       9.841   8.277  -2.899  0.00  0.00    +0.060 S 
ATOM     35  O   UNL     1       9.507   9.559  -2.386  0.00  0.00    -0.153 OA
ATOM     36  O   UNL     1      10.849   7.462  -2.315  0.00  0.00    -0.153 OA
BRANCH  34  37
ATOM     37  N   UNL     1      10.270   8.497  -4.483  0.00  0.00    -0.183 NA
ATOM     38  C   UNL     1       9.776   9.662  -5.220  0.00  0.00    +0.131 C 
ATOM     39  C   UNL     1      11.143   7.526  -5.147  0.00  0.00    +0.131 C 
ENDBRANCH  34  37
ENDBRANCH  30  34
ENDBRANCH  26  27
ENDBRANCH  25  26
ENDBRANCH  24  25
ENDBRANCH  23  24
ENDBRANCH   4  23
TORSDOF 8
