REMARK  Name = ZINC09810316
REMARK  8 active torsions:
REMARK  status: ('A' for Active; 'I' for Inactive)
REMARK    1  A    between atoms: C_1  and  C_2
REMARK    2  A    between atoms: C_3  and  C_30
REMARK    3  A    between atoms: C_11  and  C_13
REMARK    4  A    between atoms: C_13  and  C_15
REMARK    5  A    between atoms: C_13  and  S_16
REMARK    6  A    between atoms: S_16  and  C_17
REMARK    7  A    between atoms: C_20  and  C_23
REMARK    8  A    between atoms: N_21  and  C_22
REMARK                            x       y       z     vdW  Elec       q    Type
REMARK                         _______ _______ _______ _____ _____    ______ ____
ROOT
ATOM      1  C   UNL     1       6.400   6.535  -0.670  0.00  0.00    +0.117 C 
ATOM      2  C   UNL     1       6.829   6.074   0.725  0.00  0.00    +0.027 C 
ENDROOT
BRANCH   1  13
ATOM      3  C   UNL     1       9.537  12.243  -2.260  0.00  0.00    +0.045 C 
ATOM      4  C   UNL     1       9.806  10.765  -2.380  0.00  0.00    -0.026 A 
ATOM      5  C   UNL     1      10.946  10.325  -2.937  0.00  0.00    -0.008 A 
ATOM      6  S   UNL     1      10.792   8.551  -2.846  0.00  0.00    -0.073 S 
ATOM      7  C   UNL     1       9.202   8.453  -2.064  0.00  0.00    +0.116 A 
ATOM      8  C   UNL     1       8.836   9.800  -1.896  0.00  0.00    +0.075 A 
ATOM      9  C   UNL     1       7.565  10.024  -1.272  0.00  0.00    +0.260 A 
ATOM     10  O   UNL     1       7.159  11.157  -1.083  0.00  0.00    -0.267 OA
ATOM     11  N   UNL     1       6.824   8.962  -0.906  0.00  0.00    -0.309 N 
ATOM     12  H   UNL     1       5.961   9.107  -0.487  0.00  0.00    +0.170 HD
ATOM     13  C   UNL     1       7.262   7.692  -1.104  0.00  0.00    +0.124 A 
ATOM     14  N   UNL     1       8.416   7.456  -1.669  0.00  0.00    -0.225 NA
ATOM     15  C   UNL     1      12.083  11.136  -3.503  0.00  0.00    +0.052 C 
ENDBRANCH   1  13
BRANCH   1  16
ATOM     16  S   UNL     1       4.667   7.057  -0.627  0.00  0.00    -0.075 S 
BRANCH  16  17
ATOM     17  C   UNL     1       3.894   5.519  -0.251  0.00  0.00    +0.192 A 
ATOM     18  N   UNL     1       4.498   4.366  -0.070  0.00  0.00    -0.122 NA
ATOM     19  N   UNL     1       3.634   3.451   0.188  0.00  0.00    -0.128 NA
ATOM     20  C   UNL     1       2.425   3.963   0.189  0.00  0.00    +0.166 A 
ATOM     21  N   UNL     1       2.554   5.302  -0.097  0.00  0.00    -0.305 N 
ATOM     22  C   UNL     1       1.478   6.291  -0.211  0.00  0.00    +0.153 C 
BRANCH  20  23
ATOM     23  C   UNL     1       1.163   3.236   0.444  0.00  0.00    +0.038 A 
ATOM     24  C   UNL     1       0.218   3.760   1.327  0.00  0.00    +0.013 A 
ATOM     25  C   UNL     1      -0.957   3.077   1.561  0.00  0.00    +0.001 A 
ATOM     26  C   UNL     1      -1.199   1.872   0.925  0.00  0.00    +0.001 A 
ATOM     27  C   UNL     1      -0.270   1.349   0.044  0.00  0.00    +0.021 A 
ATOM     28  C   UNL     1       0.911   2.022  -0.199  0.00  0.00    +0.052 A 
ATOM     29 CL   UNL     1       2.079   1.361  -1.300  0.00  0.00    -0.083 Cl
ENDBRANCH  20  23
ENDBRANCH  16  17
ENDBRANCH   1  16
TORSDOF 4
