REMARK  Name = ZINC02218567
REMARK  12 active torsions:
REMARK  status: ('A' for Active; 'I' for Inactive)
REMARK    1  A    between atoms: C_1  and  C_2
REMARK    2  A    between atoms: N_8  and  C_9
REMARK    3  A    between atoms: C_9  and  C_10
REMARK    4  A    between atoms: C_10  and  C_11
REMARK    5  A    between atoms: C_14  and  O_17
REMARK    6  A    between atoms: O_17  and  C_18
REMARK    7  A    between atoms: C_19  and  C_27
REMARK    8  A    between atoms: C_21  and  C_25
REMARK    9  A    between atoms: C_22  and  N_24
REMARK   10  A    between atoms: C_30  and  C_33
REMARK   11  A    between atoms: C_33  and  C_34
REMARK   12  A    between atoms: C_33  and  C_35
REMARK                            x       y       z     vdW  Elec       q    Type
REMARK                         _______ _______ _______ _____ _____    ______ ____
ROOT
ATOM      1  C   UNL     1      -1.620  -0.797   2.503  0.00  0.00    +0.064 C 
ATOM      2  C   UNL     1      -0.436  -0.049   3.060  0.00  0.00    +0.022 A 
ATOM      3  C   UNL     1       0.089  -0.421   4.247  0.00  0.00    +0.068 A 
ATOM      4  C   UNL     1       1.193   0.280   4.776  0.00  0.00    +0.141 A 
ATOM      5  C   UNL     1       1.718   1.335   4.060  0.00  0.00    +0.072 A 
ATOM      6  C   UNL     1       1.144   1.682   2.831  0.00  0.00    +0.259 A 
ATOM      7  O   UNL     1       1.599   2.614   2.186  0.00  0.00    -0.267 OA
ATOM      8  N   UNL     1       0.091   0.989   2.359  0.00  0.00    -0.312 N 
ATOM      9  C   UNL     1       2.894   2.111   4.587  0.00  0.00    +0.103 C 
ATOM     10  C   UNL     1       3.577   1.337   5.680  0.00  0.00    +0.098 C 
ATOM     11  C   UNL     1       2.962   0.299   6.296  0.00  0.00    +0.199 C 
ATOM     12  O   UNL     1       1.718  -0.088   5.964  0.00  0.00    -0.441 OA
ENDROOT
BRANCH   9  13
ATOM     13  C   UNL     1       2.417   3.432   5.133  0.00  0.00    -0.034 A 
ATOM     14  C   UNL     1       1.500   3.461   6.167  0.00  0.00    +0.005 A 
ATOM     15  C   UNL     1       1.066   4.673   6.672  0.00  0.00    +0.004 A 
ATOM     16  C   UNL     1       1.541   5.855   6.136  0.00  0.00    -0.045 A 
ATOM     17  C   UNL     1       2.455   5.825   5.098  0.00  0.00    +0.004 A 
ATOM     18  C   UNL     1       2.893   4.614   4.597  0.00  0.00    +0.005 A 
BRANCH  16  19
ATOM     19  C   UNL     1       1.064   7.176   6.682  0.00  0.00    +0.013 C 
ATOM     20  C   UNL     1      -0.454   7.278   6.515  0.00  0.00    +0.012 C 
ATOM     21  C   UNL     1       1.421   7.273   8.166  0.00  0.00    +0.012 C 
ENDBRANCH  16  19
ENDBRANCH   9  13
BRANCH  11  22
ATOM     22  N   UNL     1       3.627  -0.376   7.288  0.00  0.00    -0.328 N 
ATOM     23  H   UNL     1       3.142  -1.221   7.799  0.00  0.00    +0.145 HD
ATOM     24  H   UNL     1       4.646  -0.072   7.573  0.00  0.00    +0.145 HD
ENDBRANCH  11  22
BRANCH  10  25
ATOM     25  C   UNL     1       4.903   1.703   6.077  0.00  0.00    +0.101 C 
ATOM     26  N   UNL     1       5.955   1.993   6.392  0.00  0.00    -0.191 NA
ENDBRANCH  10  25
BRANCH   8  27
ATOM     27  C   UNL     1      -0.499   1.362   1.071  0.00  0.00    +0.130 C 
BRANCH  27  28
ATOM     28  C   UNL     1       0.226   0.624  -0.056  0.00  0.00    +0.057 C 
BRANCH  28  29
ATOM     29  C   UNL     1      -0.381   1.008  -1.381  0.00  0.00    -0.045 A 
ATOM     30  C   UNL     1      -1.433   0.274  -1.897  0.00  0.00    +0.007 A 
ATOM     31  C   UNL     1      -1.995   0.627  -3.108  0.00  0.00    +0.046 A 
ATOM     32  C   UNL     1      -1.495   1.713  -3.812  0.00  0.00    +0.120 A 
ATOM     33  C   UNL     1      -0.436   2.444  -3.296  0.00  0.00    +0.046 A 
ATOM     34  C   UNL     1       0.119   2.090  -2.081  0.00  0.00    +0.007 A 
BRANCH  32  35
ATOM     35  O   UNL     1      -2.043   2.059  -5.007  0.00  0.00    -0.495 OA
ATOM     36  C   UNL     1      -3.131   1.261  -5.478  0.00  0.00    +0.277 C 
ENDBRANCH  32  35
ENDBRANCH  28  29
ENDBRANCH  27  28
ENDBRANCH   8  27
TORSDOF 8
