REMARK  Name = ZINC20558520
REMARK  6 active torsions:
REMARK  status: ('A' for Active; 'I' for Inactive)
REMARK    1  A    between atoms: C_5  and  C_7
REMARK    2  A    between atoms: C_7  and  N_8
REMARK    3  A    between atoms: C_20  and  C_28
REMARK    4  A    between atoms: C_22  and  C_26
REMARK    5  A    between atoms: C_23  and  N_25
REMARK    6  A    between atoms: C_31  and  O_34
REMARK                            x       y       z     vdW  Elec       q    Type
REMARK                         _______ _______ _______ _____ _____    ______ ____
ROOT
ATOM      1  N   UNL     1      -4.267   4.157   3.744  0.00  0.00    -0.198 N 
ATOM      2  C   UNL     1      -5.046   2.998   3.645  0.00  0.00    +0.062 A 
ATOM      3  C   UNL     1      -5.788   2.596   4.748  0.00  0.00    +0.025 A 
ATOM      4  C   UNL     1      -6.561   1.454   4.686  0.00  0.00    +0.002 A 
ATOM      5  C   UNL     1      -6.598   0.705   3.522  0.00  0.00    +0.001 A 
ATOM      6  C   UNL     1      -5.870   1.093   2.420  0.00  0.00    +0.013 A 
ATOM      7  C   UNL     1      -5.083   2.252   2.466  0.00  0.00    +0.042 A 
ATOM      8  C   UNL     1      -4.330   2.625   1.245  0.00  0.00    +0.162 C 
ATOM      9  C   UNL     1      -3.319   3.488   1.284  0.00  0.00    +0.141 C 
ATOM     10  S   UNL     1      -2.871   4.208   2.837  0.00  0.00    +0.076 S 
ATOM     11  O   UNL     1      -1.943   3.325   3.452  0.00  0.00    -0.150 OA
ATOM     12  O   UNL     1      -2.585   5.579   2.593  0.00  0.00    -0.150 OA
ATOM     13  C   UNL     1      -2.553   3.867   0.047  0.00  0.00    +0.118 C 
ATOM     14  C   UNL     1      -3.343   3.502  -1.181  0.00  0.00    +0.099 C 
ATOM     15  C   UNL     1      -4.369   2.623  -1.099  0.00  0.00    +0.199 C 
ATOM     16  O   UNL     1      -4.704   2.053   0.069  0.00  0.00    -0.439 OA
ENDROOT
BRANCH  13  17
ATOM     17  C   UNL     1      -1.237   3.133   0.030  0.00  0.00    -0.033 A 
ATOM     18  C   UNL     1      -1.218   1.751   0.017  0.00  0.00    +0.008 A 
ATOM     19  C   UNL     1      -0.013   1.076   0.008  0.00  0.00    +0.046 A 
ATOM     20  C   UNL     1       1.179   1.786   0.000  0.00  0.00    +0.117 A 
ATOM     21  C   UNL     1       1.157   3.174   0.008  0.00  0.00    +0.046 A 
ATOM     22  C   UNL     1      -0.051   3.844   0.023  0.00  0.00    +0.008 A 
BRANCH  20  23
ATOM     23  O   UNL     1       2.366   1.125  -0.014  0.00  0.00    -0.507 OA
ATOM     24  H   UNL     1       3.310   1.689  -0.020  0.00  0.00    +0.292 HD
ENDBRANCH  20  23
ENDBRANCH  13  17
BRANCH  15  25
ATOM     25  N   UNL     1      -5.079   2.307  -2.231  0.00  0.00    -0.328 N 
ATOM     26  H   UNL     1      -5.915   1.594  -2.175  0.00  0.00    +0.145 HD
ATOM     27  H   UNL     1      -4.813   2.767  -3.193  0.00  0.00    +0.145 HD
ENDBRANCH  15  25
BRANCH  14  28
ATOM     28  C   UNL     1      -3.009   4.088  -2.444  0.00  0.00    +0.101 C 
ATOM     29  N   UNL     1      -2.745   4.553  -3.446  0.00  0.00    -0.191 NA
ENDBRANCH  14  28
BRANCH   1  30
ATOM     30  C   UNL     1      -4.662   5.273   4.606  0.00  0.00    +0.169 C 
BRANCH  30  35
ATOM     31  C   UNL     1      -6.038   8.159   2.598  0.00  0.00    +0.000 A 
ATOM     32  C   UNL     1      -7.373   7.813   2.494  0.00  0.00    +0.003 A 
ATOM     33  C   UNL     1      -7.832   6.646   3.073  0.00  0.00    +0.038 A 
ATOM     34  C   UNL     1      -6.954   5.822   3.758  0.00  0.00    +0.128 A 
ATOM     35  C   UNL     1      -5.618   6.169   3.861  0.00  0.00    +0.007 A 
ATOM     36  C   UNL     1      -5.162   7.340   3.286  0.00  0.00    +0.008 A 
ATOM     37  F   UNL     1      -7.402   4.680   4.325  0.00  0.00    -0.205 F 
ENDBRANCH  30  35
ENDBRANCH   1  30
TORSDOF 6
