REMARK  Name = ZINC36545325
REMARK  14 active torsions:
REMARK  status: ('A' for Active; 'I' for Inactive)
REMARK    1  A    between atoms: C_1  and  C_2
REMARK    2  A    between atoms: C_2  and  C_3
REMARK    3  A    between atoms: C_3  and  C_4
REMARK    4  A    between atoms: C_4  and  N_5
REMARK    5  A    between atoms: C_6  and  C_8
REMARK    6  A    between atoms: C_8  and  C_10
REMARK    7  A    between atoms: C_8  and  N_19
REMARK    8  A    between atoms: C_13  and  O_18
REMARK    9  A    between atoms: C_14  and  O_16
REMARK   10  A    between atoms: O_16  and  C_17
REMARK   11  A    between atoms: N_19  and  C_20
REMARK   12  A    between atoms: C_27  and  C_29
REMARK   13  A    between atoms: C_30  and  O_36
REMARK   14  A    between atoms: C_34  and  O_35
REMARK                            x       y       z     vdW  Elec       q    Type
REMARK                         _______ _______ _______ _____ _____    ______ ____
ROOT
ATOM      1  N   UNL     1      -4.234  -5.939   0.107  0.00  0.00    -0.250 N 
ATOM      2  C   UNL     1      -5.451  -6.479  -0.103  0.00  0.00    +0.259 C 
ATOM      3  O   UNL     1      -6.389  -5.766  -0.403  0.00  0.00    -0.269 OA
ENDROOT
BRANCH   1   4
ATOM      4  C   UNL     1      -3.139  -6.765   0.379  0.00  0.00    +0.056 A 
ATOM      5  C   UNL     1      -2.862  -7.146   1.686  0.00  0.00    +0.025 A 
ATOM      6  C   UNL     1      -1.780  -7.962   1.952  0.00  0.00    +0.002 A 
ATOM      7  C   UNL     1      -0.973  -8.402   0.918  0.00  0.00    +0.002 A 
ATOM      8  C   UNL     1      -1.245  -8.025  -0.384  0.00  0.00    +0.022 A 
ATOM      9  C   UNL     1      -2.329  -7.213  -0.658  0.00  0.00    +0.062 A 
ATOM     10 CL   UNL     1      -2.675  -6.746  -2.294  0.00  0.00    -0.082 Cl
ENDBRANCH   1   4
BRANCH   2  11
ATOM     11  C   UNL     1      -5.644  -7.932   0.030  0.00  0.00    +0.120 A 
ATOM     12  C   UNL     1      -5.883  -8.501   1.290  0.00  0.00    +0.133 A 
ATOM     13  C   UNL     1      -6.063  -9.870   1.404  0.00  0.00    +0.046 A 
ATOM     14  C   UNL     1      -6.007 -10.675   0.281  0.00  0.00    +0.007 A 
ATOM     15  C   UNL     1      -5.771 -10.125  -0.965  0.00  0.00    +0.046 A 
ATOM     16  C   UNL     1      -5.595  -8.758  -1.103  0.00  0.00    +0.133 A 
BRANCH  16  17
ATOM     17  O   UNL     1      -5.369  -8.220  -2.328  0.00  0.00    -0.506 OA
ATOM     18  H   UNL     1      -4.434  -8.156  -2.563  0.00  0.00    +0.292 HD
ENDBRANCH  16  17
BRANCH  12  19
ATOM     19  O   UNL     1      -5.938  -7.713   2.393  0.00  0.00    -0.506 OA
ATOM     20  H   UNL     1      -6.823  -7.379   2.595  0.00  0.00    +0.292 HD
ENDBRANCH  12  19
ENDBRANCH   2  11
BRANCH   1  21
ATOM     21  C   UNL     1      -4.058  -4.485   0.050  0.00  0.00    +0.198 C 
BRANCH  21  22
ATOM     22  C   UNL     1      -4.886  -3.837   1.130  0.00  0.00    -0.014 A 
ATOM     23  C   UNL     1      -4.827  -4.316   2.425  0.00  0.00    +0.010 A 
ATOM     24  C   UNL     1      -5.584  -3.725   3.420  0.00  0.00    +0.049 A 
ATOM     25  C   UNL     1      -6.404  -2.649   3.119  0.00  0.00    +0.158 A 
ATOM     26  C   UNL     1      -6.462  -2.166   1.815  0.00  0.00    +0.162 A 
ATOM     27  C   UNL     1      -5.697  -2.760   0.825  0.00  0.00    +0.055 A 
BRANCH  26  28
ATOM     28  O   UNL     1      -7.265  -1.109   1.515  0.00  0.00    -0.491 OA
ATOM     29  C   UNL     1      -7.274  -0.667   0.156  0.00  0.00    +0.277 C 
ENDBRANCH  26  28
BRANCH  25  30
ATOM     30  O   UNL     1      -7.149  -2.066   4.096  0.00  0.00    -0.503 OA
ATOM     31  H   UNL     1      -6.701  -1.343   4.554  0.00  0.00    +0.292 HD
ENDBRANCH  25  30
ENDBRANCH  21  22
BRANCH  21  33
ATOM     32  N   UNL     1      -2.014  -3.210  -0.509  0.00  0.00    -0.313 N 
ATOM     33  C   UNL     1      -2.605  -4.146   0.259  0.00  0.00    +0.238 C 
ATOM     34  O   UNL     1      -1.967  -4.716   1.119  0.00  0.00    -0.273 OA
ATOM     35  H   UNL     1      -2.525  -2.753  -1.196  0.00  0.00    +0.149 HD
BRANCH  32  36
ATOM     36  C   UNL     1      -0.601  -2.880  -0.305  0.00  0.00    +0.104 C 
BRANCH  36  37
ATOM     37  C   UNL     1      -0.182  -1.795  -1.300  0.00  0.00    +0.018 C 
BRANCH  37  39
ATOM     38  C   UNL     1       1.712  -0.366  -2.081  0.00  0.00    +0.004 C 
ATOM     39  C   UNL     1       1.293  -1.451  -1.087  0.00  0.00    -0.002 C 
ENDBRANCH  37  39
ENDBRANCH  36  37
ENDBRANCH  32  36
ENDBRANCH  21  33
ENDBRANCH   1  21
TORSDOF 12
