REMARK  Name = ZINC13560663
REMARK  14 active torsions:
REMARK  status: ('A' for Active; 'I' for Inactive)
REMARK    1  A    between atoms: C_1  and  C_2
REMARK    2  A    between atoms: C_4  and  C_31
REMARK    3  A    between atoms: N_5  and  C_12
REMARK    4  A    between atoms: C_6  and  C_8
REMARK    5  A    between atoms: C_8  and  C_9
REMARK    6  A    between atoms: C_8  and  C_10
REMARK    7  A    between atoms: C_8  and  C_11
REMARK    8  A    between atoms: C_15  and  S_18
REMARK    9  A    between atoms: S_18  and  N_21
REMARK   10  A    between atoms: C_25  and  S_27
REMARK   11  A    between atoms: S_27  and  N_30
REMARK   12  A    between atoms: C_31  and  C_32
REMARK   13  A    between atoms: C_31  and  C_33
REMARK   14  A    between atoms: C_31  and  C_34
REMARK                            x       y       z     vdW  Elec       q    Type
REMARK                         _______ _______ _______ _____ _____    ______ ____
ROOT
ATOM      1  C   UNL     1      -1.658   1.671   1.851  0.00  0.00    +0.047 A 
ATOM      2  C   UNL     1      -0.303   1.417   1.653  0.00  0.00    +0.028 A 
ATOM      3  C   UNL     1       0.292   1.750   0.453  0.00  0.00    +0.031 A 
ATOM      4  C   UNL     1      -0.454   2.345  -0.549  0.00  0.00    +0.109 A 
ATOM      5  C   UNL     1      -1.799   2.604  -0.356  0.00  0.00    +0.031 A 
ATOM      6  C   UNL     1      -2.404   2.270   0.838  0.00  0.00    +0.028 A 
ENDROOT
BRANCH   1  11
ATOM      7  C   UNL     1      -4.094   0.296   6.729  0.00  0.00    +0.044 C 
ATOM      8  C   UNL     1      -3.443   0.665   5.420  0.00  0.00    -0.047 A 
ATOM      9  C   UNL     1      -2.944   1.943   5.213  0.00  0.00    +0.025 A 
ATOM     10  C   UNL     1      -2.355   2.248   4.003  0.00  0.00    +0.030 A 
ATOM     11  N   UNL     1      -2.259   1.334   3.047  0.00  0.00    -0.316 N 
ATOM     12  C   UNL     1      -2.730   0.106   3.211  0.00  0.00    +0.030 A 
ATOM     13  C   UNL     1      -3.331  -0.265   4.397  0.00  0.00    +0.025 A 
BRANCH  12  14
ATOM     14  C   UNL     1      -2.604  -0.897   2.094  0.00  0.00    +0.003 C 
ATOM     15  C   UNL     1      -3.466  -2.122   2.408  0.00  0.00    +0.017 C 
ATOM     16  C   UNL     1      -1.141  -1.325   1.956  0.00  0.00    +0.017 C 
ATOM     17  C   UNL     1      -3.075  -0.264   0.784  0.00  0.00    +0.017 C 
ENDBRANCH  12  14
BRANCH  10  18
ATOM     18  C   UNL     1      -1.810   3.633   3.767  0.00  0.00    +0.003 C 
ATOM     19  C   UNL     1      -1.861   4.430   5.072  0.00  0.00    +0.017 C 
ATOM     20  C   UNL     1      -0.361   3.536   3.286  0.00  0.00    +0.017 C 
ATOM     21  C   UNL     1      -2.654   4.340   2.704  0.00  0.00    +0.017 C 
ENDBRANCH  10  18
ENDBRANCH   1  11
BRANCH   4  22
ATOM     22  S   UNL     1       0.313   2.775  -2.076  0.00  0.00    +0.074 S 
ATOM     23  O   UNL     1       1.450   1.933  -2.211  0.00  0.00    -0.150 OA
ATOM     24  O   UNL     1      -0.720   2.821  -3.050  0.00  0.00    -0.150 OA
BRANCH  22  25
ATOM     25  N   UNL     1       0.885   4.321  -1.919  0.00  0.00    -0.192 N 
ATOM     26  C   UNL     1       1.896   4.598  -1.011  0.00  0.00    +0.202 A 
ATOM     27  N   UNL     1       2.541   3.790  -0.179  0.00  0.00    -0.123 NA
ATOM     28  N   UNL     1       3.447   4.213   0.590  0.00  0.00    -0.119 NA
ATOM     29  C   UNL     1       3.809   5.479   0.617  0.00  0.00    +0.256 A 
ATOM     30  S   UNL     1       2.710   6.146  -0.629  0.00  0.00    -0.009 S 
ATOM     31  H   UNL     1       0.512   5.033  -2.462  0.00  0.00    +0.176 HD
BRANCH  29  32
ATOM     32  S   UNL     1       5.033   6.285   1.595  0.00  0.00    +0.081 S 
ATOM     33  O   UNL     1       4.661   7.655   1.664  0.00  0.00    -0.151 OA
ATOM     34  O   UNL     1       5.215   5.487   2.757  0.00  0.00    -0.151 OA
BRANCH  32  35
ATOM     35  N   UNL     1       6.456   6.223   0.750  0.00  0.00    -0.202 NA
ATOM     36  H   UNL     1       7.114   6.927   0.856  0.00  0.00    +0.144 HD
ATOM     37  H   UNL     1       6.630   5.482   0.149  0.00  0.00    +0.144 HD
ENDBRANCH  32  35
ENDBRANCH  29  32
ENDBRANCH  22  25
ENDBRANCH   4  22
TORSDOF 7
