REMARK  Name = ZINC63655469
REMARK  5 active torsions:
REMARK  status: ('A' for Active; 'I' for Inactive)
REMARK    1  A    between atoms: C_1  and  C_2
REMARK    2  A    between atoms: C_9  and  N_12
REMARK    3  A    between atoms: C_13  and  C_15
REMARK    4  A    between atoms: N_20  and  S_22
REMARK    5  A    between atoms: S_22  and  C_25
REMARK                            x       y       z     vdW  Elec       q    Type
REMARK                         _______ _______ _______ _____ _____    ______ ____
ROOT
ATOM      1  C   UNL     1       2.668  -7.165   2.945  0.00  0.00    +0.091 C 
ATOM      2  C   UNL     1       3.875  -6.227   3.008  0.00  0.00    +0.015 C 
ATOM      3  C   UNL     1       5.152  -7.048   3.200  0.00  0.00    +0.018 C 
ATOM      4  C   UNL     1       5.067  -7.815   4.524  0.00  0.00    +0.109 C 
ATOM      5  N   UNL     1       3.831  -8.610   4.531  0.00  0.00    -0.176 NA
ATOM      6  C   UNL     1       2.554  -7.934   4.266  0.00  0.00    +0.122 C 
ENDROOT
BRANCH   1   8
ATOM      7  N   UNL     1       1.291  -5.596   1.619  0.00  0.00    -0.288 N 
ATOM      8  C   UNL     1       1.415  -6.358   2.724  0.00  0.00    +0.219 C 
ATOM      9  O   UNL     1       0.518  -6.394   3.539  0.00  0.00    -0.275 OA
ATOM     10  H   UNL     1       2.008  -5.567   0.967  0.00  0.00    +0.151 HD
BRANCH   7  19
ATOM     11  C   UNL     1      -0.018   1.503   0.010  0.00  0.00    +0.044 C 
ATOM     12  C   UNL     1       0.002  -0.004   0.002  0.00  0.00    -0.049 A 
ATOM     13  C   UNL     1       0.006  -0.700  -1.193  0.00  0.00    +0.005 A 
ATOM     14  C   UNL     1       0.025  -2.075  -1.215  0.00  0.00    +0.024 A 
ATOM     15  C   UNL     1       0.040  -2.822  -0.023  0.00  0.00    +0.043 A 
ATOM     16  C   UNL     1       0.035  -2.090   1.168  0.00  0.00    +0.032 A 
ATOM     17  C   UNL     1       0.023  -0.714   1.191  0.00  0.00    +0.020 A 
ATOM     18  S   UNL     1       0.057  -3.310   2.462  0.00  0.00    -0.082 S 
ATOM     19  C   UNL     1       0.072  -4.811   1.404  0.00  0.00    +0.224 C 
ATOM     20  N   UNL     1       0.059  -4.213   0.062  0.00  0.00    -0.316 N 
ATOM     21  H   UNL     1       0.062  -4.766  -0.735  0.00  0.00    +0.149 HD
ENDBRANCH   7  19
ENDBRANCH   1   8
BRANCH   5  22
ATOM     22  S   UNL     1       3.877 -10.238   4.831  0.00  0.00    +0.061 S 
ATOM     23  O   UNL     1       2.711 -10.793   4.239  0.00  0.00    -0.153 OA
ATOM     24  O   UNL     1       5.186 -10.677   4.493  0.00  0.00    -0.153 OA
BRANCH  22  25
ATOM     25  C   UNL     1       3.708 -10.452   6.572  0.00  0.00    +0.109 A 
ATOM     26  C   UNL     1       4.835 -10.473   7.375  0.00  0.00    +0.031 A 
ATOM     27  C   UNL     1       4.711 -10.640   8.741  0.00  0.00    +0.031 A 
ATOM     28  C   UNL     1       3.454 -10.786   9.306  0.00  0.00    +0.087 A 
ATOM     29  C   UNL     1       2.318 -10.764   8.498  0.00  0.00    +0.159 A 
ATOM     30  C   UNL     1       2.452 -10.591   7.129  0.00  0.00    +0.077 A 
ATOM     31  O   UNL     1       1.244 -10.927   9.308  0.00  0.00    -0.408 OA
ATOM     32  C   UNL     1       1.663 -11.049  10.577  0.00  0.00    +0.419 A 
ATOM     33  O   UNL     1       0.942 -11.208  11.543  0.00  0.00    -0.223 OA
ATOM     34  N   UNL     1       3.008 -10.967  10.615  0.00  0.00    -0.288 N 
ATOM     35  H   UNL     1       3.564 -11.024  11.408  0.00  0.00    +0.172 HD
ENDBRANCH  22  25
ENDBRANCH   5  22
TORSDOF 4
