REMARK  Name = ZINC16065192
REMARK  4 active torsions:
REMARK  status: ('A' for Active; 'I' for Inactive)
REMARK    1  A    between atoms: C_8  and  C_10
REMARK    2  A    between atoms: N_12  and  N_13
REMARK    3  A    between atoms: C_14  and  C_16
REMARK    4  A    between atoms: C_16  and  C_17
REMARK                            x       y       z     vdW  Elec       q    Type
REMARK                         _______ _______ _______ _____ _____    ______ ____
ROOT
ATOM      1  C   UNL     1      -1.183   2.679   0.022  0.00  0.00    +0.268 C 
ATOM      2  O   UNL     1      -1.018   3.885   0.028  0.00  0.00    -0.268 OA
ATOM      3  N   UNL     1      -2.430   2.169   0.026  0.00  0.00    -0.230 N 
ATOM      4  H   UNL     1      -2.561   1.208   0.022  0.00  0.00    +0.173 HD
ENDROOT
BRANCH   1  12
ATOM      5  C   UNL     1       4.482   0.117  -0.041  0.00  0.00    +0.001 A 
ATOM      6  C   UNL     1       3.955  -1.169  -0.043  0.00  0.00    +0.001 A 
ATOM      7  C   UNL     1       2.587  -1.343  -0.030  0.00  0.00    +0.016 A 
ATOM      8  C   UNL     1       1.762  -0.238  -0.016  0.00  0.00    +0.021 A 
ATOM      9  C   UNL     1       2.270   1.082  -0.014  0.00  0.00    +0.008 A 
ATOM     10  C   UNL     1       3.683   1.214  -0.027  0.00  0.00    +0.010 A 
ATOM     11  C   UNL     1       1.300   2.102   0.001  0.00  0.00    +0.068 A 
ATOM     12  C   UNL     1      -0.022   1.780   0.012  0.00  0.00    +0.095 A 
ATOM     13  S   UNL     1       0.002  -0.004   0.002  0.00  0.00    -0.082 S 
ATOM     14 CL   UNL     1       1.789   3.768   0.005  0.00  0.00    -0.082 Cl
ENDBRANCH   1  12
BRANCH   3  15
ATOM     15  N   UNL     1      -3.538   3.027   0.037  0.00  0.00    -0.234 N 
ATOM     16  C   UNL     1      -4.785   2.517   0.041  0.00  0.00    +0.233 C 
ATOM     17  O   UNL     1      -4.949   1.316   0.035  0.00  0.00    -0.274 OA
ATOM     18  H   UNL     1      -3.407   3.988   0.041  0.00  0.00    +0.173 HD
BRANCH  16  19
ATOM     19  C   UNL     1      -5.977   3.440   0.052  0.00  0.00    +0.132 C 
BRANCH  19  20
ATOM     20  C   UNL     1      -7.244   2.625   0.054  0.00  0.00    -0.038 A 
ATOM     21  C   UNL     1      -7.834   2.262  -1.142  0.00  0.00    +0.007 A 
ATOM     22  C   UNL     1      -8.994   1.510  -1.141  0.00  0.00    +0.038 A 
ATOM     23  C   UNL     1      -9.570   1.129   0.059  0.00  0.00    +0.123 A 
ATOM     24  C   UNL     1      -8.981   1.497   1.256  0.00  0.00    +0.038 A 
ATOM     25  C   UNL     1      -7.818   2.245   1.253  0.00  0.00    +0.007 A 
ATOM     26  F   UNL     1     -10.706   0.398   0.061  0.00  0.00    -0.205 F 
ENDBRANCH  19  20
ENDBRANCH  16  19
ENDBRANCH   3  15
TORSDOF 4
