REMARK  Name = ZINC63367413
REMARK  10 active torsions:
REMARK  status: ('A' for Active; 'I' for Inactive)
REMARK    1  A    between atoms: C_1  and  C_2
REMARK    2  A    between atoms: C_2  and  C_3
REMARK    3  A    between atoms: C_2  and  C_4
REMARK    4  A    between atoms: C_7  and  N_10
REMARK    5  A    between atoms: C_11  and  C_13
REMARK    6  A    between atoms: C_13  and  C_14
REMARK    7  A    between atoms: C_14  and  C_15
REMARK    8  A    between atoms: N_19  and  C_23
REMARK    9  A    between atoms: C_23  and  C_24
REMARK   10  A    between atoms: C_24  and  C_25
REMARK                            x       y       z     vdW  Elec       q    Type
REMARK                         _______ _______ _______ _____ _____    ______ ____
ROOT
ATOM      1  C   UNL     1      -8.974  -4.286  -2.387  0.00  0.00    +0.161 C 
ATOM      2  C   UNL     1      -9.289  -4.989  -3.692  0.00  0.00    +0.243 C 
ATOM      3  O   UNL     1      -9.213  -4.525  -4.810  0.00  0.00    -0.273 OA
ATOM      4  N   UNL     1      -9.670  -6.236  -3.353  0.00  0.00    -0.224 N 
ATOM      5  C   UNL     1      -9.640  -6.417  -2.028  0.00  0.00    +0.309 C 
ATOM      6  O   UNL     1      -9.941  -7.460  -1.482  0.00  0.00    -0.252 OA
ATOM      7  N   UNL     1      -9.241  -5.313  -1.364  0.00  0.00    -0.288 N 
ATOM      8  H   UNL     1      -9.145  -5.213  -0.404  0.00  0.00    +0.151 HD
ENDROOT
BRANCH   1   9
ATOM      9  C   UNL     1      -7.507  -3.855  -2.347  0.00  0.00    +0.041 C 
BRANCH   9  10
ATOM     10  C   UNL     1      -7.236  -3.087  -1.052  0.00  0.00    +0.098 C 
BRANCH  10  12
ATOM     11  N   UNL     1      -5.320  -1.968   0.042  0.00  0.00    -0.285 N 
ATOM     12  C   UNL     1      -5.790  -2.663  -1.013  0.00  0.00    +0.217 C 
ATOM     13  O   UNL     1      -5.050  -2.946  -1.931  0.00  0.00    -0.275 OA
ATOM     14  H   UNL     1      -5.891  -1.807   0.810  0.00  0.00    +0.155 HD
BRANCH  11  18
ATOM     15  C   UNL     1      -1.418  -0.509   0.005  0.00  0.00    -0.045 A 
ATOM     16  C   UNL     1      -2.137  -0.586  -1.174  0.00  0.00    +0.006 A 
ATOM     17  C   UNL     1      -3.431  -1.069  -1.165  0.00  0.00    +0.023 A 
ATOM     18  C   UNL     1      -4.010  -1.478   0.030  0.00  0.00    +0.033 A 
ATOM     19  C   UNL     1      -3.284  -1.400   1.212  0.00  0.00    +0.023 A 
ATOM     20  C   UNL     1      -1.989  -0.920   1.195  0.00  0.00    +0.006 A 
BRANCH  15  22
ATOM     21  C   UNL     1       0.857  -0.856  -0.919  0.00  0.00    +0.012 C 
ATOM     22  C   UNL     1      -0.007   0.019  -0.009  0.00  0.00    +0.013 C 
ATOM     23  C   UNL     1      -0.005   1.457  -0.532  0.00  0.00    +0.012 C 
ENDBRANCH  15  22
ENDBRANCH  11  18
ENDBRANCH  10  12
ENDBRANCH   9  10
ENDBRANCH   1   9
BRANCH   4  24
ATOM     24  C   UNL     1     -10.068  -7.266  -4.316  0.00  0.00    +0.122 C 
BRANCH  24  25
ATOM     25  C   UNL     1      -8.837  -8.068  -4.743  0.00  0.00    +0.052 C 
BRANCH  25  26
ATOM     26  C   UNL     1      -9.247  -9.127  -5.734  0.00  0.00    -0.040 C 
ATOM     27  C   UNL     1      -9.204  -9.039  -7.083  0.00  0.00    -0.001 A 
ATOM     28  C   UNL     1      -8.781  -7.971  -7.997  0.00  0.00    +0.010 A 
ATOM     29  C   UNL     1      -8.856  -8.181  -9.331  0.00  0.00    +0.001 A 
ATOM     30  C   UNL     1      -9.327  -9.390  -9.861  0.00  0.00    +0.002 A 
ATOM     31  C   UNL     1      -9.734 -10.417  -9.085  0.00  0.00    +0.026 A 
ATOM     32  C   UNL     1      -9.697 -10.306  -7.668  0.00  0.00    +0.043 A 
ATOM     33  N   UNL     1     -10.032 -11.145  -6.718  0.00  0.00    -0.380 N 
ATOM     34  C   UNL     1      -9.783 -10.506  -5.420  0.00  0.00    +0.144 C 
ATOM     35  H   UNL     1     -10.382 -12.040  -6.850  0.00  0.00    +0.160 HD
ENDBRANCH  25  26
ENDBRANCH  24  25
ENDBRANCH   4  24
TORSDOF 8
