REMARK  Name = ZINC39702184
REMARK  3 active torsions:
REMARK  status: ('A' for Active; 'I' for Inactive)
REMARK    1  A    between atoms: C_4  and  C_7
REMARK    2  A    between atoms: C_17  and  C_19
REMARK    3  A    between atoms: C_22  and  C_25
REMARK                            x       y       z     vdW  Elec       q    Type
REMARK                         _______ _______ _______ _____ _____    ______ ____
ROOT
ATOM      1  C   UNL     1       3.648  -0.649  -0.037  0.00  0.00    -0.014 C 
ATOM      2  C   UNL     1       4.861   0.036  -0.144  0.00  0.00    +0.002 A 
ATOM      3  C   UNL     1       4.888   1.444  -0.239  0.00  0.00    +0.025 A 
ATOM      4  C   UNL     1       6.083   2.086  -0.341  0.00  0.00    +0.019 A 
ATOM      5  C   UNL     1       7.286   1.381  -0.354  0.00  0.00    +0.017 A 
ATOM      6  C   UNL     1       7.323   0.023  -0.267  0.00  0.00    +0.025 A 
ATOM      7  C   UNL     1       6.126  -0.707  -0.158  0.00  0.00    +0.041 A 
ATOM      8  N   UNL     1       6.165  -2.041  -0.072  0.00  0.00    -0.284 N 
ATOM      9  C   UNL     1       5.089  -2.796   0.032  0.00  0.00    +0.230 C 
ATOM     10  O   UNL     1       5.200  -4.006   0.107  0.00  0.00    -0.274 OA
ATOM     11  C   UNL     1       3.718  -2.161   0.066  0.00  0.00    +0.152 C 
ATOM     12 BR   UNL     1       6.114   3.973  -0.468  0.00  0.00    -0.050 Br
ATOM     13  H   UNL     1       7.032  -2.477  -0.086  0.00  0.00    +0.155 HD
ENDROOT
BRANCH   1  17
ATOM     14  C   UNL     1      -0.017   1.380   0.012  0.00  0.00    +0.000 A 
ATOM     15  C   UNL     1       0.265   0.495  -1.016  0.00  0.00    +0.001 A 
ATOM     16  C   UNL     1       1.467  -0.177  -1.041  0.00  0.00    +0.008 A 
ATOM     17  C   UNL     1       2.408   0.038  -0.021  0.00  0.00    -0.020 A 
ATOM     18  C   UNL     1       2.112   0.938   1.016  0.00  0.00    +0.008 A 
ATOM     19  C   UNL     1       0.904   1.600   1.023  0.00  0.00    +0.001 A 
ENDBRANCH   1  17
BRANCH  11  20
ATOM     20  C   UNL     1       3.045  -2.567   1.352  0.00  0.00    +0.055 C 
ATOM     21  N   UNL     1       2.594  -1.765   2.227  0.00  0.00    -0.194 NA
ATOM     22  N   UNL     1       2.013  -2.382   3.333  0.00  0.00    -0.261 N 
ATOM     23  C   UNL     1       2.096  -3.841   3.156  0.00  0.00    +0.125 C 
ATOM     24  C   UNL     1       2.800  -3.993   1.792  0.00  0.00    +0.082 C 
ATOM     25  H   UNL     1       1.620  -1.926   4.093  0.00  0.00    +0.169 HD
BRANCH  23  26
ATOM     26  C   UNL     1       2.913  -4.465   4.258  0.00  0.00    -0.025 A 
ATOM     27  C   UNL     1       4.038  -3.817   4.735  0.00  0.00    +0.008 A 
ATOM     28  C   UNL     1       4.788  -4.387   5.746  0.00  0.00    +0.038 A 
ATOM     29  C   UNL     1       4.413  -5.608   6.281  0.00  0.00    +0.123 A 
ATOM     30  C   UNL     1       3.287  -6.256   5.802  0.00  0.00    +0.038 A 
ATOM     31  C   UNL     1       2.535  -5.681   4.795  0.00  0.00    +0.008 A 
ATOM     32  F   UNL     1       5.146  -6.167   7.269  0.00  0.00    -0.205 F 
ENDBRANCH  23  26
ENDBRANCH  11  20
TORSDOF 3
