REMARK  Name = ZINC06982049
REMARK  11 active torsions:
REMARK  status: ('A' for Active; 'I' for Inactive)
REMARK    1  A    between atoms: C_1  and  C_2
REMARK    2  A    between atoms: C_5  and  S_9
REMARK    3  A    between atoms: C_7  and  C_8
REMARK    4  A    between atoms: S_9  and  C_10
REMARK    5  A    between atoms: C_13  and  N_16
REMARK    6  A    between atoms: C_17  and  C_19
REMARK    7  A    between atoms: C_19  and  C_21
REMARK    8  A    between atoms: C_19  and  N_25
REMARK    9  A    between atoms: C_21  and  C_22
REMARK   10  A    between atoms: C_22  and  S_23
REMARK   11  A    between atoms: S_23  and  C_24
REMARK                            x       y       z     vdW  Elec       q    Type
REMARK                         _______ _______ _______ _____ _____    ______ ____
ROOT
ATOM      1  N   UNL     1      -1.810   0.712   4.136  0.00  0.00    -0.284 N 
ATOM      2  C   UNL     1      -1.313   1.677   3.338  0.00  0.00    +0.238 C 
ATOM      3  O   UNL     1      -1.495   2.845   3.613  0.00  0.00    -0.273 OA
ATOM      4  H   UNL     1      -1.730  -0.220   3.878  0.00  0.00    +0.155 HD
ENDROOT
BRANCH   1   8
ATOM      5  C   UNL     1      -3.695   1.729   7.715  0.00  0.00    +0.013 A 
ATOM      6  C   UNL     1      -4.122   0.619   6.996  0.00  0.00    +0.017 A 
ATOM      7  C   UNL     1      -3.498   0.283   5.811  0.00  0.00    +0.024 A 
ATOM      8  C   UNL     1      -2.444   1.053   5.338  0.00  0.00    +0.034 A 
ATOM      9  C   UNL     1      -2.013   2.159   6.060  0.00  0.00    +0.024 A 
ATOM     10  C   UNL     1      -2.640   2.499   7.242  0.00  0.00    +0.017 A 
BRANCH   5  11
ATOM     11  S   UNL     1      -4.490   2.158   9.227  0.00  0.00    -0.089 S 
BRANCH  11  16
ATOM     12  C   UNL     1      -1.931   7.398  10.787  0.00  0.00    +0.044 C 
ATOM     13  C   UNL     1      -2.570   6.090  10.397  0.00  0.00    -0.047 A 
ATOM     14  C   UNL     1      -2.080   4.902  10.910  0.00  0.00    +0.005 A 
ATOM     15  C   UNL     1      -2.666   3.703  10.561  0.00  0.00    +0.015 A 
ATOM     16  C   UNL     1      -3.744   3.688   9.683  0.00  0.00    +0.013 A 
ATOM     17  C   UNL     1      -4.234   4.882   9.169  0.00  0.00    +0.018 A 
ATOM     18  C   UNL     1      -3.646   6.079   9.528  0.00  0.00    -0.046 A 
ATOM     19  C   UNL     1      -4.177   7.375   8.972  0.00  0.00    +0.044 C 
ENDBRANCH  11  16
ENDBRANCH   5  11
ENDBRANCH   1   8
BRANCH   2  20
ATOM     20  C   UNL     1      -0.532   1.307   2.104  0.00  0.00    +0.161 C 
BRANCH  20  21
ATOM     21  N   UNL     1       0.285   2.448   1.682  0.00  0.00    -0.288 N 
ATOM     22  C   UNL     1      -0.305   3.615   1.356  0.00  0.00    +0.298 C 
ATOM     23  O   UNL     1      -1.515   3.721   1.411  0.00  0.00    -0.253 OA
ATOM     24  N   UNL     1       0.446   4.664   0.968  0.00  0.00    -0.313 N 
ATOM     25  H   UNL     1       1.250   2.363   1.638  0.00  0.00    +0.151 HD
ATOM     26  H   UNL     1       1.412   4.580   0.924  0.00  0.00    +0.146 HD
ATOM     27  H   UNL     1       0.022   5.504   0.733  0.00  0.00    +0.146 HD
ENDBRANCH  20  21
BRANCH  20  28
ATOM     28  C   UNL     1      -1.500   0.930   0.981  0.00  0.00    +0.042 C 
BRANCH  28  29
ATOM     29  C   UNL     1      -0.708   0.435  -0.231  0.00  0.00    +0.071 C 
BRANCH  29  30
ATOM     30  S   UNL     1      -1.857  -0.011  -1.562  0.00  0.00    -0.164 S 
ATOM     31  C   UNL     1      -0.774  -0.570  -2.906  0.00  0.00    +0.084 C 
ENDBRANCH  29  30
ENDBRANCH  28  29
ENDBRANCH  20  28
ENDBRANCH   2  20
TORSDOF 8
