REMARK  Name = ZINC66643276
REMARK  5 active torsions:
REMARK  status: ('A' for Active; 'I' for Inactive)
REMARK    1  A    between atoms: C_1  and  C_2
REMARK    2  A    between atoms: C_7  and  C_8
REMARK    3  A    between atoms: C_10  and  C_13
REMARK    4  A    between atoms: C_20  and  C_22
REMARK    5  A    between atoms: C_22  and  C_23
REMARK                            x       y       z     vdW  Elec       q    Type
REMARK                         _______ _______ _______ _____ _____    ______ ____
ROOT
ATOM      1  C   UNL     1      -0.481  -0.614   6.223  0.00  0.00    +0.266 C 
ATOM      2  O   UNL     1      -0.654   0.113   7.182  0.00  0.00    -0.268 OA
ATOM      3  N   UNL     1       0.052  -1.840   6.393  0.00  0.00    -0.293 N 
ATOM      4  C   UNL     1       0.141  -2.781   5.269  0.00  0.00    +0.108 C 
ATOM      5  C   UNL     1      -0.518  -4.102   5.678  0.00  0.00    +0.019 C 
ATOM      6  C   UNL     1       0.122  -4.607   6.972  0.00  0.00    +0.003 C 
ATOM      7  C   UNL     1      -0.107  -3.587   8.089  0.00  0.00    +0.023 C 
ATOM      8  C   UNL     1       0.562  -2.258   7.707  0.00  0.00    +0.085 C 
ENDROOT
BRANCH   1  11
ATOM      9  C   UNL     1      -0.873  -0.416   2.615  0.00  0.00    +0.109 A 
ATOM     10  N   UNL     1      -0.518  -0.864   3.805  0.00  0.00    -0.234 NA
ATOM     11  C   UNL     1      -0.854  -0.154   4.873  0.00  0.00    +0.133 A 
ATOM     12  C   UNL     1      -1.553   1.012   4.705  0.00  0.00    +0.080 A 
ATOM     13  S   UNL     1      -1.722   1.097   3.033  0.00  0.00    -0.075 S 
BRANCH   9  20
ATOM     14  C   UNL     1       1.782  -1.339   1.930  0.00  0.00    +0.044 C 
ATOM     15  C   UNL     1       0.651  -1.457   0.941  0.00  0.00    -0.041 A 
ATOM     16  C   UNL     1       0.874  -2.015  -0.301  0.00  0.00    +0.004 A 
ATOM     17  C   UNL     1      -0.163  -2.125  -1.209  0.00  0.00    +0.000 A 
ATOM     18  C   UNL     1      -1.430  -1.677  -0.879  0.00  0.00    +0.001 A 
ATOM     19  C   UNL     1      -1.666  -1.118   0.359  0.00  0.00    +0.011 A 
ATOM     20  C   UNL     1      -0.625  -1.009   1.282  0.00  0.00    +0.010 A 
ENDBRANCH   9  20
ENDBRANCH   1  11
BRANCH   8  21
ATOM     21  C   UNL     1       0.225  -1.192   8.751  0.00  0.00    +0.118 C 
BRANCH  21  22
ATOM     22  C   UNL     1       1.101   0.015   8.537  0.00  0.00    +0.212 C 
ATOM     23  O   UNL     1       1.915   0.022   7.638  0.00  0.00    -0.276 OA
ATOM     24  N   UNL     1       0.980   1.087   9.345  0.00  0.00    -0.329 N 
ATOM     25  H   UNL     1       0.329   1.082  10.064  0.00  0.00    +0.145 HD
ATOM     26  H   UNL     1       1.544   1.865   9.207  0.00  0.00    +0.145 HD
ENDBRANCH  21  22
ENDBRANCH   8  21
TORSDOF 4
