REMARK  Name = ZINC39938769
REMARK  9 active torsions:
REMARK  status: ('A' for Active; 'I' for Inactive)
REMARK    1  A    between atoms: C_1  and  C_2
REMARK    2  A    between atoms: C_6  and  N_12
REMARK    3  A    between atoms: C_9  and  C_11
REMARK    4  A    between atoms: C_13  and  C_15
REMARK    5  A    between atoms: C_15  and  S_16
REMARK    6  A    between atoms: S_16  and  C_17
REMARK    7  A    between atoms: C_21  and  C_29
REMARK    8  A    between atoms: N_22  and  C_23
REMARK    9  A    between atoms: C_29  and  C_30
REMARK                            x       y       z     vdW  Elec       q    Type
REMARK                         _______ _______ _______ _____ _____    ______ ____
ROOT
ATOM      1  C   UNL     1       5.281  -3.699  -3.207  0.00  0.00    +0.168 C 
ENDROOT
BRANCH   1   3
ATOM      2  N   UNL     1       3.313  -2.384  -2.487  0.00  0.00    -0.285 N 
ATOM      3  C   UNL     1       4.379  -2.496  -3.305  0.00  0.00    +0.225 C 
ATOM      4  O   UNL     1       4.612  -1.628  -4.119  0.00  0.00    -0.275 OA
ATOM      5  H   UNL     1       3.127  -3.079  -1.835  0.00  0.00    +0.151 HD
BRANCH   2  10
ATOM      6  C   UNL     1      -0.019   1.526   0.010  0.00  0.00    +0.030 C 
ATOM      7  C   UNL     1       0.002  -0.004   0.002  0.00  0.00    +0.099 C 
ATOM      8  C   UNL     1       0.712  -0.492  -1.232  0.00  0.00    -0.011 C 
ATOM      9  C   UNL     1       2.029  -0.763  -1.215  0.00  0.00    +0.065 C 
ATOM     10  C   UNL     1       2.437  -1.214  -2.581  0.00  0.00    +0.243 C 
ATOM     11  O   UNL     1       1.211  -1.562  -3.261  0.00  0.00    -0.347 OA
ATOM     12  C   UNL     1       0.198  -0.762  -2.613  0.00  0.00    +0.146 C 
ATOM     13  C   UNL     1       0.002   0.554  -3.369  0.00  0.00    +0.043 C 
ATOM     14  C   UNL     1       2.797  -0.603   0.029  0.00  0.00    +0.258 C 
ATOM     15  O   UNL     1       4.009  -0.695   0.056  0.00  0.00    -0.269 OA
ATOM     16  N   UNL     1       2.069  -0.345   1.144  0.00  0.00    -0.247 N 
ATOM     17  N   UNL     1       0.718  -0.493   1.188  0.00  0.00    -0.233 NA
ATOM     18  H   UNL     1       2.530  -0.044   1.943  0.00  0.00    +0.169 HD
ATOM     19  H   UNL     1       0.334  -0.094   2.031  0.00  0.00    +0.145 HD
ENDBRANCH   2  10
ENDBRANCH   1   3
BRANCH   1  20
ATOM     20  S   UNL     1       6.613  -3.557  -4.431  0.00  0.00    -0.109 S 
BRANCH  20  21
ATOM     21  C   UNL     1       7.595  -5.062  -4.186  0.00  0.00    +0.237 C 
ATOM     22  N   UNL     1       6.752  -6.261  -4.336  0.00  0.00    -0.238 N 
ATOM     23  N   UNL     1       6.795  -6.923  -3.103  0.00  0.00    -0.174 NA
ATOM     24  C   UNL     1       7.532  -6.299  -2.258  0.00  0.00    +0.123 C 
ATOM     25  N   UNL     1       8.082  -5.143  -2.799  0.00  0.00    -0.286 N 
ATOM     26  H   UNL     1       6.264  -6.536  -5.128  0.00  0.00    +0.171 HD
BRANCH  25  27
ATOM     27  C   UNL     1       8.969  -4.192  -2.124  0.00  0.00    +0.077 C 
ATOM     28  C   UNL     1      10.242  -4.912  -1.676  0.00  0.00    +0.022 C 
ATOM     29  C   UNL     1      11.169  -3.919  -0.972  0.00  0.00    +0.002 C 
ATOM     30  C   UNL     1      10.457  -3.334   0.250  0.00  0.00    +0.000 C 
ATOM     31  C   UNL     1       9.184  -2.614  -0.199  0.00  0.00    +0.002 C 
ATOM     32  C   UNL     1       8.257  -3.607  -0.903  0.00  0.00    +0.022 C 
ENDBRANCH  25  27
BRANCH  24  33
ATOM     33  C   UNL     1       7.772  -6.764  -0.845  0.00  0.00    +0.115 C 
BRANCH  33  34
ATOM     34  C   UNL     1       7.023  -8.049  -0.605  0.00  0.00    -0.003 A 
ATOM     35  C   UNL     1       7.438  -9.327  -0.787  0.00  0.00    +0.011 A 
ATOM     36  C   UNL     1       6.570 -10.362  -0.497  0.00  0.00    +0.008 A 
ATOM     37  C   UNL     1       5.328 -10.069  -0.038  0.00  0.00    +0.045 A 
ATOM     38  S   UNL     1       5.360  -8.285   0.002  0.00  0.00    -0.101 S 
ENDBRANCH  33  34
ENDBRANCH  24  33
ENDBRANCH  20  21
ENDBRANCH   1  20
TORSDOF 7
