REMARK  Name = ZINC43211288
REMARK  13 active torsions:
REMARK  status: ('A' for Active; 'I' for Inactive)
REMARK    1  A    between atoms: C_1  and  C_2
REMARK    2  A    between atoms: C_2  and  C_3
REMARK    3  A    between atoms: C_2  and  C_4
REMARK    4  A    between atoms: C_4  and  C_5
REMARK    5  A    between atoms: C_5  and  C_31
REMARK    6  A    between atoms: C_10  and  C_13
REMARK    7  A    between atoms: C_16  and  O_21
REMARK    8  A    between atoms: C_17  and  O_19
REMARK    9  A    between atoms: O_19  and  C_20
REMARK   10  A    between atoms: N_24  and  C_27
REMARK   11  A    between atoms: C_27  and  C_28
REMARK   12  A    between atoms: C_27  and  C_29
REMARK   13  A    between atoms: C_27  and  C_30
REMARK                            x       y       z     vdW  Elec       q    Type
REMARK                         _______ _______ _______ _____ _____    ______ ____
ROOT
ATOM      1  C   UNL     1      -1.568  -1.949  -0.091  0.00  0.00    +0.048 C 
ATOM      2  C   UNL     1      -3.017  -2.440   0.105  0.00  0.00    +0.086 C 
ATOM      3  C   UNL     1      -2.888  -3.733   0.955  0.00  0.00    +0.077 C 
ATOM      4  C   UNL     1      -1.372  -3.910   1.178  0.00  0.00    -0.027 C 
ATOM      5  N   UNL     1      -0.814  -2.532   1.048  0.00  0.00    +0.395 N 
ATOM      6  C   UNL     1      -3.557  -3.362   2.259  0.00  0.00    +0.225 C 
ATOM      7  O   UNL     1      -3.679  -4.095   3.217  0.00  0.00    -0.275 OA
ATOM      8  N   UNL     1      -3.995  -2.099   2.191  0.00  0.00    -0.236 N 
ATOM      9  C   UNL     1      -3.750  -1.478   1.014  0.00  0.00    +0.225 C 
ATOM     10  O   UNL     1      -4.059  -0.342   0.728  0.00  0.00    -0.275 OA
ATOM     11  H   UNL     1       0.171  -2.573   0.835  0.00  0.00    -0.083 HD
ATOM     12  H   UNL     1      -0.974  -1.996   1.888  0.00  0.00    -0.083 HD
ENDROOT
BRANCH   4  13
ATOM     13  C   UNL     1      -1.103  -4.442   2.562  0.00  0.00    -0.057 A 
ATOM     14  C   UNL     1      -1.122  -3.586   3.647  0.00  0.00    +0.006 A 
ATOM     15  C   UNL     1      -0.876  -4.069   4.918  0.00  0.00    +0.049 A 
ATOM     16  C   UNL     1      -0.611  -5.416   5.107  0.00  0.00    +0.158 A 
ATOM     17  C   UNL     1      -0.592  -6.279   4.016  0.00  0.00    +0.161 A 
ATOM     18  C   UNL     1      -0.844  -5.788   2.744  0.00  0.00    +0.051 A 
BRANCH  17  19
ATOM     19  O   UNL     1      -0.332  -7.601   4.196  0.00  0.00    -0.491 OA
ATOM     20  C   UNL     1      -0.330  -8.427   3.030  0.00  0.00    +0.277 C 
ENDBRANCH  17  19
BRANCH  16  21
ATOM     21  O   UNL     1      -0.369  -5.894   6.357  0.00  0.00    -0.503 OA
ATOM     22  H   UNL     1      -1.162  -6.187   6.827  0.00  0.00    +0.292 HD
ENDBRANCH  16  21
ENDBRANCH   4  13
BRANCH   8  23
ATOM     23  C   UNL     1      -4.691  -1.441   3.299  0.00  0.00    +0.036 C 
ATOM     24  C   UNL     1      -4.813  -2.413   4.474  0.00  0.00    +0.031 C 
ATOM     25  C   UNL     1      -3.899  -0.208   3.738  0.00  0.00    +0.031 C 
ATOM     26  C   UNL     1      -6.087  -1.015   2.843  0.00  0.00    +0.031 C 
ENDBRANCH   8  23
BRANCH   1  27
ATOM     27  C   UNL     1      -1.014  -2.451  -1.399  0.00  0.00    +0.346 C 
ATOM     28  O   UNL     1      -0.118  -3.278  -1.405  0.00  0.00    -0.248 OA
ATOM     29  O   UNL     1      -1.460  -2.029  -2.453  0.00  0.00    -0.248 OA
ENDBRANCH   1  27
BRANCH   1  30
ATOM     30  C   UNL     1      -1.512  -0.420  -0.041  0.00  0.00    +0.002 C 
BRANCH  30  32
ATOM     31  C   UNL     1       0.649  -0.298  -1.289  0.00  0.00    +0.007 C 
ATOM     32  C   UNL     1      -0.052   0.034   0.029  0.00  0.00    -0.018 C 
ATOM     33  C   UNL     1       0.001   1.544   0.268  0.00  0.00    +0.007 C 
ENDBRANCH  30  32
ENDBRANCH   1  30
TORSDOF 7
