REMARK  Name = ZINC60162229
REMARK  10 active torsions:
REMARK  status: ('A' for Active; 'I' for Inactive)
REMARK    1  A    between atoms: C_4  and  C_7
REMARK    2  A    between atoms: C_7  and  N_8
REMARK    3  A    between atoms: C_13  and  C_15
REMARK    4  A    between atoms: C_15  and  N_16
REMARK    5  A    between atoms: C_17  and  C_19
REMARK    6  A    between atoms: C_19  and  C_20
REMARK    7  A    between atoms: C_20  and  C_21
REMARK    8  A    between atoms: C_21  and  C_22
REMARK    9  A    between atoms: C_22  and  C_23
REMARK   10  A    between atoms: C_23  and  N_24
REMARK                            x       y       z     vdW  Elec       q    Type
REMARK                         _______ _______ _______ _____ _____    ______ ____
ROOT
ATOM      1  N   UNL     1       4.735  -2.627  -1.008  0.00  0.00    -0.317 N 
ATOM      2  C   UNL     1       4.370  -3.544  -1.926  0.00  0.00    +0.213 C 
ATOM      3  O   UNL     1       4.315  -4.717  -1.622  0.00  0.00    -0.276 OA
ATOM      4  H   UNL     1       4.779  -1.689  -1.252  0.00  0.00    +0.149 HD
ENDROOT
BRANCH   1   5
ATOM      5  C   UNL     1       5.066  -3.046   0.356  0.00  0.00    +0.089 C 
BRANCH   5  11
ATOM      6  N   UNL     1       6.363  -0.983   0.584  0.00  0.00    +0.385 N 
ATOM      7  C   UNL     1       6.677   0.166   1.443  0.00  0.00    -0.078 C 
ATOM      8  C   UNL     1       5.437   1.050   1.593  0.00  0.00    -0.019 C 
ATOM      9  C   UNL     1       4.307   0.232   2.225  0.00  0.00    -0.003 C 
ATOM     10  C   UNL     1       4.038  -1.002   1.360  0.00  0.00    -0.014 C 
ATOM     11  C   UNL     1       5.330  -1.811   1.219  0.00  0.00    -0.051 C 
ATOM     12  H   UNL     1       6.026  -0.651  -0.307  0.00  0.00    -0.081 HD
BRANCH   6  13
ATOM     13  C   UNL     1       7.575  -1.786   0.380  0.00  0.00    -0.043 C 
BRANCH  13  17
ATOM     14  C   UNL     1      10.443   0.494  -1.817  0.00  0.00    +0.000 A 
ATOM     15  C   UNL     1      10.430   0.546  -0.435  0.00  0.00    +0.000 A 
ATOM     16  C   UNL     1       9.502  -0.192   0.276  0.00  0.00    +0.002 A 
ATOM     17  C   UNL     1       8.587  -0.981  -0.395  0.00  0.00    -0.064 A 
ATOM     18  C   UNL     1       8.599  -1.033  -1.776  0.00  0.00    +0.002 A 
ATOM     19  C   UNL     1       9.528  -0.296  -2.487  0.00  0.00    +0.000 A 
ENDBRANCH  13  17
ENDBRANCH   6  13
ENDBRANCH   5  11
ENDBRANCH   1   5
BRANCH   2  20
ATOM     20  C   UNL     1       4.029  -3.113  -3.329  0.00  0.00    +0.096 C 
BRANCH  20  21
ATOM     21  C   UNL     1       3.651  -4.339  -4.162  0.00  0.00    +0.009 C 
BRANCH  21  22
ATOM     22  C   UNL     1       3.305  -3.901  -5.586  0.00  0.00    +0.002 C 
BRANCH  22  23
ATOM     23  C   UNL     1       2.926  -5.128  -6.419  0.00  0.00    +0.022 C 
BRANCH  23  24
ATOM     24  C   UNL     1       2.581  -4.690  -7.844  0.00  0.00    +0.127 C 
BRANCH  24  25
ATOM     25  N   UNL     1       2.218  -5.864  -8.641  0.00  0.00    -0.288 N 
ATOM     26  C   UNL     1       3.181  -6.533  -9.312  0.00  0.00    +0.262 A 
ATOM     27  O   UNL     1       4.342  -6.172  -9.261  0.00  0.00    -0.267 OA
ATOM     28  C   UNL     1       2.790  -7.711 -10.107  0.00  0.00    +0.063 A 
ATOM     29  C   UNL     1       3.724  -8.453 -10.826  0.00  0.00    +0.015 A 
ATOM     30  C   UNL     1       3.306  -9.547 -11.554  0.00  0.00    +0.001 A 
ATOM     31  C   UNL     1       1.968  -9.909 -11.572  0.00  0.00    +0.002 A 
ATOM     32  C   UNL     1       1.032  -9.182 -10.864  0.00  0.00    +0.026 A 
ATOM     33  C   UNL     1       1.433  -8.079 -10.126  0.00  0.00    +0.053 A 
ATOM     34  N   UNL     1       0.526  -7.322  -9.400  0.00  0.00    -0.335 N 
ATOM     35  H   UNL     1      -0.414  -7.564  -9.404  0.00  0.00    +0.168 HD
ATOM     36  C   UNL     1       0.936  -6.259  -8.687  0.00  0.00    +0.161 A 
ATOM     37  S   UNL     1      -0.228  -5.365  -7.805  0.00  0.00    -0.013 S 
ENDBRANCH  24  25
ENDBRANCH  23  24
ENDBRANCH  22  23
ENDBRANCH  21  22
ENDBRANCH  20  21
ENDBRANCH   2  20
TORSDOF 10
