REMARK  Name = ZINC12596339
REMARK  12 active torsions:
REMARK  status: ('A' for Active; 'I' for Inactive)
REMARK    1  A    between atoms: C_1  and  N_2
REMARK    2  A    between atoms: C_4  and  C_7
REMARK    3  A    between atoms: C_7  and  C_8
REMARK    4  A    between atoms: C_8  and  N_61
REMARK    5  A    between atoms: C_9  and  C_10
REMARK    6  A    between atoms: C_9  and  N_61
REMARK    7  A    between atoms: C_14  and  O_16
REMARK    8  A    between atoms: O_16  and  C_17
REMARK    9  A    between atoms: C_17  and  C_18
REMARK   10  A    between atoms: C_18  and  C_20
REMARK   11  A    between atoms: C_18  and  O_30
REMARK   12  A    between atoms: C_20  and  N_64
REMARK                            x       y       z     vdW  Elec       q    Type
REMARK                         _______ _______ _______ _____ _____    ______ ____
ROOT
ATOM      1  C   UNL     1       2.277   1.392  -1.072  0.00  0.00    -0.061 A 
ATOM      2  C   UNL     1       2.313   0.017  -0.935  0.00  0.00    +0.002 A 
ATOM      3  C   UNL     1       1.150  -0.685  -0.680  0.00  0.00    +0.004 A 
ATOM      4  C   UNL     1      -0.052  -0.014  -0.562  0.00  0.00    +0.045 A 
ATOM      5  C   UNL     1      -0.090   1.366  -0.699  0.00  0.00    +0.121 A 
ATOM      6  C   UNL     1       1.079   2.068  -0.955  0.00  0.00    +0.047 A 
ENDROOT
BRANCH   1   7
ATOM      7  C   UNL     1       3.547   2.155  -1.351  0.00  0.00    -0.047 C 
BRANCH   7   8
ATOM      8  N   UNL     1       3.740   2.257  -2.810  0.00  0.00    +0.382 N 
ATOM      9  H   UNL     1       3.805   1.313  -3.210  0.00  0.00    -0.085 HD
ATOM     10  H   UNL     1       2.939   2.749  -3.224  0.00  0.00    -0.085 HD
BRANCH   8  11
ATOM     11  C   UNL     1       4.978   3.000  -3.112  0.00  0.00    -0.077 C 
BRANCH  11  12
ATOM     12  C   UNL     1       5.150   3.089  -4.630  0.00  0.00    +0.019 C 
BRANCH  12  16
ATOM     13  C   UNL     1       8.365   6.796  -5.651  0.00  0.00    +0.172 C 
ATOM     14  N   UNL     1       7.809   5.466  -5.392  0.00  0.00    -0.274 N 
ATOM     15  C   UNL     1       6.515   5.184  -5.130  0.00  0.00    +0.111 A 
ATOM     16  C   UNL     1       6.413   3.847  -4.948  0.00  0.00    -0.012 A 
ATOM     17  C   UNL     1       7.687   3.292  -5.113  0.00  0.00    +0.138 A 
ATOM     18  N   UNL     1       8.524   4.262  -5.379  0.00  0.00    -0.180 NA
ENDBRANCH  12  16
ENDBRANCH  11  12
ENDBRANCH   8  11
ENDBRANCH   7   8
ENDBRANCH   1   7
BRANCH   5  19
ATOM     19  O   UNL     1      -1.272   2.028  -0.589  0.00  0.00    -0.489 OA
BRANCH  19  20
ATOM     20  C   UNL     1      -2.436   1.239  -0.331  0.00  0.00    +0.258 C 
BRANCH  20  21
ATOM     21  C   UNL     1      -3.660   2.152  -0.241  0.00  0.00    +0.135 C 
BRANCH  21  22
ATOM     22  O   UNL     1      -3.893   2.765  -1.510  0.00  0.00    -0.390 OA
ATOM     23  H   UNL     1      -4.058   2.136  -2.226  0.00  0.00    +0.210 HD
ENDBRANCH  21  22
BRANCH  21  24
ATOM     24  C   UNL     1      -4.884   1.325   0.158  0.00  0.00    -0.043 C 
BRANCH  24  34
ATOM     25  C   UNL     1      -5.955   3.031   1.506  0.00  0.00    -0.074 C 
ATOM     26  C   UNL     1      -6.975   4.166   1.405  0.00  0.00    +0.017 C 
ATOM     27  C   UNL     1      -8.330   3.609   1.049  0.00  0.00    -0.048 A 
ATOM     28  C   UNL     1      -9.447   4.406   1.253  0.00  0.00    +0.004 A 
ATOM     29  C   UNL     1     -10.706   3.937   0.936  0.00  0.00    +0.000 A 
ATOM     30  C   UNL     1     -10.854   2.666   0.412  0.00  0.00    +0.000 A 
ATOM     31  C   UNL     1      -9.744   1.872   0.210  0.00  0.00    +0.002 A 
ATOM     32  C   UNL     1      -8.478   2.341   0.529  0.00  0.00    -0.061 A 
ATOM     33  C   UNL     1      -7.297   1.436   0.294  0.00  0.00    -0.043 C 
ATOM     34  N   UNL     1      -6.054   2.225   0.272  0.00  0.00    +0.384 N 
ATOM     35  H   UNL     1      -6.071   2.855  -0.539  0.00  0.00    -0.081 HD
ENDBRANCH  24  34
ENDBRANCH  21  24
ENDBRANCH  20  21
ENDBRANCH  19  20
ENDBRANCH   5  19
TORSDOF 11
