REMARK  Name = ZINC43221568
REMARK  11 active torsions:
REMARK  status: ('A' for Active; 'I' for Inactive)
REMARK    1  A    between atoms: C_1  and  C_2
REMARK    2  A    between atoms: C_2  and  C_3
REMARK    3  A    between atoms: C_3  and  C_5
REMARK    4  A    between atoms: C_3  and  C_6
REMARK    5  A    between atoms: C_6  and  C_39
REMARK    6  A    between atoms: C_11  and  C_14
REMARK    7  A    between atoms: C_18  and  O_20
REMARK    8  A    between atoms: O_20  and  C_21
REMARK    9  A    between atoms: N_27  and  C_30
REMARK   10  A    between atoms: C_33  and  C_36
REMARK   11  A    between atoms: C_36  and  C_38
REMARK                            x       y       z     vdW  Elec       q    Type
REMARK                         _______ _______ _______ _____ _____    ______ ____
ROOT
ATOM      1  C   UNL     1       0.794  -1.414  -0.630  0.00  0.00    +0.051 C 
ATOM      2  C   UNL     1       1.538  -2.473  -1.427  0.00  0.00    +0.086 C 
ATOM      3  C   UNL     1       2.837  -2.563  -0.537  0.00  0.00    +0.077 C 
ATOM      4  C   UNL     1       2.271  -2.687   0.817  0.00  0.00    -0.027 C 
ATOM      5  N   UNL     1       1.178  -1.641   0.796  0.00  0.00    +0.396 N 
ATOM      6  C   UNL     1       3.749  -3.245  -1.421  0.00  0.00    +0.229 C 
ATOM      7  O   UNL     1       4.618  -4.035  -1.118  0.00  0.00    -0.275 OA
ATOM      8  N   UNL     1       3.421  -2.806  -2.680  0.00  0.00    -0.210 N 
ATOM      9  C   UNL     1       2.214  -2.145  -2.721  0.00  0.00    +0.229 C 
ATOM     10  O   UNL     1       1.786  -1.442  -3.611  0.00  0.00    -0.275 OA
ATOM     11  H   UNL     1       1.513  -0.780   1.201  0.00  0.00    -0.083 HD
ATOM     12  H   UNL     1       0.381  -1.976   1.315  0.00  0.00    -0.083 HD
ENDROOT
BRANCH   4  13
ATOM     13  C   UNL     1       1.716  -4.070   1.041  0.00  0.00    -0.057 A 
ATOM     14  C   UNL     1       0.471  -4.404   0.541  0.00  0.00    +0.002 A 
ATOM     15  C   UNL     1      -0.042  -5.672   0.745  0.00  0.00    +0.004 A 
ATOM     16  C   UNL     1       0.689  -6.608   1.450  0.00  0.00    +0.046 A 
ATOM     17  C   UNL     1       1.939  -6.276   1.953  0.00  0.00    +0.130 A 
ATOM     18  C   UNL     1       2.453  -5.005   1.742  0.00  0.00    +0.048 A 
BRANCH  17  19
ATOM     19  O   UNL     1       2.660  -7.195   2.647  0.00  0.00    -0.406 OA
BRANCH  19  20
ATOM     20  C   UNL     1       2.070  -8.485   2.821  0.00  0.00    +0.575 C 
ATOM     21  F   UNL     1       1.831  -9.062   1.569  0.00  0.00    -0.133 F 
ATOM     22  F   UNL     1       2.941  -9.301   3.552  0.00  0.00    -0.133 F 
ATOM     23  F   UNL     1       0.861  -8.356   3.513  0.00  0.00    -0.133 F 
ENDBRANCH  19  20
ENDBRANCH  17  19
ENDBRANCH   4  13
BRANCH   8  24
ATOM     24  C   UNL     1       4.222  -3.015  -3.806  0.00  0.00    +0.044 A 
ATOM     25  C   UNL     1       3.817  -2.530  -5.045  0.00  0.00    +0.024 A 
ATOM     26  C   UNL     1       4.602  -2.733  -6.157  0.00  0.00    +0.013 A 
ATOM     27  C   UNL     1       5.811  -3.430  -6.039  0.00  0.00    +0.017 A 
ATOM     28  C   UNL     1       6.215  -3.916  -4.789  0.00  0.00    +0.013 A 
ATOM     29  C   UNL     1       5.426  -3.702  -3.682  0.00  0.00    +0.024 A 
BRANCH  27  30
ATOM     30  C   UNL     1       6.653  -3.650  -7.222  0.00  0.00    +0.160 C 
ATOM     31  O   UNL     1       6.255  -3.320  -8.319  0.00  0.00    -0.292 OA
ATOM     32  C   UNL     1       8.011  -4.286  -7.073  0.00  0.00    +0.091 C 
ENDBRANCH  27  30
ENDBRANCH   8  24
BRANCH   1  33
ATOM     33  C   UNL     1      -0.694  -1.580  -0.801  0.00  0.00    +0.347 C 
ATOM     34  O   UNL     1      -1.195  -1.480  -1.909  0.00  0.00    -0.248 OA
ATOM     35  O   UNL     1      -1.397  -1.815   0.167  0.00  0.00    -0.248 OA
ENDBRANCH   1  33
BRANCH   1  36
ATOM     36  C   UNL     1       1.224  -0.015  -1.078  0.00  0.00    -0.014 C 
ATOM     37  C   UNL     1       2.711   0.182  -0.776  0.00  0.00    +0.006 C 
BRANCH  36  39
ATOM     38  C   UNL     1       0.747   2.428  -0.859  0.00  0.00    +0.004 C 
ATOM     39  C   UNL     1       0.407   1.035  -0.324  0.00  0.00    -0.001 C 
ENDBRANCH  36  39
ENDBRANCH   1  36
TORSDOF 8
