REMARK  Name = ZINC11847313
REMARK  12 active torsions:
REMARK  status: ('A' for Active; 'I' for Inactive)
REMARK    1  A    between atoms: C_1  and  C_2
REMARK    2  A    between atoms: C_6  and  C_38
REMARK    3  A    between atoms: C_8  and  O_11
REMARK    4  A    between atoms: O_11  and  C_12
REMARK    5  A    between atoms: C_12  and  C_13
REMARK    6  A    between atoms: C_13  and  C_15
REMARK    7  A    between atoms: C_13  and  O_37
REMARK    8  A    between atoms: C_15  and  N_79
REMARK    9  A    between atoms: C_18  and  C_21
REMARK   10  A    between atoms: C_21  and  N_22
REMARK   11  A    between atoms: C_38  and  C_39
REMARK   12  A    between atoms: C_38  and  C_40
REMARK                            x       y       z     vdW  Elec       q    Type
REMARK                         _______ _______ _______ _____ _____    ______ ____
ROOT
ATOM      1  C   UNL     1       1.728   3.550   2.647  0.00  0.00    -0.078 C 
ATOM      2  C   UNL     1       1.006   4.145   3.859  0.00  0.00    -0.014 C 
ATOM      3  C   UNL     1       1.575   3.527   5.139  0.00  0.00    +0.003 C 
ATOM      4  C   UNL     1       1.415   2.006   5.078  0.00  0.00    -0.014 C 
ATOM      5  C   UNL     1       2.125   1.473   3.831  0.00  0.00    -0.078 C 
ATOM      6  N   UNL     1       1.515   2.087   2.632  0.00  0.00    +0.381 N 
ATOM      7  H   UNL     1       0.506   1.897   2.638  0.00  0.00    -0.082 HD
ENDROOT
BRANCH   6   8
ATOM      8  C   UNL     1       2.106   1.504   1.410  0.00  0.00    -0.045 C 
BRANCH   8   9
ATOM      9  C   UNL     1       1.309   1.988   0.198  0.00  0.00    +0.124 C 
BRANCH   9  10
ATOM     10  O   UNL     1      -0.057   1.589   0.335  0.00  0.00    -0.391 OA
ATOM     11  H   UNL     1      -0.183   0.633   0.396  0.00  0.00    +0.210 HD
ENDBRANCH   9  10
BRANCH   9  12
ATOM     12  C   UNL     1       1.894   1.374  -1.076  0.00  0.00    +0.189 C 
BRANCH  12  13
ATOM     13  O   UNL     1       1.225   1.916  -2.216  0.00  0.00    -0.374 OA
BRANCH  13  19
ATOM     14  C   UNL     1       2.881  -0.753  -5.053  0.00  0.00    +0.007 C 
ATOM     15  C   UNL     1       1.401  -0.386  -5.181  0.00  0.00    -0.012 C 
ATOM     16  C   UNL     1       1.233   0.681  -6.265  0.00  0.00    +0.004 C 
ATOM     17  C   UNL     1       2.037   1.926  -5.885  0.00  0.00    +0.006 C 
ATOM     18  C   UNL     1       1.530   2.472  -4.548  0.00  0.00    +0.020 C 
ATOM     19  C   UNL     1       1.699   1.406  -3.464  0.00  0.00    +0.122 C 
ATOM     20  C   UNL     1       0.895   0.161  -3.844  0.00  0.00    +0.035 C 
BRANCH  18  21
ATOM     21  C   UNL     1       2.334   3.717  -4.168  0.00  0.00    -0.012 C 
ATOM     22  C   UNL     1       3.825   3.373  -4.143  0.00  0.00    +0.007 C 
ATOM     23  C   UNL     1       2.083   4.821  -5.198  0.00  0.00    +0.007 C 
ENDBRANCH  18  21
ENDBRANCH  13  19
ENDBRANCH  12  13
ENDBRANCH   9  12
ENDBRANCH   8   9
ENDBRANCH   6   8
BRANCH   3  24
ATOM     24  C   UNL     1       0.817   4.072   6.351  0.00  0.00    +0.120 C 
BRANCH  24  25
ATOM     25  N   UNL     1       1.068   5.510   6.478  0.00  0.00    -0.234 N 
ATOM     26  C   UNL     1       2.111   5.923   7.223  0.00  0.00    +0.254 C 
ATOM     27  O   UNL     1       2.822   5.105   7.775  0.00  0.00    -0.270 OA
ATOM     28  C   UNL     1       2.397   7.358   7.371  0.00  0.00    +0.046 A 
ATOM     29  C   UNL     1       3.464   7.827   8.123  0.00  0.00    +0.014 A 
ATOM     30  C   UNL     1       3.691   9.194   8.236  0.00  0.00    +0.001 A 
ATOM     31  C   UNL     1       2.885  10.106   7.618  0.00  0.00    +0.008 A 
ATOM     32  C   UNL     1       1.794   9.672   6.845  0.00  0.00    -0.016 A 
ATOM     33  C   UNL     1       1.553   8.288   6.723  0.00  0.00    +0.006 A 
ATOM     34  C   UNL     1       0.464   7.820   5.953  0.00  0.00    +0.046 A 
ATOM     35  C   UNL     1      -0.359   8.741   5.322  0.00  0.00    +0.014 A 
ATOM     36  C   UNL     1      -0.111  10.103   5.450  0.00  0.00    +0.001 A 
ATOM     37  C   UNL     1       0.936  10.572   6.190  0.00  0.00    +0.008 A 
ATOM     38  C   UNL     1       0.244   6.370   5.849  0.00  0.00    +0.254 C 
ATOM     39  O   UNL     1      -0.686   5.945   5.192  0.00  0.00    -0.270 OA
ENDBRANCH  24  25
ENDBRANCH   3  24
TORSDOF 9
