REMARK  Name = ZINC08857484
REMARK  2 active torsions:
REMARK  status: ('A' for Active; 'I' for Inactive)
REMARK    1  A    between atoms: C_3  and  O_26
REMARK    2  A    between atoms: C_6  and  N_7
REMARK                            x       y       z     vdW  Elec       q    Type
REMARK                         _______ _______ _______ _____ _____    ______ ____
ROOT
ATOM      1  N   UNL     1       3.230  -0.805  -0.128  0.00  0.00    -0.283 N 
ATOM      2  C   UNL     1       2.066  -0.096   0.096  0.00  0.00    +0.225 A 
ATOM      3  N   UNL     1       0.886  -0.679  -0.091  0.00  0.00    -0.180 NA
ATOM      4  C   UNL     1      -0.234   0.003   0.125  0.00  0.00    +0.227 A 
ATOM      5  N   UNL     1      -0.175   1.268   0.528  0.00  0.00    -0.180 NA
ATOM      6  C   UNL     1       1.005   1.851   0.715  0.00  0.00    +0.227 A 
ATOM      7  N   UNL     1       2.125   1.170   0.499  0.00  0.00    -0.180 NA
ATOM      8  N   UNL     1       1.066   3.167   1.133  0.00  0.00    -0.263 N 
ATOM      9  C   UNL     1      -0.100   3.912   1.258  0.00  0.00    +0.164 A 
ATOM     10  N   UNL     1      -0.239   5.191   1.546  0.00  0.00    -0.233 NA
ATOM     11  C   UNL     1      -1.433   5.747   1.625  0.00  0.00    +0.120 A 
ATOM     12  C   UNL     1      -2.522   4.972   1.404  0.00  0.00    +0.068 A 
ATOM     13  S   UNL     1      -1.748   3.398   1.067  0.00  0.00    -0.061 S 
ATOM     14  N   UNL     1      -1.461  -0.604  -0.070  0.00  0.00    -0.263 N 
ATOM     15  C   UNL     1      -1.525  -1.890  -0.589  0.00  0.00    +0.164 A 
ATOM     16  N   UNL     1      -2.587  -2.594  -0.933  0.00  0.00    -0.233 NA
ATOM     17  C   UNL     1      -2.469  -3.815  -1.417  0.00  0.00    +0.120 A 
ATOM     18  C   UNL     1      -1.227  -4.338  -1.556  0.00  0.00    +0.068 A 
ATOM     19  S   UNL     1      -0.227  -2.982  -0.961  0.00  0.00    -0.061 S 
ATOM     20  H   UNL     1       3.189  -1.750  -0.341  0.00  0.00    +0.155 HD
ATOM     21  H   UNL     1       1.923   3.571   1.340  0.00  0.00    +0.157 HD
ATOM     22  H   UNL     1      -2.277  -0.132   0.157  0.00  0.00    +0.157 HD
ENDROOT
BRANCH   1  28
ATOM     23  C   UNL     1       4.590   1.167  -0.444  0.00  0.00    +0.027 A 
ATOM     24  C   UNL     1       5.812   1.805  -0.359  0.00  0.00    +0.047 A 
ATOM     25  C   UNL     1       6.921   1.119   0.114  0.00  0.00    +0.117 A 
ATOM     26  C   UNL     1       6.803  -0.206   0.507  0.00  0.00    +0.047 A 
ATOM     27  C   UNL     1       5.581  -0.844   0.428  0.00  0.00    +0.027 A 
ATOM     28  C   UNL     1       4.470  -0.158  -0.046  0.00  0.00    +0.034 A 
BRANCH  25  29
ATOM     29  O   UNL     1       8.126   1.746   0.192  0.00  0.00    -0.507 OA
ATOM     30  H   UNL     1       8.663   1.667  -0.608  0.00  0.00    +0.292 HD
ENDBRANCH  25  29
ENDBRANCH   1  28
TORSDOF 2
