REMARK  Name = ZINC25352749
REMARK  12 active torsions:
REMARK  status: ('A' for Active; 'I' for Inactive)
REMARK    1  A    between atoms: C_1  and  C_2
REMARK    2  A    between atoms: C_2  and  C_3
REMARK    3  A    between atoms: C_3  and  N_4
REMARK    4  A    between atoms: C_8  and  S_29
REMARK    5  A    between atoms: C_12  and  S_13
REMARK    6  A    between atoms: S_13  and  C_14
REMARK    7  A    between atoms: C_14  and  C_16
REMARK    8  A    between atoms: C_14  and  C_17
REMARK    9  A    between atoms: N_19  and  C_20
REMARK   10  A    between atoms: C_21  and  C_28
REMARK   11  A    between atoms: C_23  and  C_27
REMARK   12  A    between atoms: S_29  and  N_32
REMARK                            x       y       z     vdW  Elec       q    Type
REMARK                         _______ _______ _______ _____ _____    ______ ____
ROOT
ATOM      1  N   UNL     1       2.236   0.373  -8.486  0.00  0.00    -0.319 N 
ATOM      2  C   UNL     1       2.001   1.510  -9.243  0.00  0.00    +0.070 A 
ATOM      3  C   UNL     1       2.418   1.933 -10.496  0.00  0.00    +0.030 A 
ATOM      4  C   UNL     1       2.003   3.157 -10.981  0.00  0.00    +0.030 A 
ATOM      5  C   UNL     1       1.170   3.967 -10.223  0.00  0.00    +0.107 A 
ATOM      6  C   UNL     1       0.747   3.562  -8.977  0.00  0.00    +0.058 A 
ATOM      7  C   UNL     1       1.158   2.326  -8.472  0.00  0.00    +0.092 A 
ATOM      8  N   UNL     1       0.916   1.667  -7.309  0.00  0.00    -0.222 NA
ATOM      9  C   UNL     1       1.545   0.517  -7.316  0.00  0.00    +0.171 A 
ENDROOT
BRANCH   5  10
ATOM     10  S   UNL     1       0.651   5.526 -10.860  0.00  0.00    +0.056 S 
ATOM     11  O   UNL     1       0.742   5.437 -12.275  0.00  0.00    -0.153 OA
ATOM     12  O   UNL     1      -0.560   5.854 -10.194  0.00  0.00    -0.153 OA
BRANCH  10  13
ATOM     13  N   UNL     1       1.772   6.647 -10.383  0.00  0.00    -0.204 NA
ATOM     14  H   UNL     1       1.483   7.638 -10.763  0.00  0.00    +0.144 HD
ATOM     15  H   UNL     1       2.759   6.374 -10.786  0.00  0.00    +0.144 HD
ENDBRANCH  10  13
ENDBRANCH   5  10
BRANCH   1  16
ATOM     16  C   UNL     1       3.066  -0.770  -8.871  0.00  0.00    +0.124 C 
BRANCH  16  18
ATOM     17  C   UNL     1       3.074  -2.996 -10.006  0.00  0.00    +0.005 C 
ATOM     18  C   UNL     1       2.207  -1.801  -9.605  0.00  0.00    +0.018 C 
ENDBRANCH  16  18
ENDBRANCH   1  16
BRANCH   9  19
ATOM     19  S   UNL     1       1.512  -0.664  -6.009  0.00  0.00    -0.075 S 
BRANCH  19  20
ATOM     20  C   UNL     1       0.436   0.197  -4.835  0.00  0.00    +0.137 C 
ATOM     21  C   UNL     1      -0.964   0.336  -5.434  0.00  0.00    +0.029 C 
BRANCH  20  22
ATOM     22  C   UNL     1       0.358  -0.592  -3.553  0.00  0.00    +0.230 C 
ATOM     23  O   UNL     1       0.647  -1.770  -3.548  0.00  0.00    -0.274 OA
ATOM     24  N   UNL     1      -0.033   0.012  -2.413  0.00  0.00    -0.283 N 
ATOM     25  H   UNL     1      -0.374   1.057  -2.433  0.00  0.00    +0.155 HD
BRANCH  24  26
ATOM     26  C   UNL     1      -0.005  -0.692  -1.204  0.00  0.00    +0.055 A 
ATOM     27  C   UNL     1      -1.144  -1.347  -0.753  0.00  0.00    -0.028 A 
ATOM     28  C   UNL     1      -1.112  -2.046   0.438  0.00  0.00    +0.008 A 
ATOM     29  C   UNL     1       0.051  -2.090   1.185  0.00  0.00    -0.049 A 
ATOM     30  C   UNL     1       1.185  -1.435   0.743  0.00  0.00    +0.025 A 
ATOM     31  C   UNL     1       1.160  -0.733  -0.448  0.00  0.00    +0.063 A 
ATOM     32 CL   UNL     1       2.584   0.091  -1.002  0.00  0.00    -0.082 Cl
ATOM     33  C   UNL     1       0.082  -2.853   2.483  0.00  0.00    +0.044 C 
ATOM     34  C   UNL     1      -2.412  -1.299  -1.566  0.00  0.00    +0.046 C 
ENDBRANCH  24  26
ENDBRANCH  20  22
ENDBRANCH  19  20
ENDBRANCH   9  19
TORSDOF 8
