REMARK  Name = ZINC10062829
REMARK  7 active torsions:
REMARK  status: ('A' for Active; 'I' for Inactive)
REMARK    1  A    between atoms: C_1  and  C_2
REMARK    2  A    between atoms: C_2  and  O_3
REMARK    3  A    between atoms: O_3  and  C_4
REMARK    4  A    between atoms: C_14  and  C_16
REMARK    5  A    between atoms: N_18  and  C_32
REMARK    6  A    between atoms: N_23  and  C_26
REMARK    7  A    between atoms: C_32  and  C_33
REMARK                            x       y       z     vdW  Elec       q    Type
REMARK                         _______ _______ _______ _____ _____    ______ ____
ROOT
ATOM      1  C   UNL     1       7.706   3.575  -0.051  0.00  0.00    +0.081 A 
ATOM      2  C   UNL     1       8.746   2.691  -0.065  0.00  0.00    +0.101 A 
ATOM      3  N   UNL     1      10.036   3.105  -0.074  0.00  0.00    -0.347 N 
ATOM      4  C   UNL     1      10.400   4.402  -0.071  0.00  0.00    +0.101 A 
ATOM      5  C   UNL     1       9.454   5.395  -0.058  0.00  0.00    +0.085 A 
ATOM      6  C   UNL     1       9.463   6.855  -0.050  0.00  0.00    +0.283 A 
ATOM      7  O   UNL     1      10.443   7.582  -0.056  0.00  0.00    -0.265 OA
ATOM      8  N   UNL     1       8.168   7.238  -0.053  0.00  0.00    -0.196 N 
ATOM      9  N   UNL     1       7.330   6.120  -0.047  0.00  0.00    -0.162 NA
ATOM     10  C   UNL     1       8.023   5.016  -0.052  0.00  0.00    +0.112 A 
ENDROOT
BRANCH   1  21
ATOM     11  C   UNL     1       0.002  -0.004   0.002  0.00  0.00    +0.122 A 
ATOM     12  C   UNL     1      -0.017   1.388   0.010  0.00  0.00    +0.048 A 
ATOM     13  C   UNL     1       1.142   2.118   0.003  0.00  0.00    +0.032 A 
ATOM     14  C   UNL     1       2.402   1.477  -0.013  0.00  0.00    +0.081 A 
ATOM     15  C   UNL     1       2.385   0.064  -0.020  0.00  0.00    +0.044 A 
ATOM     16  C   UNL     1       1.222  -0.664  -0.013  0.00  0.00    +0.063 A 
ATOM     17  S   UNL     1       4.117  -0.336  -0.039  0.00  0.00    -0.052 S 
ATOM     18  C   UNL     1       4.734   1.342  -0.036  0.00  0.00    +0.166 A 
ATOM     19  N   UNL     1       3.628   2.047  -0.021  0.00  0.00    -0.225 NA
ATOM     20  N   UNL     1       6.046   1.784  -0.045  0.00  0.00    -0.261 N 
ATOM     21  C   UNL     1       6.312   3.105  -0.041  0.00  0.00    +0.253 C 
ATOM     22  O   UNL     1       5.399   3.909  -0.029  0.00  0.00    -0.270 OA
ATOM     23  H   UNL     1       6.774   1.143  -0.055  0.00  0.00    +0.157 HD
BRANCH  11  24
ATOM     24  O   UNL     1      -1.161  -0.708   0.010  0.00  0.00    -0.492 OA
BRANCH  24  26
ATOM     25  C   UNL     1      -3.569  -0.911   0.033  0.00  0.00    +0.048 C 
ATOM     26  C   UNL     1      -2.375   0.045   0.026  0.00  0.00    +0.225 C 
ENDBRANCH  24  26
ENDBRANCH  11  24
ENDBRANCH   1  21
BRANCH   8  27
ATOM     27  C   UNL     1       7.728   8.567  -0.049  0.00  0.00    +0.069 A 
ATOM     28  C   UNL     1       8.446   9.536   0.639  0.00  0.00    +0.028 A 
ATOM     29  C   UNL     1       8.012  10.847   0.636  0.00  0.00    +0.002 A 
ATOM     30  C   UNL     1       6.857  11.193  -0.042  0.00  0.00    +0.000 A 
ATOM     31  C   UNL     1       6.137  10.229  -0.725  0.00  0.00    +0.002 A 
ATOM     32  C   UNL     1       6.569   8.918  -0.730  0.00  0.00    +0.028 A 
ENDBRANCH   8  27
BRANCH   3  33
ATOM     33  C   UNL     1      11.091   2.089  -0.089  0.00  0.00    +0.156 C 
BRANCH  33  34
ATOM     34  C   UNL     1      11.440   1.748  -1.515  0.00  0.00    -0.028 A 
ATOM     35  C   UNL     1      10.774   0.726  -2.164  0.00  0.00    +0.005 A 
ATOM     36  C   UNL     1      11.091   0.416  -3.473  0.00  0.00    +0.000 A 
ATOM     37  C   UNL     1      12.081   1.121  -4.130  0.00  0.00    +0.000 A 
ATOM     38  C   UNL     1      12.751   2.140  -3.479  0.00  0.00    +0.000 A 
ATOM     39  C   UNL     1      12.431   2.454  -2.171  0.00  0.00    +0.005 A 
ENDBRANCH  33  34
ENDBRANCH   3  33
TORSDOF 6
