REMARK  Name = ZINC16818527
REMARK  6 active torsions:
REMARK  status: ('A' for Active; 'I' for Inactive)
REMARK    1  A    between atoms: C_4  and  C_7
REMARK    2  A    between atoms: C_7  and  N_8
REMARK    3  A    between atoms: C_14  and  S_15
REMARK    4  A    between atoms: S_15  and  C_16
REMARK    5  A    between atoms: C_16  and  C_17
REMARK    6  A    between atoms: N_23  and  C_24
REMARK                            x       y       z     vdW  Elec       q    Type
REMARK                         _______ _______ _______ _____ _____    ______ ____
ROOT
ATOM      1  C   UNL     1      -5.897   4.894   2.647  0.00  0.00    +0.146 A 
ATOM      2  N   UNL     1      -5.233   6.030   2.772  0.00  0.00    -0.199 NA
ATOM      3  C   UNL     1      -5.850   7.191   2.566  0.00  0.00    +0.217 A 
ATOM      4  N   UNL     1      -7.139   7.207   2.245  0.00  0.00    -0.181 NA
ATOM      5  C   UNL     1      -7.805   6.064   2.125  0.00  0.00    +0.224 A 
ATOM      6  N   UNL     1      -7.179   4.907   2.328  0.00  0.00    -0.198 NA
ATOM      7  N   UNL     1      -9.146   6.076   1.791  0.00  0.00    -0.284 N 
ATOM      8  N   UNL     1      -5.154   8.375   2.692  0.00  0.00    -0.327 N 
ATOM      9  H   UNL     1      -9.612   5.242   1.625  0.00  0.00    +0.155 HD
ATOM     10  H   UNL     1      -5.606   9.221   2.545  0.00  0.00    +0.145 HD
ATOM     11  H   UNL     1      -4.213   8.363   2.926  0.00  0.00    +0.145 HD
ENDROOT
BRANCH   7  12
ATOM     12  C   UNL     1      -9.831   7.291   1.691  0.00  0.00    +0.034 A 
ATOM     13  C   UNL     1      -9.491   8.351   2.522  0.00  0.00    +0.023 A 
ATOM     14  C   UNL     1     -10.166   9.552   2.417  0.00  0.00    +0.002 A 
ATOM     15  C   UNL     1     -11.185   9.696   1.494  0.00  0.00    +0.000 A 
ATOM     16  C   UNL     1     -11.529   8.640   0.669  0.00  0.00    +0.002 A 
ATOM     17  C   UNL     1     -10.855   7.439   0.765  0.00  0.00    +0.023 A 
ENDBRANCH   7  12
BRANCH   1  18
ATOM     18  C   UNL     1      -5.193   3.582   2.876  0.00  0.00    +0.153 C 
BRANCH  18  19
ATOM     19  S   UNL     1      -4.499   2.990   1.312  0.00  0.00    -0.078 S 
BRANCH  19  26
ATOM     20  N   UNL     1      -3.065   0.600   1.063  0.00  0.00    -0.266 N 
ATOM     21  C   UNL     1      -2.654  -0.427   1.834  0.00  0.00    +0.345 A 
ATOM     22  O   UNL     1      -2.018  -1.397   1.462  0.00  0.00    -0.245 OA
ATOM     23  N   UNL     1      -3.071  -0.183   3.094  0.00  0.00    -0.226 N 
ATOM     24  H   UNL     1      -2.920  -0.748   3.868  0.00  0.00    +0.194 HD
ATOM     25  N   UNL     1      -3.768   1.033   3.076  0.00  0.00    -0.145 NA
ATOM     26  C   UNL     1      -3.756   1.488   1.857  0.00  0.00    +0.193 A 
BRANCH  20  27
ATOM     27  C   UNL     1      -2.824   0.743  -0.375  0.00  0.00    +0.164 C 
BRANCH  27  31
ATOM     28  C   UNL     1       0.833   2.856  -1.008  0.00  0.00    +0.000 A 
ATOM     29  C   UNL     1       0.840   1.478  -0.909  0.00  0.00    +0.000 A 
ATOM     30  C   UNL     1      -0.343   0.794  -0.700  0.00  0.00    +0.005 A 
ATOM     31  C   UNL     1      -1.534   1.488  -0.596  0.00  0.00    -0.028 A 
ATOM     32  C   UNL     1      -1.540   2.868  -0.690  0.00  0.00    +0.005 A 
ATOM     33  C   UNL     1      -0.356   3.551  -0.899  0.00  0.00    +0.000 A 
ENDBRANCH  27  31
ENDBRANCH  20  27
ENDBRANCH  19  26
ENDBRANCH  18  19
ENDBRANCH   1  18
TORSDOF 6
