REMARK  Name = ZINC32958615
REMARK  8 active torsions:
REMARK  status: ('A' for Active; 'I' for Inactive)
REMARK    1  A    between atoms: C_1  and  C_2
REMARK    2  A    between atoms: C_2  and  N_3
REMARK    3  A    between atoms: C_7  and  C_9
REMARK    4  A    between atoms: C_9  and  N_10
REMARK    5  A    between atoms: C_11  and  C_13
REMARK    6  A    between atoms: N_16  and  S_19
REMARK    7  A    between atoms: S_19  and  C_22
REMARK    8  A    between atoms: C_27  and  C_28
REMARK                            x       y       z     vdW  Elec       q    Type
REMARK                         _______ _______ _______ _____ _____    ______ ____
ROOT
ATOM      1  C   UNL     1      -0.429   3.231  -1.367  0.00  0.00    +0.077 C 
ATOM      2  C   UNL     1      -0.289   1.708  -1.410  0.00  0.00    +0.030 C 
ATOM      3  C   UNL     1       0.670   1.256  -0.304  0.00  0.00    +0.110 C 
ATOM      4  N   UNL     1       0.194   1.782   0.983  0.00  0.00    -0.177 NA
ATOM      5  C   UNL     1      -0.064   3.223   1.104  0.00  0.00    +0.110 C 
ATOM      6  C   UNL     1      -1.015   3.653  -0.017  0.00  0.00    +0.030 C 
ENDROOT
BRANCH   1   8
ATOM      7  N   UNL     1      -1.618   4.993  -2.632  0.00  0.00    -0.317 N 
ATOM      8  C   UNL     1      -1.345   3.683  -2.475  0.00  0.00    +0.216 C 
ATOM      9  O   UNL     1      -1.837   2.867  -3.225  0.00  0.00    -0.276 OA
ATOM     10  H   UNL     1      -1.171   5.733  -1.952  0.00  0.00    +0.149 HD
BRANCH   7  11
ATOM     11  C   UNL     1      -2.509   5.432  -3.709  0.00  0.00    +0.089 C 
BRANCH  11  16
ATOM     12  N   UNL     1      -3.437   7.224  -2.285  0.00  0.00    +0.382 N 
ATOM     13  C   UNL     1      -4.419   8.303  -2.498  0.00  0.00    -0.078 C 
ATOM     14  C   UNL     1      -4.372   8.677  -3.994  0.00  0.00    -0.020 C 
ATOM     15  C   UNL     1      -3.776   7.404  -4.655  0.00  0.00    -0.016 C 
ATOM     16  C   UNL     1      -2.772   6.933  -3.573  0.00  0.00    -0.051 C 
ATOM     17  H   UNL     1      -3.951   6.324  -1.919  0.00  0.00    -0.081 HD
BRANCH  12  19
ATOM     18  C   UNL     1      -3.187   8.016   0.018  0.00  0.00    -0.017 C 
ATOM     19  C   UNL     1      -2.455   7.601  -1.259  0.00  0.00    -0.082 C 
ENDBRANCH  12  19
ENDBRANCH  11  16
ENDBRANCH   7  11
ENDBRANCH   1   8
BRANCH   4  20
ATOM     20  S   UNL     1      -0.051   0.768   2.269  0.00  0.00    +0.061 S 
ATOM     21  O   UNL     1      -0.992   1.411   3.119  0.00  0.00    -0.153 OA
ATOM     22  O   UNL     1      -0.272  -0.527   1.730  0.00  0.00    -0.153 OA
BRANCH  20  23
ATOM     23  C   UNL     1       1.464   0.689   3.166  0.00  0.00    +0.112 A 
ATOM     24  C   UNL     1       1.528   1.186   4.455  0.00  0.00    +0.076 A 
ATOM     25  C   UNL     1       2.718   1.123   5.159  0.00  0.00    +0.144 A 
ATOM     26  C   UNL     1       3.847   0.559   4.566  0.00  0.00    +0.076 A 
ATOM     27  C   UNL     1       3.776   0.063   3.275  0.00  0.00    +0.032 A 
ATOM     28  C   UNL     1       2.581   0.124   2.580  0.00  0.00    -0.022 A 
ATOM     29  C   UNL     1       2.500  -0.420   1.177  0.00  0.00    +0.046 C 
ATOM     30  N   UNL     1       5.046   0.503   5.290  0.00  0.00    -0.280 N 
ATOM     31  C   UNL     1       5.013   0.697   6.627  0.00  0.00    +0.255 C 
ATOM     32  O   UNL     1       6.042   0.684   7.269  0.00  0.00    -0.272 OA
ATOM     33  C   UNL     1       3.693   0.930   7.316  0.00  0.00    +0.325 C 
ATOM     34  O   UNL     1       2.799   1.605   6.428  0.00  0.00    -0.481 OA
ATOM     35  H   UNL     1       5.994   0.304   4.769  0.00  0.00    +0.155 HD
ENDBRANCH  20  23
ENDBRANCH   4  20
TORSDOF 6
