REMARK  Name = ZINC63349981
REMARK  9 active torsions:
REMARK  status: ('A' for Active; 'I' for Inactive)
REMARK    1  A    between atoms: C_1  and  C_2
REMARK    2  A    between atoms: C_4  and  C_33
REMARK    3  A    between atoms: N_5  and  C_7
REMARK    4  A    between atoms: C_7  and  C_8
REMARK    5  A    between atoms: C_10  and  C_16
REMARK    6  A    between atoms: C_13  and  O_14
REMARK    7  A    between atoms: O_14  and  C_15
REMARK    8  A    between atoms: C_23  and  O_28
REMARK    9  A    between atoms: O_28  and  C_29
REMARK                            x       y       z     vdW  Elec       q    Type
REMARK                         _______ _______ _______ _____ _____    ______ ____
ROOT
ATOM      1  C   UNL     1       4.006  -3.302   4.554  0.00  0.00    +0.111 C 
ATOM      2  C   UNL     1       5.311  -2.545   4.297  0.00  0.00    +0.128 C 
ATOM      3  C   UNL     1       6.265  -3.546   3.656  0.00  0.00    -0.035 C 
ATOM      4  C   UNL     1       6.686  -2.995   2.527  0.00  0.00    +0.003 A 
ATOM      5  C   UNL     1       7.671  -3.430   1.525  0.00  0.00    +0.055 A 
ATOM      6  C   UNL     1       7.855  -2.611   0.453  0.00  0.00    +0.121 A 
ATOM      7  C   UNL     1       7.168  -1.403   0.261  0.00  0.00    +0.047 A 
ATOM      8  C   UNL     1       6.245  -0.905   1.123  0.00  0.00    +0.029 A 
ATOM      9  C   UNL     1       5.963  -1.700   2.326  0.00  0.00    +0.043 A 
ATOM     10  N   UNL     1       5.149  -1.457   3.333  0.00  0.00    -0.376 N 
ATOM     11  C   UNL     1       6.506  -4.909   4.260  0.00  0.00    +0.048 C 
ATOM     12  C   UNL     1       5.115  -5.490   4.575  0.00  0.00    +0.086 C 
ATOM     13  N   UNL     1       4.319  -4.515   5.327  0.00  0.00    -0.307 NA
ATOM     14  H   UNL     1       4.765  -4.281   6.202  0.00  0.00    +0.123 HD
ATOM     15  H   UNL     1       4.547  -0.702   3.425  0.00  0.00    +0.160 HD
ENDROOT
BRANCH   1  18
ATOM     16  C   UNL     1       1.481  -3.685   1.774  0.00  0.00    +0.016 A 
ATOM     17  C   UNL     1       2.063  -3.335   2.978  0.00  0.00    +0.014 A 
ATOM     18  C   UNL     1       3.374  -3.686   3.241  0.00  0.00    -0.028 A 
ATOM     19  C   UNL     1       4.106  -4.388   2.302  0.00  0.00    +0.009 A 
ATOM     20  C   UNL     1       3.529  -4.741   1.097  0.00  0.00    +0.046 A 
ATOM     21  C   UNL     1       2.212  -4.394   0.833  0.00  0.00    +0.125 A 
BRANCH  21  22
ATOM     22  O   UNL     1       1.640  -4.745  -0.349  0.00  0.00    -0.495 OA
ATOM     23  C   UNL     1       2.452  -5.474  -1.272  0.00  0.00    +0.277 C 
ENDBRANCH  21  22
BRANCH  16  24
ATOM     24  C   UNL     1       0.052  -3.301   1.488  0.00  0.00    +0.182 C 
BRANCH  24  29
ATOM     25  C   UNL     1      -0.034   1.498   0.019  0.00  0.00    +0.067 C 
ATOM     26  C   UNL     1      -0.010  -0.009   0.009  0.00  0.00    +0.060 A 
ATOM     27  C   UNL     1      -0.003  -0.821  -1.129  0.00  0.00    +0.047 A 
ATOM     28  C   UNL     1       0.021  -2.111  -0.721  0.00  0.00    +0.037 A 
ATOM     29  N   UNL     1       0.028  -2.114   0.629  0.00  0.00    -0.264 N 
ATOM     30  N   UNL     1       0.014  -0.783   1.064  0.00  0.00    -0.176 NA
ATOM     31  C   UNL     1       0.036  -3.326  -1.612  0.00  0.00    +0.065 C 
ENDBRANCH  24  29
ENDBRANCH  16  24
ENDBRANCH   1  18
BRANCH   6  32
ATOM     32  O   UNL     1       8.759  -2.987  -0.490  0.00  0.00    -0.495 OA
ATOM     33  C   UNL     1       8.935  -2.112  -1.606  0.00  0.00    +0.277 C 
ENDBRANCH   6  32
TORSDOF 5
