REMARK  Name = ZINC39770013
REMARK  9 active torsions:
REMARK  status: ('A' for Active; 'I' for Inactive)
REMARK    1  A    between atoms: C_1  and  C_2
REMARK    2  A    between atoms: C_6  and  C_8
REMARK    3  A    between atoms: C_9  and  C_10
REMARK    4  A    between atoms: C_14  and  S_16
REMARK    5  A    between atoms: S_16  and  C_17
REMARK    6  A    between atoms: C_17  and  C_18
REMARK    7  A    between atoms: N_20  and  C_21
REMARK    8  A    between atoms: C_21  and  C_22
REMARK    9  A    between atoms: N_24  and  C_25
REMARK                            x       y       z     vdW  Elec       q    Type
REMARK                         _______ _______ _______ _____ _____    ______ ____
ROOT
ATOM      1  C   UNL     1       3.596  -7.059   7.028  0.00  0.00    +0.173 C 
ENDROOT
BRANCH   1   2
ATOM      2  C   UNL     1       3.416  -8.375   7.739  0.00  0.00    +0.224 C 
ATOM      3  O   UNL     1       2.403  -9.020   7.574  0.00  0.00    -0.275 OA
ATOM      4  N   UNL     1       4.381  -8.834   8.560  0.00  0.00    -0.306 N 
ATOM      5  H   UNL     1       5.192  -8.318   8.692  0.00  0.00    +0.149 HD
BRANCH   4   6
ATOM      6  C   UNL     1       4.207 -10.114   9.252  0.00  0.00    +0.200 C 
BRANCH   6   7
ATOM      7  C   UNL     1       5.420 -10.396  10.100  0.00  0.00    +0.234 C 
ATOM      8  O   UNL     1       6.340  -9.606  10.125  0.00  0.00    -0.274 OA
ATOM      9  N   UNL     1       5.482 -11.526  10.832  0.00  0.00    -0.283 N 
ATOM     10  H   UNL     1       4.721 -12.126  10.864  0.00  0.00    +0.155 HD
BRANCH   9  11
ATOM     11  C   UNL     1       6.646 -11.834  11.546  0.00  0.00    +0.047 A 
ATOM     12  C   UNL     1       7.403 -10.818  12.115  0.00  0.00    +0.024 A 
ATOM     13  C   UNL     1       8.551 -11.125  12.819  0.00  0.00    +0.002 A 
ATOM     14  C   UNL     1       8.947 -12.442  12.958  0.00  0.00    +0.001 A 
ATOM     15  C   UNL     1       8.197 -13.457  12.392  0.00  0.00    +0.017 A 
ATOM     16  C   UNL     1       7.044 -13.157  11.692  0.00  0.00    +0.039 A 
ATOM     17 BR   UNL     1       6.014 -14.545  10.925  0.00  0.00    -0.048 Br
ENDBRANCH   9  11
ENDBRANCH   6   7
ENDBRANCH   4   6
ENDBRANCH   1   2
BRANCH   1  18
ATOM     18  S   UNL     1       2.136  -6.719   6.006  0.00  0.00    -0.075 S 
BRANCH  18  23
ATOM     19  C   UNL     1       2.270  -3.389   4.027  0.00  0.00    +0.150 A 
ATOM     20  N   UNL     1       3.478  -3.310   4.649  0.00  0.00    -0.258 N 
ATOM     21  H   UNL     1       4.128  -2.595   4.569  0.00  0.00    +0.191 HD
ATOM     22  N   UNL     1       3.594  -4.471   5.430  0.00  0.00    -0.145 NA
ATOM     23  C   UNL     1       2.495  -5.169   5.250  0.00  0.00    +0.209 A 
ATOM     24  N   UNL     1       1.694  -4.516   4.409  0.00  0.00    -0.202 NA
BRANCH  19  26
ATOM     25  C   UNL     1       0.490  -2.601   2.559  0.00  0.00    +0.049 C 
ATOM     26  C   UNL     1       1.707  -2.399   3.103  0.00  0.00    +0.051 C 
BRANCH  25  31
ATOM     27  C   UNL     1      -0.057   1.579   0.095  0.00  0.00    +0.052 C 
ATOM     28  C   UNL     1      -0.040   0.050   0.081  0.00  0.00    +0.174 C 
ATOM     29  C   UNL     1      -1.476  -0.520   0.172  0.00  0.00    +0.075 C 
ATOM     30  C   UNL     1      -1.272  -1.739   1.056  0.00  0.00    +0.022 C 
ATOM     31  C   UNL     1      -0.074  -1.610   1.634  0.00  0.00    +0.117 C 
ATOM     32  O   UNL     1       0.568  -0.469   1.279  0.00  0.00    -0.489 OA
ENDBRANCH  25  31
ENDBRANCH  19  26
ENDBRANCH  18  23
ENDBRANCH   1  18
TORSDOF 8
