REMARK  Name = ZINC03521408
REMARK  7 active torsions:
REMARK  status: ('A' for Active; 'I' for Inactive)
REMARK    1  A    between atoms: C_1  and  C_2
REMARK    2  A    between atoms: C_6  and  N_9
REMARK    3  A    between atoms: C_7  and  C_8
REMARK    4  A    between atoms: C_13  and  S_15
REMARK    5  A    between atoms: S_15  and  C_16
REMARK    6  A    between atoms: C_16  and  C_18
REMARK    7  A    between atoms: C_16  and  C_19
REMARK                            x       y       z     vdW  Elec       q    Type
REMARK                         _______ _______ _______ _____ _____    ______ ____
ROOT
ATOM      1  N   UNL     1       3.583   2.122  -0.021  0.00  0.00    -0.292 N 
ATOM      2  C   UNL     1       3.567   3.509  -0.119  0.00  0.00    +0.187 A 
ATOM      3  N   UNL     1       2.538   4.334  -0.129  0.00  0.00    -0.125 NA
ATOM      4  N   UNL     1       2.749   5.690  -0.230  0.00  0.00    -0.133 NA
ATOM      5  C   UNL     1       3.979   6.157  -0.328  0.00  0.00    +0.161 A 
ATOM      6  S   UNL     1       4.934   4.648  -0.272  0.00  0.00    -0.024 S 
ATOM      7  H   UNL     1       4.418   1.639  -0.117  0.00  0.00    +0.154 HD
ENDROOT
BRANCH   1  13
ATOM      8  C   UNL     1       1.177  -2.153   0.286  0.00  0.00    +0.044 C 
ATOM      9  C   UNL     1       1.199  -0.648   0.369  0.00  0.00    -0.046 A 
ATOM     10  C   UNL     1       0.042   0.044   0.678  0.00  0.00    +0.004 A 
ATOM     11  C   UNL     1       0.059   1.424   0.756  0.00  0.00    +0.002 A 
ATOM     12  C   UNL     1       1.231   2.117   0.525  0.00  0.00    +0.023 A 
ATOM     13  C   UNL     1       2.395   1.425   0.214  0.00  0.00    +0.036 A 
ATOM     14  C   UNL     1       2.375   0.038   0.137  0.00  0.00    -0.026 A 
ATOM     15  C   UNL     1       3.635  -0.718  -0.200  0.00  0.00    +0.046 C 
ENDBRANCH   1  13
BRANCH   5  16
ATOM     16  S   UNL     1       4.532   7.824  -0.476  0.00  0.00    -0.084 S 
BRANCH  16  17
ATOM     17  C   UNL     1       3.002   8.797  -0.463  0.00  0.00    +0.136 C 
ATOM     18  C   UNL     1       2.177   8.465  -1.708  0.00  0.00    +0.029 C 
BRANCH  17  19
ATOM     19  C   UNL     1       3.340  10.265  -0.461  0.00  0.00    +0.233 C 
ATOM     20  O   UNL     1       4.401  10.644  -0.910  0.00  0.00    -0.274 OA
ATOM     21  N   UNL     1       2.464  11.158   0.040  0.00  0.00    -0.239 N 
ATOM     22  C   UNL     1       2.766  12.472   0.042  0.00  0.00    +0.303 C 
ATOM     23  O   UNL     1       3.829  12.851  -0.408  0.00  0.00    -0.253 OA
ATOM     24  N   UNL     1       1.890  13.364   0.543  0.00  0.00    -0.313 N 
ATOM     25  H   UNL     1       1.615  10.855   0.400  0.00  0.00    +0.159 HD
ATOM     26  H   UNL     1       1.041  13.062   0.903  0.00  0.00    +0.146 HD
ATOM     27  H   UNL     1       2.108  14.309   0.545  0.00  0.00    +0.146 HD
ENDBRANCH  17  19
ENDBRANCH  16  17
ENDBRANCH   5  16
TORSDOF 4
