REMARK  Name = ZINC12642806
REMARK  9 active torsions:
REMARK  status: ('A' for Active; 'I' for Inactive)
REMARK    1  A    between atoms: C_1  and  C_2
REMARK    2  A    between atoms: C_5  and  C_8
REMARK    3  A    between atoms: C_8  and  C_10
REMARK    4  A    between atoms: C_8  and  N_64
REMARK    5  A    between atoms: N_14  and  C_15
REMARK    6  A    between atoms: C_21  and  C_22
REMARK    7  A    between atoms: C_21  and  N_64
REMARK    8  A    between atoms: C_29  and  C_30
REMARK    9  A    between atoms: C_29  and  N_64
REMARK                            x       y       z     vdW  Elec       q    Type
REMARK                         _______ _______ _______ _____ _____    ______ ____
ROOT
ATOM      1  C   UNL     1       1.056  -3.617  -1.973  0.00  0.00    +0.034 C 
ENDROOT
BRANCH   1   6
ATOM      2  C   UNL     1       5.134  -6.668   0.756  0.00  0.00    +0.044 C 
ATOM      3  C   UNL     1       4.070  -5.872   0.045  0.00  0.00    -0.050 A 
ATOM      4  C   UNL     1       2.890  -6.482  -0.336  0.00  0.00    +0.003 A 
ATOM      5  C   UNL     1       1.914  -5.752  -0.989  0.00  0.00    +0.003 A 
ATOM      6  C   UNL     1       2.119  -4.412  -1.261  0.00  0.00    -0.054 A 
ATOM      7  C   UNL     1       3.302  -3.804  -0.885  0.00  0.00    +0.003 A 
ATOM      8  C   UNL     1       4.276  -4.533  -0.227  0.00  0.00    +0.003 A 
ENDBRANCH   1   6
BRANCH   1   9
ATOM      9  C   UNL     1       1.477  -3.381  -3.401  0.00  0.00    +0.143 A 
ATOM     10  N   UNL     1       2.465  -2.624  -3.811  0.00  0.00    -0.115 NA
ATOM     11  N   UNL     1       2.505  -2.683  -5.097  0.00  0.00    -0.023 NA
ATOM     12  N   UNL     1       1.563  -3.453  -5.519  0.00  0.00    -0.044 NA
ATOM     13  N   UNL     1       0.907  -3.902  -4.503  0.00  0.00    -0.227 N 
BRANCH  13  14
ATOM     14  C   UNL     1      -0.242  -4.810  -4.542  0.00  0.00    +0.111 C 
ATOM     15  C   UNL     1       0.168  -6.123  -5.212  0.00  0.00    +0.027 C 
ATOM     16  C   UNL     1      -1.033  -7.071  -5.252  0.00  0.00    +0.002 C 
ATOM     17  C   UNL     1      -2.166  -6.424  -6.051  0.00  0.00    +0.000 C 
ATOM     18  C   UNL     1      -2.576  -5.111  -5.381  0.00  0.00    +0.002 C 
ATOM     19  C   UNL     1      -1.376  -4.163  -5.341  0.00  0.00    +0.027 C 
ENDBRANCH  13  14
ENDBRANCH   1   9
BRANCH   1  20
ATOM     20  N   UNL     1       0.901  -2.315  -1.290  0.00  0.00    +0.396 N 
ATOM     21  H   UNL     1       1.831  -1.937  -1.077  0.00  0.00    -0.079 HD
BRANCH  20  22
ATOM     22  C   UNL     1       0.188  -1.365  -2.170  0.00  0.00    -0.041 C 
BRANCH  22  23
ATOM     23  C   UNL     1       0.237   0.006  -1.546  0.00  0.00    -0.064 A 
ATOM     24  C   UNL     1       1.290   0.856  -1.828  0.00  0.00    +0.004 A 
ATOM     25  C   UNL     1       1.336   2.113  -1.257  0.00  0.00    +0.038 A 
ATOM     26  C   UNL     1       0.326   2.522  -0.403  0.00  0.00    +0.123 A 
ATOM     27  C   UNL     1      -0.728   1.670  -0.121  0.00  0.00    +0.038 A 
ATOM     28  C   UNL     1      -0.772   0.413  -0.693  0.00  0.00    +0.004 A 
ATOM     29  F   UNL     1       0.370   3.751   0.156  0.00  0.00    -0.205 F 
ENDBRANCH  22  23
ENDBRANCH  20  22
BRANCH  20  30
ATOM     30  C   UNL     1       0.154  -2.493  -0.028  0.00  0.00    -0.001 C 
BRANCH  30  31
ATOM     31  C   UNL     1       1.071  -3.114   0.994  0.00  0.00    +0.089 A 
ATOM     32  C   UNL     1       1.972  -2.456   1.746  0.00  0.00    +0.042 A 
ATOM     33  C   UNL     1       2.608  -3.421   2.560  0.00  0.00    +0.041 A 
ATOM     34  C   UNL     1       2.059  -4.611   2.256  0.00  0.00    +0.195 A 
ATOM     35  O   UNL     1       1.125  -4.418   1.311  0.00  0.00    -0.470 OA
ENDBRANCH  30  31
ENDBRANCH  20  30
ENDBRANCH   1  20
TORSDOF 8
