REMARK  Name = ZINC45930430
REMARK  4 active torsions:
REMARK  status: ('A' for Active; 'I' for Inactive)
REMARK    1  A    between atoms: C_6  and  C_7
REMARK    2  A    between atoms: C_7  and  C_9
REMARK    3  A    between atoms: C_9  and  S_10
REMARK    4  A    between atoms: S_10  and  C_11
REMARK                            x       y       z     vdW  Elec       q    Type
REMARK                         _______ _______ _______ _____ _____    ______ ____
ROOT
ATOM      1  C   UNL     1      -0.003   1.369   0.238  0.00  0.00    +0.015 A 
ATOM      2  C   UNL     1       1.186   2.080   0.231  0.00  0.00    -0.043 A 
ATOM      3  C   UNL     1       2.372   1.425  -0.011  0.00  0.00    -0.041 A 
ATOM      4  C   UNL     1       2.384   0.048  -0.254  0.00  0.00    -0.040 A 
ATOM      5  C   UNL     1       1.215  -0.668  -0.245  0.00  0.00    -0.033 A 
ATOM      6  C   UNL     1       0.002  -0.004   0.002  0.00  0.00    +0.022 A 
ATOM      7  C   UNL     1       1.167  -2.155  -0.481  0.00  0.00    +0.036 C 
ATOM      8  C   UNL     1       2.458  -2.634  -1.143  0.00  0.00    +0.005 C 
ATOM      9  C   UNL     1       3.644  -2.103  -0.329  0.00  0.00    +0.005 C 
ATOM     10  C   UNL     1       3.723  -0.591  -0.523  0.00  0.00    +0.036 C 
ATOM     11  C   UNL     1       3.701   2.135  -0.019  0.00  0.00    +0.036 C 
ATOM     12  C   UNL     1       3.505   3.642  -0.173  0.00  0.00    +0.005 C 
ATOM     13  C   UNL     1       2.488   4.107   0.876  0.00  0.00    +0.005 C 
ATOM     14  C   UNL     1       1.114   3.563   0.488  0.00  0.00    +0.035 C 
ENDROOT
BRANCH   6  15
ATOM     15  C   UNL     1      -1.262  -0.758   0.012  0.00  0.00    +0.174 C 
ATOM     16  O   UNL     1      -1.247  -1.967  -0.086  0.00  0.00    -0.291 OA
BRANCH  15  17
ATOM     17  C   UNL     1      -2.574  -0.029   0.144  0.00  0.00    +0.156 C 
BRANCH  17  18
ATOM     18  S   UNL     1      -3.936  -1.226   0.124  0.00  0.00    -0.089 S 
BRANCH  18  19
ATOM     19  C   UNL     1      -5.381  -0.230   0.285  0.00  0.00    +0.160 A 
ATOM     20  N   UNL     1      -5.485   1.081   0.391  0.00  0.00    -0.133 NA
ATOM     21  N   UNL     1      -6.727   1.661   0.507  0.00  0.00    -0.125 NA
ATOM     22  C   UNL     1      -7.807   0.904   0.514  0.00  0.00    +0.180 A 
ATOM     23  S   UNL     1      -7.096  -0.725   0.341  0.00  0.00    -0.025 S 
ATOM     24  N   UNL     1      -9.142   1.276   0.621  0.00  0.00    -0.336 N 
ATOM     25  H   UNL     1      -9.380   2.213   0.705  0.00  0.00    +0.144 HD
ATOM     26  H   UNL     1      -9.837   0.599   0.610  0.00  0.00    +0.144 HD
ENDBRANCH  18  19
ENDBRANCH  17  18
ENDBRANCH  15  17
ENDBRANCH   6  15
TORSDOF 4
