REMARK  Name = ZINC36718338
REMARK  16 active torsions:
REMARK  status: ('A' for Active; 'I' for Inactive)
REMARK    1  A    between atoms: C_1  and  C_2
REMARK    2  A    between atoms: C_5  and  O_34
REMARK    3  A    between atoms: N_11  and  C_12
REMARK    4  A    between atoms: C_12  and  C_13
REMARK    5  A    between atoms: C_13  and  C_14
REMARK    6  A    between atoms: C_14  and  N_15
REMARK    7  A    between atoms: N_15  and  C_16
REMARK    8  A    between atoms: N_15  and  C_17
REMARK    9  A    between atoms: C_18  and  C_20
REMARK   10  A    between atoms: C_20  and  C_21
REMARK   11  A    between atoms: C_21  and  C_22
REMARK   12  A    between atoms: C_22  and  S_23
REMARK   13  A    between atoms: S_23  and  C_26
REMARK   14  A    between atoms: C_29  and  O_32
REMARK   15  A    between atoms: O_32  and  C_33
REMARK   16  A    between atoms: O_34  and  C_35
REMARK                            x       y       z     vdW  Elec       q    Type
REMARK                         _______ _______ _______ _____ _____    ______ ____
ROOT
ATOM      1  C   UNL     1      -0.018   1.503   0.010  0.00  0.00    +0.045 C 
ATOM      2  C   UNL     1       0.002  -0.004   0.002  0.00  0.00    -0.034 A 
ATOM      3  C   UNL     1       0.006  -0.692  -1.197  0.00  0.00    +0.008 A 
ATOM      4  C   UNL     1       0.025  -2.079  -1.186  0.00  0.00    +0.048 A 
ATOM      5  C   UNL     1       0.039  -2.786  -0.006  0.00  0.00    +0.147 A 
ATOM      6  C   UNL     1       0.036  -2.112   1.241  0.00  0.00    +0.122 A 
ATOM      7  C   UNL     1       0.023  -0.701   1.186  0.00  0.00    +0.047 A 
ATOM      8  S   UNL     1       0.033  -0.255   2.906  0.00  0.00    -0.051 S 
ATOM      9  C   UNL     1       0.061  -1.915   3.568  0.00  0.00    +0.168 A 
ATOM     10  N   UNL     1       0.048  -2.650   2.481  0.00  0.00    -0.221 NA
ATOM     11  N   UNL     1       0.079  -2.323   4.892  0.00  0.00    -0.250 N 
ATOM     12  C   UNL     1       0.075  -1.405   5.880  0.00  0.00    +0.221 C 
ATOM     13  O   UNL     1       0.057  -0.223   5.609  0.00  0.00    -0.275 OA
ENDROOT
BRANCH   5  14
ATOM     14  O   UNL     1       0.057  -4.145  -0.036  0.00  0.00    -0.493 OA
ATOM     15  C   UNL     1       0.059  -4.766  -1.324  0.00  0.00    +0.277 C 
ENDBRANCH   5  14
BRANCH  11  16
ATOM     16  C   UNL     1       0.101  -3.751   5.219  0.00  0.00    +0.114 C 
BRANCH  16  17
ATOM     17  C   UNL     1       1.551  -4.228   5.320  0.00  0.00    +0.001 C 
BRANCH  17  18
ATOM     18  C   UNL     1       1.575  -5.719   5.661  0.00  0.00    -0.078 C 
BRANCH  18  19
ATOM     19  N   UNL     1       2.967  -6.178   5.757  0.00  0.00    +0.376 N 
ATOM     20  C   UNL     1       3.625  -5.510   6.888  0.00  0.00    -0.097 C 
ATOM     21  C   UNL     1       2.990  -7.632   5.966  0.00  0.00    -0.097 C 
ATOM     22  H   UNL     1       3.455  -5.953   4.903  0.00  0.00    -0.083 HD
ENDBRANCH  18  19
ENDBRANCH  17  18
ENDBRANCH  16  17
ENDBRANCH  11  16
BRANCH  12  23
ATOM     23  C   UNL     1       0.095  -1.849   7.320  0.00  0.00    +0.098 C 
BRANCH  23  24
ATOM     24  C   UNL     1       0.086  -0.620   8.232  0.00  0.00    +0.032 C 
BRANCH  24  25
ATOM     25  C   UNL     1       0.106  -1.070   9.694  0.00  0.00    +0.172 C 
BRANCH  25  26
ATOM     26  S   UNL     1       0.096   0.387  10.775  0.00  0.00    -0.003 S 
ATOM     27  O   UNL     1       1.320   1.097  10.650  0.00  0.00    -0.169 OA
ATOM     28  O   UNL     1      -1.149   1.064  10.672  0.00  0.00    -0.169 OA
BRANCH  26  29
ATOM     29  C   UNL     1       0.120  -0.265  12.412  0.00  0.00    +0.088 A 
ATOM     30  C   UNL     1      -1.069  -0.541  13.062  0.00  0.00    +0.030 A 
ATOM     31  C   UNL     1      -1.053  -1.051  14.346  0.00  0.00    +0.047 A 
ATOM     32  C   UNL     1       0.157  -1.286  14.983  0.00  0.00    +0.120 A 
ATOM     33  C   UNL     1       1.348  -1.008  14.328  0.00  0.00    +0.047 A 
ATOM     34  C   UNL     1       1.327  -0.503  13.043  0.00  0.00    +0.030 A 
BRANCH  32  35
ATOM     35  O   UNL     1       0.176  -1.788  16.246  0.00  0.00    -0.495 OA
ATOM     36  C   UNL     1       1.457  -2.004  16.839  0.00  0.00    +0.277 C 
ENDBRANCH  32  35
ENDBRANCH  26  29
ENDBRANCH  25  26
ENDBRANCH  24  25
ENDBRANCH  23  24
ENDBRANCH  12  23
TORSDOF 11
