REMARK  Name = ZINC06300199
REMARK  8 active torsions:
REMARK  status: ('A' for Active; 'I' for Inactive)
REMARK    1  A    between atoms: C_1  and  C_2
REMARK    2  A    between atoms: C_9  and  N_31
REMARK    3  A    between atoms: C_10  and  C_29
REMARK    4  A    between atoms: C_11  and  C_13
REMARK    5  A    between atoms: C_15  and  C_19
REMARK    6  A    between atoms: C_16  and  C_18
REMARK    7  A    between atoms: C_19  and  O_20
REMARK    8  A    between atoms: O_20  and  C_21
REMARK                            x       y       z     vdW  Elec       q    Type
REMARK                         _______ _______ _______ _____ _____    ______ ____
ROOT
ATOM      1  C   UNL     1      -0.018   1.503   0.010  0.00  0.00    +0.068 C 
ATOM      2  C   UNL     1       0.002  -0.004   0.002  0.00  0.00    +0.068 A 
ATOM      3  C   UNL     1       0.008  -0.813  -1.126  0.00  0.00    +0.050 A 
ATOM      4  C   UNL     1       0.028  -2.116  -0.713  0.00  0.00    +0.222 A 
ATOM      5  N   UNL     1       0.033  -2.116   0.629  0.00  0.00    -0.246 N 
ATOM      6  H   UNL     1       0.046  -2.900   1.201  0.00  0.00    +0.192 HD
ATOM      7  N   UNL     1       0.023  -0.780   1.060  0.00  0.00    -0.176 NA
ATOM      8  O   UNL     1       0.042  -3.159  -1.580  0.00  0.00    -0.423 OA
ATOM      9  C   UNL     1       0.311  -2.892  -2.874  0.00  0.00    +0.200 C 
ATOM     10  C   UNL     1       0.309  -1.648  -3.402  0.00  0.00    +0.099 C 
ATOM     11  C   UNL     1      -0.005  -0.421  -2.581  0.00  0.00    +0.108 C 
ENDROOT
BRANCH  11  12
ATOM     12  C   UNL     1      -1.367   0.105  -2.954  0.00  0.00    +0.003 A 
ATOM     13  C   UNL     1      -1.708   1.324  -3.439  0.00  0.00    +0.019 A 
ATOM     14  C   UNL     1      -3.036   1.589  -3.714  0.00  0.00    -0.000 A 
ATOM     15  C   UNL     1      -3.959   0.622  -3.490  0.00  0.00    -0.007 A 
ATOM     16  S   UNL     1      -2.950  -0.718  -2.879  0.00  0.00    -0.097 S 
ATOM     17  C   UNL     1      -5.450   0.664  -3.707  0.00  0.00    +0.052 C 
BRANCH  14  18
ATOM     18  C   UNL     1      -3.452   2.933  -4.254  0.00  0.00    +0.265 C 
BRANCH  18  19
ATOM     19  O   UNL     1      -2.300   3.766  -4.398  0.00  0.00    -0.486 OA
BRANCH  19  20
ATOM     20  C   UNL     1      -2.502   5.022  -4.878  0.00  0.00    +0.139 A 
ATOM     21  C   UNL     1      -3.784   5.445  -5.197  0.00  0.00    +0.050 A 
ATOM     22  C   UNL     1      -3.989   6.722  -5.683  0.00  0.00    +0.042 A 
ATOM     23  C   UNL     1      -2.915   7.579  -5.853  0.00  0.00    +0.125 A 
ATOM     24  C   UNL     1      -1.635   7.159  -5.535  0.00  0.00    +0.062 A 
ATOM     25  C   UNL     1      -1.427   5.884  -5.043  0.00  0.00    +0.085 A 
ATOM     26 CL   UNL     1       0.177   5.359  -4.639  0.00  0.00    -0.080 Cl
ATOM     27  F   UNL     1      -3.117   8.827  -6.329  0.00  0.00    -0.205 F 
ENDBRANCH  19  20
ENDBRANCH  18  19
ENDBRANCH  14  18
ENDBRANCH  11  12
BRANCH   9  28
ATOM     28  N   UNL     1       0.605  -3.945  -3.704  0.00  0.00    -0.328 N 
ATOM     29  H   UNL     1       0.615  -4.850  -3.354  0.00  0.00    +0.145 HD
ATOM     30  H   UNL     1       0.803  -3.785  -4.640  0.00  0.00    +0.145 HD
ENDBRANCH   9  28
BRANCH  10  31
ATOM     31  C   UNL     1       0.616  -1.487  -4.791  0.00  0.00    +0.101 C 
ATOM     32  N   UNL     1       0.860  -1.360  -5.894  0.00  0.00    -0.191 NA
ENDBRANCH  10  31
TORSDOF 6
