REMARK  Name = ZINC14534414
REMARK  8 active torsions:
REMARK  status: ('A' for Active; 'I' for Inactive)
REMARK    1  A    between atoms: C_1  and  N_2
REMARK    2  A    between atoms: C_5  and  C_7
REMARK    3  A    between atoms: N_9  and  C_10
REMARK    4  A    between atoms: C_10  and  C_11
REMARK    5  A    between atoms: C_19  and  N_60
REMARK    6  A    between atoms: C_23  and  C_24
REMARK    7  A    between atoms: C_23  and  N_60
REMARK    8  A    between atoms: C_24  and  O_30
REMARK                            x       y       z     vdW  Elec       q    Type
REMARK                         _______ _______ _______ _____ _____    ______ ____
ROOT
ATOM      1  C   UNL     1      -0.731  -5.061   1.056  0.00  0.00    +0.172 C 
ATOM      2  N   UNL     1       0.245  -3.969   1.075  0.00  0.00    -0.270 N 
ATOM      3  C   UNL     1      -0.036  -2.679   0.827  0.00  0.00    +0.043 A 
ATOM      4  C   UNL     1       1.124  -1.986   0.938  0.00  0.00    +0.004 A 
ATOM      5  C   UNL     1       2.108  -2.933   1.269  0.00  0.00    +0.150 A 
ATOM      6  N   UNL     1       1.501  -4.105   1.333  0.00  0.00    -0.166 NA
ATOM      7  C   UNL     1       1.256  -0.503   0.734  0.00  0.00    +0.023 C 
ATOM      8  C   UNL     1       0.002  -0.004   0.002  0.00  0.00    -0.067 C 
ATOM      9  C   UNL     1      -1.248  -0.535   0.709  0.00  0.00    -0.009 C 
ATOM     10  C   UNL     1      -1.362  -2.049   0.487  0.00  0.00    +0.054 C 
ENDROOT
BRANCH   5  11
ATOM     11  C   UNL     1       3.543  -2.669   1.500  0.00  0.00    +0.265 C 
ATOM     12  O   UNL     1       3.976  -1.536   1.409  0.00  0.00    -0.268 OA
ATOM     13  N   UNL     1       4.373  -3.684   1.812  0.00  0.00    -0.306 N 
ATOM     14  H   UNL     1       4.028  -4.588   1.884  0.00  0.00    +0.149 HD
BRANCH  13  15
ATOM     15  C   UNL     1       5.796  -3.423   2.041  0.00  0.00    +0.140 C 
BRANCH  15  16
ATOM     16  C   UNL     1       6.498  -4.715   2.371  0.00  0.00    -0.030 A 
ATOM     17  C   UNL     1       6.604  -5.127   3.686  0.00  0.00    +0.008 A 
ATOM     18  C   UNL     1       7.243  -6.314   3.989  0.00  0.00    +0.038 A 
ATOM     19  C   UNL     1       7.786  -7.086   2.976  0.00  0.00    +0.123 A 
ATOM     20  C   UNL     1       7.683  -6.670   1.659  0.00  0.00    +0.038 A 
ATOM     21  C   UNL     1       7.040  -5.485   1.358  0.00  0.00    +0.008 A 
ATOM     22  F   UNL     1       8.415  -8.245   3.272  0.00  0.00    -0.205 F 
ENDBRANCH  15  16
ENDBRANCH  13  15
ENDBRANCH   5  11
BRANCH   8  23
ATOM     23  N   UNL     1      -0.013   1.471   0.017  0.00  0.00    +0.383 N 
ATOM     24  H   UNL     1       0.950   1.820  -0.053  0.00  0.00    -0.085 HD
ATOM     25  H   UNL     1      -0.432   1.796   0.897  0.00  0.00    -0.085 HD
BRANCH  23  26
ATOM     26  C   UNL     1      -0.802   1.987  -1.117  0.00  0.00    -0.047 C 
BRANCH  26  27
ATOM     27  C   UNL     1      -0.799   3.516  -1.075  0.00  0.00    +0.051 C 
ATOM     28  C   UNL     1      -1.304   3.990   0.289  0.00  0.00    +0.033 C 
ATOM     29  C   UNL     1      -1.301   5.519   0.332  0.00  0.00    +0.003 C 
ATOM     30  C   UNL     1      -2.218   6.061  -0.767  0.00  0.00    +0.000 C 
ATOM     31  C   UNL     1      -1.714   5.588  -2.132  0.00  0.00    +0.003 C 
ATOM     32  C   UNL     1      -1.716   4.058  -2.174  0.00  0.00    +0.033 C 
BRANCH  27  33
ATOM     33  O   UNL     1       0.530   3.997  -1.285  0.00  0.00    -0.390 OA
ATOM     34  H   UNL     1       1.167   3.692  -0.624  0.00  0.00    +0.210 HD
ENDBRANCH  27  33
ENDBRANCH  26  27
ENDBRANCH  23  26
ENDBRANCH   8  23
TORSDOF 7
