REMARK  Name = ZINC00720886
REMARK  5 active torsions:
REMARK  status: ('A' for Active; 'I' for Inactive)
REMARK    1  A    between atoms: C_5  and  O_7
REMARK    2  A    between atoms: O_7  and  C_8
REMARK    3  A    between atoms: C_8  and  C_9
REMARK    4  A    between atoms: C_12  and  C_15
REMARK    5  A    between atoms: C_17  and  C_20
REMARK                            x       y       z     vdW  Elec       q    Type
REMARK                         _______ _______ _______ _____ _____    ______ ____
ROOT
ATOM      1  C   UNL     1      -7.419  -4.873   0.010  0.00  0.00    -0.010 A 
ATOM      2  C   UNL     1      -6.114  -5.334   0.001  0.00  0.00    +0.008 A 
ATOM      3  C   UNL     1      -5.064  -4.440   0.001  0.00  0.00    +0.013 A 
ATOM      4  C   UNL     1      -5.319  -3.068   0.010  0.00  0.00    +0.039 A 
ATOM      5  C   UNL     1      -6.637  -2.609   0.025  0.00  0.00    +0.013 A 
ATOM      6  C   UNL     1      -7.679  -3.514   0.019  0.00  0.00    +0.008 A 
ENDROOT
BRANCH   4   7
ATOM      7  C   UNL     1      -4.198  -2.104   0.010  0.00  0.00    +0.259 A 
ATOM      8  N   UNL     1      -4.293  -0.788   0.024  0.00  0.00    -0.185 NA
ATOM      9  C   UNL     1      -3.022  -0.334   0.015  0.00  0.00    +0.227 A 
ATOM     10  N   UNL     1      -2.235  -1.379   0.006  0.00  0.00    -0.054 NA
ATOM     11  O   UNL     1      -2.889  -2.400   0.003  0.00  0.00    -0.332 OA
BRANCH   9  12
ATOM     12  C   UNL     1      -2.596   1.088   0.020  0.00  0.00    +0.195 A 
ATOM     13  C   UNL     1      -1.223   1.644   0.017  0.00  0.00    +0.191 A 
ATOM     14  N   UNL     1      -1.440   2.938   0.031  0.00  0.00    -0.033 NA
ATOM     15  O   UNL     1      -2.630   3.147   0.032  0.00  0.00    -0.240 OA
ATOM     16  N   UNL     1      -3.341   2.170   0.030  0.00  0.00    -0.044 NA
ATOM     17  N   UNL     1      -0.011   0.966   0.007  0.00  0.00    -0.339 N 
ATOM     18  H   UNL     1       0.002  -0.004   0.002  0.00  0.00    +0.144 HD
ATOM     19  H   UNL     1       0.822   1.462   0.002  0.00  0.00    +0.144 HD
ENDBRANCH   9  12
ENDBRANCH   4   7
BRANCH   1  20
ATOM     20  C   UNL     1      -8.562  -5.855   0.010  0.00  0.00    +0.264 C 
BRANCH  20  21
ATOM     21  O   UNL     1      -8.917  -6.173   1.357  0.00  0.00    -0.486 OA
BRANCH  21  26
ATOM     22  C   UNL     1     -11.622  -8.492   0.619  0.00  0.00    +0.004 A 
ATOM     23  C   UNL     1     -12.016  -8.843   1.897  0.00  0.00    +0.001 A 
ATOM     24  C   UNL     1     -11.374  -8.301   2.994  0.00  0.00    +0.019 A 
ATOM     25  C   UNL     1     -10.335  -7.407   2.817  0.00  0.00    +0.059 A 
ATOM     26  C   UNL     1      -9.938  -7.053   1.535  0.00  0.00    +0.135 A 
ATOM     27  C   UNL     1     -10.588  -7.594   0.435  0.00  0.00    +0.047 A 
ATOM     28 BR   UNL     1      -9.457  -6.665   4.318  0.00  0.00    -0.047 Br
ENDBRANCH  21  26
ENDBRANCH  20  21
ENDBRANCH   1  20
TORSDOF 5
