REMARK  Name = ZINC08762276
REMARK  5 active torsions:
REMARK  status: ('A' for Active; 'I' for Inactive)
REMARK    1  A    between atoms: N_12  and  C_13
REMARK    2  A    between atoms: C_13  and  C_14
REMARK    3  A    between atoms: C_14  and  N_15
REMARK    4  A    between atoms: N_15  and  C_16
REMARK    5  A    between atoms: C_19  and  C_21
REMARK                            x       y       z     vdW  Elec       q    Type
REMARK                         _______ _______ _______ _____ _____    ______ ____
ROOT
ATOM      1  C   UNL     1      -1.871  -5.324  -3.602  0.00  0.00    +0.022 A 
ATOM      2  C   UNL     1      -1.245  -4.992  -2.419  0.00  0.00    +0.029 A 
ATOM      3  C   UNL     1      -1.832  -5.329  -1.204  0.00  0.00    +0.071 A 
ATOM      4  C   UNL     1      -3.063  -6.008  -1.187  0.00  0.00    +0.091 A 
ATOM      5  C   UNL     1      -3.684  -6.337  -2.400  0.00  0.00    +0.050 A 
ATOM      6  C   UNL     1      -3.087  -5.994  -3.591  0.00  0.00    +0.043 A 
ATOM      7 CL   UNL     1      -3.860  -6.402  -5.091  0.00  0.00    -0.083 Cl
ATOM      8  N   UNL     1      -3.648  -6.343  -0.018  0.00  0.00    -0.225 NA
ATOM      9  C   UNL     1      -3.087  -6.046   1.126  0.00  0.00    +0.188 A 
ATOM     10  C   UNL     1      -1.792  -5.339   1.153  0.00  0.00    +0.292 A 
ATOM     11  O   UNL     1      -1.262  -5.064   2.213  0.00  0.00    -0.264 OA
ATOM     12  N   UNL     1      -1.206  -4.997  -0.015  0.00  0.00    -0.302 N 
ATOM     13  N   UNL     1      -3.705  -6.400   2.312  0.00  0.00    -0.311 N 
ATOM     14  C   UNL     1      -4.165  -5.198   3.053  0.00  0.00    +0.107 C 
ATOM     15  C   UNL     1      -5.244  -5.762   4.010  0.00  0.00    +0.020 C 
ATOM     16  C   UNL     1      -5.942  -6.839   3.148  0.00  0.00    +0.020 C 
ATOM     17  C   UNL     1      -4.920  -7.205   2.057  0.00  0.00    +0.107 C 
ENDROOT
BRANCH  12  18
ATOM     18  C   UNL     1       0.077  -4.290  -0.023  0.00  0.00    +0.144 C 
BRANCH  18  19
ATOM     19  C   UNL     1      -0.173  -2.780  -0.012  0.00  0.00    +0.124 C 
BRANCH  19  20
ATOM     20  N   UNL     1       1.111  -2.073  -0.020  0.00  0.00    -0.328 N 
ATOM     21  H   UNL     1       1.941  -2.575  -0.031  0.00  0.00    +0.148 HD
BRANCH  20  22
ATOM     22  C   UNL     1       1.138  -0.683  -0.013  0.00  0.00    +0.115 A 
ATOM     23  C   UNL     1       2.361  -0.017  -0.021  0.00  0.00    +0.079 A 
ATOM     24  C   UNL     1       2.373   1.367  -0.013  0.00  0.00    +0.037 A 
ATOM     25  C   UNL     1       1.159   2.040   0.002  0.00  0.00    +0.072 A 
ATOM     26  C   UNL     1      -0.016   1.316   0.009  0.00  0.00    +0.096 A 
ATOM     27 CL   UNL     1       3.850  -0.910  -0.039  0.00  0.00    -0.080 Cl
ATOM     28  N   UNL     1      -0.066  -0.044   0.002  0.00  0.00    -0.348 N 
ATOM     29  H   UNL     1      -0.956  -0.556   0.008  0.00  0.00    +0.167 HD
BRANCH  25  30
ATOM     30  C   UNL     1       1.124   3.547   0.010  0.00  0.00    +0.419 C 
ATOM     31  F   UNL     1      -0.205   3.982   0.025  0.00  0.00    -0.166 F 
ATOM     32  F   UNL     1       1.783   4.022   1.149  0.00  0.00    -0.166 F 
ATOM     33  F   UNL     1       1.762   4.034  -1.136  0.00  0.00    -0.166 F 
ENDBRANCH  25  30
ENDBRANCH  20  22
ENDBRANCH  19  20
ENDBRANCH  18  19
ENDBRANCH  12  18
TORSDOF 5
