REMARK  Name = ZINC15081096
REMARK  6 active torsions:
REMARK  status: ('A' for Active; 'I' for Inactive)
REMARK    1  A    between atoms: C_1  and  C_2
REMARK    2  A    between atoms: C_2  and  O_31
REMARK    3  A    between atoms: C_6  and  O_10
REMARK    4  A    between atoms: C_11  and  C_24
REMARK    5  A    between atoms: C_13  and  C_15
REMARK    6  A    between atoms: N_17  and  C_18
REMARK                            x       y       z     vdW  Elec       q    Type
REMARK                         _______ _______ _______ _____ _____    ______ ____
ROOT
ATOM      1  C   UNL     1       0.107   1.021   0.389  0.00  0.00    +0.042 C 
ATOM      2  C   UNL     1       1.053   1.363  -0.764  0.00  0.00    +0.081 C 
ATOM      3  C   UNL     1       1.744   0.085  -1.256  0.00  0.00    +0.090 C 
ATOM      4  C   UNL     1       2.843   0.476  -2.212  0.00  0.00    +0.046 A 
ATOM      5  C   UNL     1       3.353   1.730  -2.314  0.00  0.00    +0.044 A 
ATOM      6  C   UNL     1       4.345   1.713  -3.298  0.00  0.00    +0.235 A 
ATOM      7  N   UNL     1       4.427   0.489  -3.769  0.00  0.00    -0.136 NA
ATOM      8  N   UNL     1       3.488  -0.305  -3.095  0.00  0.00    -0.278 N 
ATOM      9  H   UNL     1       3.326  -1.281  -3.245  0.00  0.00    +0.189 HD
ATOM     10  C   UNL     1       2.893   2.901  -1.482  0.00  0.00    +0.071 C 
ATOM     11  C   UNL     1       2.108   2.361  -0.280  0.00  0.00    +0.119 C 
ENDROOT
BRANCH  10  12
ATOM     12  C   UNL     1       4.088   3.680  -0.999  0.00  0.00    -0.039 A 
ATOM     13  C   UNL     1       4.063   5.062  -1.010  0.00  0.00    +0.006 A 
ATOM     14  C   UNL     1       5.157   5.778  -0.561  0.00  0.00    +0.020 A 
ATOM     15  C   UNL     1       6.282   5.111  -0.111  0.00  0.00    +0.041 A 
ATOM     16  C   UNL     1       6.309   3.728  -0.105  0.00  0.00    +0.020 A 
ATOM     17  C   UNL     1       5.213   3.013  -0.549  0.00  0.00    +0.006 A 
ATOM     18 CL   UNL     1       7.659   6.010   0.445  0.00  0.00    -0.084 Cl
ENDBRANCH  10  12
BRANCH  11  19
ATOM     19  C   UNL     1       3.054   1.671   0.669  0.00  0.00    +0.224 C 
ATOM     20  O   UNL     1       3.788   0.795   0.263  0.00  0.00    -0.275 OA
ATOM     21  N   UNL     1       3.084   2.027   1.968  0.00  0.00    -0.285 N 
ATOM     22  H   UNL     1       2.425   2.647   2.317  0.00  0.00    +0.155 HD
BRANCH  21  23
ATOM     23  C   UNL     1       4.067   1.502   2.815  0.00  0.00    +0.033 A 
ATOM     24  C   UNL     1       4.488   0.187   2.661  0.00  0.00    +0.023 A 
ATOM     25  C   UNL     1       5.463  -0.326   3.494  0.00  0.00    +0.002 A 
ATOM     26  C   UNL     1       6.010   0.464   4.489  0.00  0.00    +0.000 A 
ATOM     27  C   UNL     1       5.588   1.771   4.649  0.00  0.00    +0.002 A 
ATOM     28  C   UNL     1       4.619   2.292   3.815  0.00  0.00    +0.023 A 
ENDBRANCH  21  23
ENDBRANCH  11  19
BRANCH   6  29
ATOM     29  O   UNL     1       5.093   2.775  -3.697  0.00  0.00    -0.491 OA
ATOM     30  H   UNL     1       5.726   2.486  -4.415  0.00  0.00    +0.294 HD
ENDBRANCH   6  29
BRANCH   2  31
ATOM     31  O   UNL     1       0.306   1.943  -1.836  0.00  0.00    -0.388 OA
ATOM     32  H   UNL     1      -0.382   1.365  -2.193  0.00  0.00    +0.210 HD
ENDBRANCH   2  31
TORSDOF 5
