REMARK  Name = ZINC15081090
REMARK  6 active torsions:
REMARK  status: ('A' for Active; 'I' for Inactive)
REMARK    1  A    between atoms: C_1  and  C_2
REMARK    2  A    between atoms: C_2  and  O_31
REMARK    3  A    between atoms: C_6  and  O_10
REMARK    4  A    between atoms: C_11  and  C_24
REMARK    5  A    between atoms: C_13  and  C_15
REMARK    6  A    between atoms: N_17  and  C_18
REMARK                            x       y       z     vdW  Elec       q    Type
REMARK                         _______ _______ _______ _____ _____    ______ ____
ROOT
ATOM      1  C   UNL     1       1.938   0.749  -1.179  0.00  0.00    +0.042 C 
ATOM      2  C   UNL     1       1.164   1.325   0.009  0.00  0.00    +0.081 C 
ATOM      3  C   UNL     1       1.843   0.898   1.317  0.00  0.00    +0.090 C 
ATOM      4  C   UNL     1       1.219   1.672   2.451  0.00  0.00    +0.046 A 
ATOM      5  C   UNL     1       0.472   2.793   2.288  0.00  0.00    +0.044 A 
ATOM      6  C   UNL     1       0.064   3.227   3.551  0.00  0.00    +0.235 A 
ATOM      7  N   UNL     1       0.551   2.395   4.442  0.00  0.00    -0.136 NA
ATOM      8  N   UNL     1       1.284   1.407   3.767  0.00  0.00    -0.278 N 
ATOM      9  H   UNL     1       1.769   0.642   4.190  0.00  0.00    +0.189 HD
ATOM     10  C   UNL     1       0.169   3.420   0.950  0.00  0.00    +0.071 C 
ATOM     11  C   UNL     1       1.150   2.853  -0.084  0.00  0.00    +0.119 C 
ENDROOT
BRANCH  10  12
ATOM     12  C   UNL     1       0.333   4.915   1.041  0.00  0.00    -0.039 A 
ATOM     13  C   UNL     1       1.556   5.455   1.395  0.00  0.00    +0.006 A 
ATOM     14  C   UNL     1       1.709   6.827   1.474  0.00  0.00    +0.020 A 
ATOM     15  C   UNL     1       0.636   7.659   1.208  0.00  0.00    +0.041 A 
ATOM     16  C   UNL     1      -0.589   7.117   0.859  0.00  0.00    +0.020 A 
ATOM     17  C   UNL     1      -0.739   5.746   0.776  0.00  0.00    +0.006 A 
ATOM     18 CL   UNL     1       0.825   9.381   1.314  0.00  0.00    -0.084 Cl
ENDBRANCH  10  12
BRANCH  11  19
ATOM     19  C   UNL     1       0.718   3.268  -1.467  0.00  0.00    +0.224 C 
ATOM     20  O   UNL     1      -0.462   3.327  -1.741  0.00  0.00    -0.275 OA
ATOM     21  N   UNL     1       1.642   3.574  -2.398  0.00  0.00    -0.285 N 
ATOM     22  H   UNL     1       2.585   3.455  -2.203  0.00  0.00    +0.155 HD
BRANCH  21  23
ATOM     23  C   UNL     1       1.242   4.062  -3.647  0.00  0.00    +0.033 A 
ATOM     24  C   UNL     1       1.980   3.756  -4.783  0.00  0.00    +0.023 A 
ATOM     25  C   UNL     1       1.581   4.236  -6.015  0.00  0.00    +0.002 A 
ATOM     26  C   UNL     1       0.453   5.029  -6.116  0.00  0.00    +0.000 A 
ATOM     27  C   UNL     1      -0.282   5.340  -4.987  0.00  0.00    +0.002 A 
ATOM     28  C   UNL     1       0.110   4.859  -3.752  0.00  0.00    +0.023 A 
ENDBRANCH  21  23
ENDBRANCH  11  19
BRANCH   6  29
ATOM     29  O   UNL     1      -0.703   4.319   3.812  0.00  0.00    -0.491 OA
ATOM     30  H   UNL     1      -0.845   4.399   4.799  0.00  0.00    +0.294 HD
ENDBRANCH   6  29
BRANCH   2  31
ATOM     31  O   UNL     1      -0.178   0.834  -0.013  0.00  0.00    -0.388 OA
ATOM     32  H   UNL     1      -0.245  -0.129   0.042  0.00  0.00    +0.210 HD
ENDBRANCH   2  31
TORSDOF 5
