REMARK  Name = ZINC39538909
REMARK  5 active torsions:
REMARK  status: ('A' for Active; 'I' for Inactive)
REMARK    1  A    between atoms: C_1  and  C_2
REMARK    2  A    between atoms: C_2  and  C_4
REMARK    3  A    between atoms: C_2  and  N_13
REMARK    4  A    between atoms: C_14  and  C_16
REMARK    5  A    between atoms: C_21  and  C_22
REMARK                            x       y       z     vdW  Elec       q    Type
REMARK                         _______ _______ _______ _____ _____    ______ ____
ROOT
ATOM      1  C   UNL     1       0.699  -1.059  -3.578  0.00  0.00    +0.082 A 
ATOM      2  C   UNL     1       2.046  -1.331  -3.710  0.00  0.00    +0.118 A 
ATOM      3  N   UNL     1       2.257  -1.770  -4.960  0.00  0.00    -0.283 N 
ATOM      4  H   UNL     1       3.117  -2.033  -5.321  0.00  0.00    +0.188 HD
ATOM      5  N   UNL     1       1.048  -1.790  -5.662  0.00  0.00    -0.173 NA
ATOM      6  C   UNL     1       0.085  -1.377  -4.870  0.00  0.00    +0.105 A 
ENDROOT
BRANCH   6   7
ATOM      7  C   UNL     1      -1.351  -1.252  -5.219  0.00  0.00    +0.007 A 
ATOM      8  C   UNL     1      -2.066  -0.118  -4.838  0.00  0.00    +0.014 A 
ATOM      9  C   UNL     1      -3.402  -0.005  -5.162  0.00  0.00    +0.050 A 
ATOM     10  C   UNL     1      -4.039  -1.017  -5.868  0.00  0.00    +0.162 A 
ATOM     11  C   UNL     1      -3.329  -2.151  -6.252  0.00  0.00    +0.163 A 
ATOM     12  C   UNL     1      -1.987  -2.267  -5.932  0.00  0.00    +0.059 A 
ATOM     13  O   UNL     1      -3.936  -3.149  -6.950  0.00  0.00    -0.485 OA
ATOM     14  C   UNL     1      -5.368  -3.167  -6.935  0.00  0.00    +0.270 C 
ATOM     15  C   UNL     1      -5.869  -1.741  -7.203  0.00  0.00    +0.270 C 
ATOM     16  O   UNL     1      -5.359  -0.886  -6.174  0.00  0.00    -0.485 OA
ENDBRANCH   6   7
BRANCH   1  18
ATOM     17  N   UNL     1       0.731  -0.206  -1.288  0.00  0.00    -0.302 N 
ATOM     18  C   UNL     1       0.015  -0.556  -2.375  0.00  0.00    +0.248 C 
ATOM     19  O   UNL     1      -1.197  -0.456  -2.362  0.00  0.00    -0.270 OA
ATOM     20  H   UNL     1       1.698  -0.286  -1.298  0.00  0.00    +0.150 HD
BRANCH  17  22
ATOM     21  C   UNL     1      -0.193   1.798  -0.235  0.00  0.00    +0.036 C 
ATOM     22  C   UNL     1       0.050   0.295  -0.092  0.00  0.00    +0.136 C 
BRANCH  22  23
ATOM     23  C   UNL     1       0.909   0.037   1.120  0.00  0.00    +0.126 A 
ATOM     24  C   UNL     1       0.452  -0.371   2.311  0.00  0.00    +0.055 A 
ATOM     25  C   UNL     1       1.627  -0.490   3.182  0.00  0.00    +0.020 A 
ATOM     26  C   UNL     1       1.823  -0.861   4.511  0.00  0.00    +0.011 A 
ATOM     27  C   UNL     1       3.086  -0.866   5.035  0.00  0.00    +0.001 A 
ATOM     28  C   UNL     1       4.172  -0.503   4.253  0.00  0.00    +0.004 A 
ATOM     29  C   UNL     1       3.999  -0.133   2.936  0.00  0.00    +0.047 A 
ATOM     30  C   UNL     1       2.724  -0.122   2.384  0.00  0.00    +0.135 A 
ATOM     31  O   UNL     1       2.245   0.179   1.160  0.00  0.00    -0.458 OA
ENDBRANCH  22  23
ENDBRANCH  17  22
ENDBRANCH   1  18
TORSDOF 4
