REMARK  Name = ZINC36608488
REMARK  10 active torsions:
REMARK  status: ('A' for Active; 'I' for Inactive)
REMARK    1  A    between atoms: C_1  and  C_2
REMARK    2  A    between atoms: C_5  and  S_8
REMARK    3  A    between atoms: S_8  and  C_11
REMARK    4  A    between atoms: C_11  and  N_12
REMARK    5  A    between atoms: C_13  and  C_15
REMARK    6  A    between atoms: C_15  and  C_17
REMARK    7  A    between atoms: C_15  and  N_24
REMARK    8  A    between atoms: C_20  and  O_23
REMARK    9  A    between atoms: N_24  and  C_25
REMARK   10  A    between atoms: C_31  and  C_33
REMARK                            x       y       z     vdW  Elec       q    Type
REMARK                         _______ _______ _______ _____ _____    ______ ____
ROOT
ATOM      1  C   UNL     1       2.963  -5.586   3.514  0.00  0.00    +0.198 C 
ENDROOT
BRANCH   1   2
ATOM      2  C   UNL     1       1.687  -4.806   3.698  0.00  0.00    -0.018 A 
ATOM      3  C   UNL     1       0.512  -5.468   4.001  0.00  0.00    +0.009 A 
ATOM      4  C   UNL     1      -0.660  -4.755   4.170  0.00  0.00    +0.046 A 
ATOM      5  C   UNL     1      -0.655  -3.374   4.036  0.00  0.00    +0.117 A 
ATOM      6  C   UNL     1       0.526  -2.713   3.732  0.00  0.00    +0.046 A 
ATOM      7  C   UNL     1       1.695  -3.430   3.569  0.00  0.00    +0.009 A 
BRANCH   5   8
ATOM      8  O   UNL     1      -1.806  -2.670   4.201  0.00  0.00    -0.507 OA
ATOM      9  H   UNL     1      -1.964  -2.383   5.111  0.00  0.00    +0.292 HD
ENDBRANCH   5   8
ENDBRANCH   1   2
BRANCH   1  11
ATOM     10  N   UNL     1       4.361  -4.025   2.200  0.00  0.00    -0.294 N 
ATOM     11  C   UNL     1       3.633  -5.159   2.233  0.00  0.00    +0.240 C 
ATOM     12  O   UNL     1       3.517  -5.834   1.233  0.00  0.00    -0.273 OA
ATOM     13  H   UNL     1       4.454  -3.484   3.000  0.00  0.00    +0.150 HD
BRANCH  10  14
ATOM     14  C   UNL     1       5.012  -3.609   0.955  0.00  0.00    +0.278 C 
BRANCH  14  15
ATOM     15  S   UNL     1       3.944  -2.436   0.076  0.00  0.00    +0.013 S 
ATOM     16  O   UNL     1       2.612  -2.929   0.028  0.00  0.00    -0.168 OA
ATOM     17  O   UNL     1       4.589  -1.974  -1.102  0.00  0.00    -0.168 OA
BRANCH  15  22
ATOM     18  C   UNL     1       3.662   2.402   3.671  0.00  0.00    +0.044 C 
ATOM     19  C   UNL     1       3.733   1.194   2.773  0.00  0.00    -0.050 A 
ATOM     20  C   UNL     1       4.724   1.102   1.814  0.00  0.00    +0.005 A 
ATOM     21  C   UNL     1       4.789  -0.006   0.991  0.00  0.00    +0.027 A 
ATOM     22  C   UNL     1       3.862  -1.023   1.127  0.00  0.00    +0.090 A 
ATOM     23  C   UNL     1       2.871  -0.932   2.086  0.00  0.00    +0.027 A 
ATOM     24  C   UNL     1       2.809   0.175   2.913  0.00  0.00    +0.005 A 
ENDBRANCH  15  22
ENDBRANCH  14  15
ENDBRANCH  10  14
ENDBRANCH   1  11
BRANCH   1  25
ATOM     25  N   UNL     1       2.656  -7.017   3.449  0.00  0.00    -0.249 N 
ATOM     26  C   UNL     1       3.103  -7.847   4.412  0.00  0.00    +0.287 C 
ATOM     27  O   UNL     1       2.712  -8.998   4.454  0.00  0.00    -0.266 OA
BRANCH  25  28
ATOM     28  C   UNL     1       1.898  -7.522   2.388  0.00  0.00    +0.038 A 
ATOM     29  C   UNL     1       1.316  -6.654   1.473  0.00  0.00    +0.023 A 
ATOM     30  C   UNL     1       0.568  -7.157   0.426  0.00  0.00    +0.002 A 
ATOM     31  C   UNL     1       0.398  -8.522   0.289  0.00  0.00    +0.000 A 
ATOM     32  C   UNL     1       0.975  -9.389   1.198  0.00  0.00    +0.002 A 
ATOM     33  C   UNL     1       1.730  -8.894   2.244  0.00  0.00    +0.023 A 
ENDBRANCH  25  28
BRANCH  26  34
ATOM     34  C   UNL     1       4.062  -7.362   5.410  0.00  0.00    +0.190 A 
ATOM     35  C   UNL     1       4.591  -8.092   6.436  0.00  0.00    +0.054 A 
ATOM     36  C   UNL     1       5.455  -7.236   7.136  0.00  0.00    +0.042 A 
ATOM     37  C   UNL     1       5.417  -6.036   6.516  0.00  0.00    +0.196 A 
ATOM     38  O   UNL     1       4.580  -6.118   5.473  0.00  0.00    -0.458 OA
ENDBRANCH  26  34
ENDBRANCH   1  25
TORSDOF 9
