REMARK  Name = ZINC05339277
REMARK  13 active torsions:
REMARK  status: ('A' for Active; 'I' for Inactive)
REMARK    1  A    between atoms: C_1  and  C_2
REMARK    2  A    between atoms: C_2  and  C_3
REMARK    3  A    between atoms: C_3  and  C_5
REMARK    4  A    between atoms: C_3  and  C_6
REMARK    5  A    between atoms: C_11  and  C_34
REMARK    6  A    between atoms: C_21  and  O_32
REMARK    7  A    between atoms: C_25  and  N_74
REMARK    8  A    between atoms: C_30  and  N_74
REMARK    9  A    between atoms: C_31  and  N_74
REMARK   10  A    between atoms: O_32  and  C_33
REMARK   11  A    between atoms: C_34  and  C_35
REMARK   12  A    between atoms: C_35  and  C_36
REMARK   13  A    between atoms: C_35  and  C_37
REMARK                            x       y       z     vdW  Elec       q    Type
REMARK                         _______ _______ _______ _____ _____    ______ ____
ROOT
ATOM      1  C   UNL     1      -6.952   3.204  -1.177  0.00  0.00    +0.162 C 
ATOM      2  C   UNL     1      -6.599   4.559  -1.736  0.00  0.00    +0.234 C 
ATOM      3  O   UNL     1      -7.398   5.115  -2.469  0.00  0.00    -0.274 OA
ATOM      4  N   UNL     1      -5.428   5.155  -1.401  0.00  0.00    -0.302 N 
ATOM      5  C   UNL     1      -4.961   6.285  -2.225  0.00  0.00    +0.159 C 
ATOM      6  C   UNL     1      -3.585   6.684  -1.761  0.00  0.00    +0.237 C 
ATOM      7  O   UNL     1      -3.381   7.818  -1.396  0.00  0.00    -0.273 OA
ATOM      8  N   UNL     1      -2.578   5.756  -1.753  0.00  0.00    -0.290 N 
ATOM      9  C   UNL     1      -1.345   6.253  -1.310  0.00  0.00    +0.075 C 
ATOM     10  C   UNL     1      -0.298   5.495  -1.050  0.00  0.00    +0.023 C 
ATOM     11  C   UNL     1      -0.273   4.027  -1.032  0.00  0.00    -0.023 A 
ATOM     12  C   UNL     1       0.954   3.371  -1.210  0.00  0.00    +0.011 A 
ATOM     13  C   UNL     1       1.011   1.996  -1.207  0.00  0.00    +0.046 A 
ATOM     14  C   UNL     1      -0.146   1.252  -1.020  0.00  0.00    +0.123 A 
ATOM     15  C   UNL     1      -1.364   1.888  -0.811  0.00  0.00    -0.006 A 
ATOM     16  C   UNL     1      -1.423   3.269  -0.818  0.00  0.00    +0.015 A 
ATOM     17  C   UNL     1      -2.598   1.066  -0.566  0.00  0.00    +0.032 C 
ATOM     18  C   UNL     1      -3.655   1.310  -1.640  0.00  0.00    +0.023 C 
ATOM     19  C   UNL     1      -4.691   2.276  -1.104  0.00  0.00    +0.200 C 
ATOM     20  O   UNL     1      -4.360   3.048  -0.233  0.00  0.00    -0.278 OA
ATOM     21  N   UNL     1      -5.950   2.215  -1.622  0.00  0.00    -0.305 N 
ATOM     22  H   UNL     1      -4.909   4.880  -0.621  0.00  0.00    +0.150 HD
ATOM     23  H   UNL     1      -2.712   4.835  -2.035  0.00  0.00    +0.154 HD
ATOM     24  H   UNL     1      -6.185   1.522  -2.283  0.00  0.00    +0.149 HD
ENDROOT
BRANCH  18  27
ATOM     25  C   UNL     1      -2.224   0.854  -3.535  0.00  0.00    -0.096 C 
ATOM     26  C   UNL     1      -4.061   2.415  -3.752  0.00  0.00    -0.096 C 
ATOM     27  N   UNL     1      -3.024   1.885  -2.842  0.00  0.00    +0.384 N 
ATOM     28  H   UNL     1      -2.405   2.653  -2.559  0.00  0.00    -0.082 HD
ENDBRANCH  18  27
BRANCH   1  29
ATOM     29  C   UNL     1      -7.098   3.250   0.339  0.00  0.00    +0.015 C 
ATOM     30  C   UNL     1      -8.224   4.215   0.714  0.00  0.00    +0.010 C 
BRANCH  29  32
ATOM     31  C   UNL     1      -7.454   1.870   2.391  0.00  0.00    +0.004 C 
ATOM     32  C   UNL     1      -7.431   1.851   0.862  0.00  0.00    +0.002 C 
ENDBRANCH  29  32
ENDBRANCH   1  29
BRANCH  14  33
ATOM     33  O   UNL     1      -0.077  -0.105  -1.025  0.00  0.00    -0.495 OA
ATOM     34  C   UNL     1       1.211  -0.689  -1.228  0.00  0.00    +0.277 C 
ENDBRANCH  14  33
BRANCH   5  35
ATOM     35  C   UNL     1      -4.873   5.864  -3.694  0.00  0.00    +0.034 C 
BRANCH  35  36
ATOM     36  C   UNL     1      -4.445   7.062  -4.544  0.00  0.00    -0.015 C 
ATOM     37  C   UNL     1      -4.195   6.604  -5.982  0.00  0.00    +0.007 C 
ATOM     38  C   UNL     1      -5.553   8.118  -4.531  0.00  0.00    +0.007 C 
ENDBRANCH  35  36
ENDBRANCH   5  35
TORSDOF 6
