REMARK  Name = ZINC61640209
REMARK  6 active torsions:
REMARK  status: ('A' for Active; 'I' for Inactive)
REMARK    1  A    between atoms: C_3  and  S_8
REMARK    2  A    between atoms: C_6  and  O_7
REMARK    3  A    between atoms: S_8  and  C_9
REMARK    4  A    between atoms: C_9  and  C_10
REMARK    5  A    between atoms: C_14  and  N_16
REMARK    6  A    between atoms: N_16  and  N_17
REMARK                            x       y       z     vdW  Elec       q    Type
REMARK                         _______ _______ _______ _____ _____    ______ ____
ROOT
ATOM      1  C   UNL     1       6.535   1.669  -0.052  0.00  0.00    +0.072 A 
ATOM      2  C   UNL     1       7.138   1.971  -1.258  0.00  0.00    +0.063 A 
ATOM      3  C   UNL     1       8.394   2.564  -1.261  0.00  0.00    +0.025 A 
ATOM      4  C   UNL     1       9.000   2.832  -0.046  0.00  0.00    +0.046 A 
ATOM      5  C   UNL     1       8.335   2.501   1.129  0.00  0.00    +0.132 A 
ATOM      6  N   UNL     1       7.136   1.941   1.091  0.00  0.00    -0.234 NA
ATOM      7 CL   UNL     1       6.334   1.613  -2.755  0.00  0.00    -0.082 Cl
ENDROOT
BRANCH   5   8
ATOM      8  N   UNL     1       8.933   2.764   2.357  0.00  0.00    -0.268 N 
ATOM      9  H   UNL     1       9.810   3.178   2.390  0.00  0.00    +0.167 HD
BRANCH   8  10
ATOM     10  N   UNL     1       8.285   2.441   3.515  0.00  0.00    -0.255 NA
ATOM     11  H   UNL     1       8.839   2.691   4.321  0.00  0.00    +0.140 HD
ATOM     12  H   UNL     1       7.375   2.875   3.554  0.00  0.00    +0.140 HD
ENDBRANCH   8  10
ENDBRANCH   5   8
BRANCH   1  13
ATOM     13  C   UNL     1       5.173   1.025  -0.042  0.00  0.00    +0.131 C 
BRANCH  13  14
ATOM     14  S   UNL     1       3.896   2.313  -0.023  0.00  0.00    -0.119 S 
BRANCH  14  17
ATOM     15  C   UNL     1      -0.017   1.383   0.010  0.00  0.00    +0.046 A 
ATOM     16  C   UNL     1       1.169   2.090   0.002  0.00  0.00    +0.018 A 
ATOM     17  C   UNL     1       2.382   1.412  -0.013  0.00  0.00    +0.008 A 
ATOM     18  C   UNL     1       2.399   0.023  -0.021  0.00  0.00    +0.018 A 
ATOM     19  C   UNL     1       1.212  -0.682  -0.013  0.00  0.00    +0.046 A 
ATOM     20  C   UNL     1       0.002  -0.004   0.002  0.00  0.00    +0.117 A 
BRANCH  20  21
ATOM     21  O   UNL     1      -1.167  -0.700   0.010  0.00  0.00    -0.507 OA
ATOM     22  H   UNL     1      -1.513  -0.896  -0.871  0.00  0.00    +0.292 HD
ENDBRANCH  20  21
ENDBRANCH  14  17
ENDBRANCH  13  14
ENDBRANCH   1  13
TORSDOF 6
