REMARK  Name = ZINC08788924
REMARK  6 active torsions:
REMARK  status: ('A' for Active; 'I' for Inactive)
REMARK    1  A    between atoms: C_1  and  O_2
REMARK    2  A    between atoms: O_2  and  C_3
REMARK    3  A    between atoms: C_6  and  C_9
REMARK    4  A    between atoms: C_9  and  N_10
REMARK    5  A    between atoms: C_15  and  C_31
REMARK    6  A    between atoms: C_31  and  C_32
REMARK                            x       y       z     vdW  Elec       q    Type
REMARK                         _______ _______ _______ _____ _____    ______ ____
ROOT
ATOM      1  N   UNL     1       1.153   4.074   1.394  0.00  0.00    -0.237 N 
ATOM      2  C   UNL     1       2.281   4.329   2.067  0.00  0.00    +0.224 C 
ATOM      3  O   UNL     1       3.403   4.199   1.627  0.00  0.00    -0.275 OA
ATOM      4  C   UNL     1       1.938   4.805   3.461  0.00  0.00    +0.073 C 
ATOM      5  C   UNL     1       2.357   3.726   4.482  0.00  0.00    -0.053 C 
ATOM      6  C   UNL     1       0.021   3.715   4.512  0.00  0.00    +0.050 C 
ATOM      7  C   UNL     1       0.384   4.784   3.474  0.00  0.00    +0.088 C 
ATOM      8  C   UNL     1       0.030   4.298   2.087  0.00  0.00    +0.225 C 
ATOM      9  O   UNL     1      -1.096   4.136   1.668  0.00  0.00    -0.275 OA
ATOM     10  C   UNL     1      -1.216   4.088   5.279  0.00  0.00    -0.028 A 
ATOM     11  C   UNL     1      -1.551   5.160   6.076  0.00  0.00    +0.004 A 
ATOM     12  C   UNL     1      -2.802   5.223   6.662  0.00  0.00    +0.000 A 
ATOM     13  C   UNL     1      -3.715   4.207   6.446  0.00  0.00    +0.002 A 
ATOM     14  C   UNL     1      -3.384   3.131   5.649  0.00  0.00    +0.023 A 
ATOM     15  C   UNL     1      -2.126   3.059   5.054  0.00  0.00    +0.036 A 
ATOM     16  N   UNL     1      -1.565   2.091   4.220  0.00  0.00    -0.286 N 
ATOM     17  C   UNL     1      -0.306   2.401   3.856  0.00  0.00    +0.211 C 
ATOM     18  O   UNL     1       0.422   1.749   3.139  0.00  0.00    -0.277 OA
ATOM     19  H   UNL     1      -2.028   1.287   3.936  0.00  0.00    +0.155 HD
ATOM     20  N   UNL     1       1.193   3.602   5.362  0.00  0.00    +0.394 N 
ATOM     21  H   UNL     1       1.197   4.351   6.063  0.00  0.00    -0.083 HD
ATOM     22  H   UNL     1       1.202   2.690   5.835  0.00  0.00    -0.083 HD
ENDROOT
BRANCH   1  23
ATOM     23  C   UNL     1       1.147   3.593   0.011  0.00  0.00    +0.151 C 
BRANCH  23  27
ATOM     24  C   UNL     1       1.213  -0.680  -0.013  0.00  0.00    +0.120 A 
ATOM     25  C   UNL     1       0.002  -0.004   0.002  0.00  0.00    +0.046 A 
ATOM     26  C   UNL     1      -0.017   1.377   0.010  0.00  0.00    +0.009 A 
ATOM     27  C   UNL     1       1.171   2.086   0.002  0.00  0.00    -0.029 A 
ATOM     28  C   UNL     1       2.379   1.415  -0.013  0.00  0.00    +0.009 A 
ATOM     29  C   UNL     1       2.403   0.033  -0.021  0.00  0.00    +0.046 A 
BRANCH  24  31
ATOM     30  C   UNL     1       2.518  -2.668  -0.036  0.00  0.00    +0.277 C 
ATOM     31  O   UNL     1       1.234  -2.039  -0.020  0.00  0.00    -0.495 OA
ENDBRANCH  24  31
ENDBRANCH  23  27
ENDBRANCH   1  23
BRANCH   5  32
ATOM     32  C   UNL     1       3.597   4.178   5.256  0.00  0.00    +0.022 C 
BRANCH  32  33
ATOM     33  C   UNL     1       4.061   3.063   6.157  0.00  0.00    -0.024 A 
ATOM     34  C   UNL     1       3.748   2.901   7.453  0.00  0.00    +0.087 A 
ATOM     35  N   UNL     1       4.353   1.775   7.941  0.00  0.00    -0.360 N 
ATOM     36  H   UNL     1       4.275   1.452   8.853  0.00  0.00    +0.165 HD
ATOM     37  C   UNL     1       5.088   1.170   6.947  0.00  0.00    +0.047 A 
ATOM     38  C   UNL     1       4.933   1.946   5.784  0.00  0.00    +0.003 A 
ATOM     39  C   UNL     1       5.569   1.565   4.602  0.00  0.00    +0.010 A 
ATOM     40  C   UNL     1       6.338   0.435   4.579  0.00  0.00    +0.001 A 
ATOM     41  C   UNL     1       6.491  -0.336   5.722  0.00  0.00    +0.002 A 
ATOM     42  C   UNL     1       5.879   0.026   6.902  0.00  0.00    +0.026 A 
ENDBRANCH  32  33
ENDBRANCH   5  32
TORSDOF 5
