REMARK  Name = ZINC20394483
REMARK  11 active torsions:
REMARK  status: ('A' for Active; 'I' for Inactive)
REMARK    1  A    between atoms: C_1  and  C_2
REMARK    2  A    between atoms: C_5  and  N_9
REMARK    3  A    between atoms: C_7  and  C_8
REMARK    4  A    between atoms: N_10  and  C_11
REMARK    5  A    between atoms: C_13  and  C_32
REMARK    6  A    between atoms: C_14  and  C_31
REMARK    7  A    between atoms: C_16  and  N_17
REMARK    8  A    between atoms: N_17  and  C_18
REMARK    9  A    between atoms: C_20  and  O_30
REMARK   10  A    between atoms: C_22  and  O_29
REMARK   11  A    between atoms: C_24  and  O_28
REMARK                            x       y       z     vdW  Elec       q    Type
REMARK                         _______ _______ _______ _____ _____    ______ ____
ROOT
ATOM      1  C   UNL     1      -3.488  -0.785   0.256  0.00  0.00    +0.107 A 
ATOM      2  C   UNL     1      -3.477  -2.164   0.488  0.00  0.00    +0.035 A 
ATOM      3  C   UNL     1      -4.657  -2.827   0.743  0.00  0.00    -0.045 A 
ATOM      4  C   UNL     1      -5.857  -2.135   0.771  0.00  0.00    -0.046 A 
ATOM      5  C   UNL     1      -5.885  -0.773   0.544  0.00  0.00    +0.028 A 
ATOM      6  C   UNL     1      -4.706  -0.086   0.291  0.00  0.00    +0.057 A 
ATOM      7  C   UNL     1      -7.141  -2.873   1.051  0.00  0.00    +0.044 C 
ATOM      8  C   UNL     1      -4.644  -4.313   0.993  0.00  0.00    +0.044 C 
ENDROOT
BRANCH   1  10
ATOM      9  N   UNL     1      -1.206  -0.768  -0.022  0.00  0.00    -0.149 NA
ATOM     10  N   UNL     1      -2.323  -0.123   0.003  0.00  0.00    -0.147 NA
BRANCH   9  15
ATOM     11  C   UNL     1       3.615   1.974  -1.067  0.00  0.00    +0.044 C 
ATOM     12  C   UNL     1       2.328   1.242  -0.788  0.00  0.00    -0.047 A 
ATOM     13  C   UNL     1       1.131   1.938  -0.761  0.00  0.00    +0.006 A 
ATOM     14  C   UNL     1      -0.051   1.274  -0.507  0.00  0.00    +0.030 A 
ATOM     15  C   UNL     1      -0.038  -0.104  -0.276  0.00  0.00    +0.086 A 
ATOM     16  C   UNL     1       1.173  -0.799  -0.304  0.00  0.00    +0.033 A 
ATOM     17  C   UNL     1       2.347  -0.122  -0.559  0.00  0.00    -0.045 A 
ATOM     18  C   UNL     1       3.655  -0.871  -0.591  0.00  0.00    +0.044 C 
ENDBRANCH   9  15
ENDBRANCH   1  10
BRANCH   6  19
ATOM     19  N   UNL     1      -4.730   1.287   0.067  0.00  0.00    -0.315 N 
ATOM     20  H   UNL     1      -3.788   1.844  -0.039  0.00  0.00    +0.149 HD
BRANCH  19  21
ATOM     21  C   UNL     1      -6.012   1.991  -0.026  0.00  0.00    +0.235 C 
ATOM     22  C   UNL     1      -5.889   3.143  -1.026  0.00  0.00    +0.192 C 
ATOM     23  C   UNL     1      -7.214   3.911  -1.074  0.00  0.00    +0.178 C 
ATOM     24  C   UNL     1      -7.559   4.399   0.337  0.00  0.00    +0.171 C 
ATOM     25  C   UNL     1      -7.617   3.198   1.284  0.00  0.00    +0.196 C 
ATOM     26  O   UNL     1      -6.364   2.511   1.257  0.00  0.00    -0.354 OA
BRANCH  24  27
ATOM     27  O   UNL     1      -8.829   5.054   0.318  0.00  0.00    -0.387 OA
ATOM     28  H   UNL     1      -9.245   5.474   1.245  0.00  0.00    +0.210 HD
ENDBRANCH  24  27
BRANCH  23  29
ATOM     29  O   UNL     1      -7.085   5.033  -1.950  0.00  0.00    -0.386 OA
ATOM     30  H   UNL     1      -7.941   5.706  -2.111  0.00  0.00    +0.210 HD
ENDBRANCH  23  29
BRANCH  22  31
ATOM     31  O   UNL     1      -5.593   2.621  -2.323  0.00  0.00    -0.385 OA
ATOM     32  H   UNL     1      -5.468   3.305  -3.176  0.00  0.00    +0.210 HD
ENDBRANCH  22  31
ENDBRANCH  19  21
ENDBRANCH   6  19
TORSDOF 7
