REMARK  Name = ZINC35485285
REMARK  8 active torsions:
REMARK  status: ('A' for Active; 'I' for Inactive)
REMARK    1  A    between atoms: C_1  and  C_2
REMARK    2  A    between atoms: C_2  and  C_4
REMARK    3  A    between atoms: C_2  and  N_10
REMARK    4  A    between atoms: C_11  and  C_13
REMARK    5  A    between atoms: C_13  and  C_15
REMARK    6  A    between atoms: C_13  and  N_26
REMARK    7  A    between atoms: C_15  and  C_16
REMARK    8  A    between atoms: C_27  and  C_29
REMARK                            x       y       z     vdW  Elec       q    Type
REMARK                         _______ _______ _______ _____ _____    ______ ____
ROOT
ATOM      1  C   UNL     1       0.780  -1.133   3.576  0.00  0.00    +0.163 C 
ENDROOT
BRANCH   1   3
ATOM      2  N   UNL     1       0.711  -0.489   1.189  0.00  0.00    -0.307 N 
ATOM      3  C   UNL     1       0.051  -0.633   2.355  0.00  0.00    +0.234 C 
ATOM      4  O   UNL     1      -1.129  -0.361   2.423  0.00  0.00    -0.274 OA
ATOM      5  H   UNL     1       1.654  -0.707   1.135  0.00  0.00    +0.149 HD
BRANCH   2   7
ATOM      6  C   UNL     1      -0.019   1.526   0.010  0.00  0.00    +0.033 C 
ATOM      7  C   UNL     1       0.002  -0.004   0.002  0.00  0.00    +0.100 C 
BRANCH   7   8
ATOM      8  C   UNL     1       0.707  -0.490  -1.238  0.00  0.00    -0.027 A 
ATOM      9  C   UNL     1       2.089  -0.511  -1.284  0.00  0.00    +0.005 A 
ATOM     10  C   UNL     1       2.736  -0.957  -2.421  0.00  0.00    +0.000 A 
ATOM     11  C   UNL     1       2.002  -1.382  -3.512  0.00  0.00    +0.000 A 
ATOM     12  C   UNL     1       0.620  -1.362  -3.466  0.00  0.00    +0.000 A 
ATOM     13  C   UNL     1      -0.027  -0.920  -2.327  0.00  0.00    +0.005 A 
ENDBRANCH   7   8
ENDBRANCH   2   7
ENDBRANCH   1   3
BRANCH   1  14
ATOM     14  N   UNL     1      -0.150  -1.201   4.706  0.00  0.00    -0.302 N 
ATOM     15  C   UNL     1       0.317  -1.122   5.968  0.00  0.00    +0.231 C 
ATOM     16  O   UNL     1       1.506  -0.995   6.169  0.00  0.00    -0.274 OA
ATOM     17  H   UNL     1      -1.101  -1.302   4.546  0.00  0.00    +0.150 HD
BRANCH  15  18
ATOM     18  C   UNL     1      -0.640  -1.192   7.131  0.00  0.00    +0.145 C 
ATOM     19  C   UNL     1      -1.295   0.173   7.340  0.00  0.00    +0.063 C 
ATOM     20  C   UNL     1      -2.063   0.182   8.637  0.00  0.00    -0.041 A 
ATOM     21  C   UNL     1      -3.007   1.178   8.840  0.00  0.00    +0.004 A 
ATOM     22  C   UNL     1      -3.729   1.225  10.015  0.00  0.00    +0.000 A 
ATOM     23  C   UNL     1      -3.511   0.275  10.995  0.00  0.00    +0.000 A 
ATOM     24  C   UNL     1      -2.573  -0.718  10.793  0.00  0.00    +0.005 A 
ATOM     25  C   UNL     1      -1.848  -0.768   9.611  0.00  0.00    -0.030 A 
ATOM     26  C   UNL     1      -0.844  -1.877   9.433  0.00  0.00    +0.117 C 
ATOM     27  N   UNL     1       0.094  -1.555   8.354  0.00  0.00    -0.301 NA
ATOM     28  H   UNL     1       0.727  -2.321   8.182  0.00  0.00    +0.123 HD
ENDBRANCH  15  18
ENDBRANCH   1  14
BRANCH   1  29
ATOM     29  C   UNL     1       1.347  -2.526   3.298  0.00  0.00    +0.069 C 
BRANCH  29  30
ATOM     30  C   UNL     1       2.179  -2.974   4.472  0.00  0.00    -0.020 A 
ATOM     31  C   UNL     1       3.508  -2.844   4.605  0.00  0.00    +0.087 A 
ATOM     32  N   UNL     1       3.910  -3.367   5.803  0.00  0.00    -0.360 N 
ATOM     33  H   UNL     1       4.826  -3.387   6.123  0.00  0.00    +0.165 HD
ATOM     34  C   UNL     1       2.822  -3.859   6.489  0.00  0.00    +0.047 A 
ATOM     35  C   UNL     1       1.689  -3.629   5.687  0.00  0.00    +0.003 A 
ATOM     36  C   UNL     1       0.427  -4.024   6.135  0.00  0.00    +0.010 A 
ATOM     37  C   UNL     1       0.299  -4.630   7.354  0.00  0.00    +0.001 A 
ATOM     38  C   UNL     1       1.413  -4.855   8.150  0.00  0.00    +0.002 A 
ATOM     39  C   UNL     1       2.669  -4.482   7.723  0.00  0.00    +0.026 A 
ENDBRANCH  29  30
ENDBRANCH   1  29
TORSDOF 7
