REMARK  Name = ZINC16884132
REMARK  4 active torsions:
REMARK  status: ('A' for Active; 'I' for Inactive)
REMARK    1  A    between atoms: C_4  and  C_7
REMARK    2  A    between atoms: C_9  and  C_17
REMARK    3  A    between atoms: C_14  and  O_15
REMARK    4  A    between atoms: C_22  and  O_23
REMARK                            x       y       z     vdW  Elec       q    Type
REMARK                         _______ _______ _______ _____ _____    ______ ____
ROOT
ATOM      1  C   UNL     1       2.451   3.937  -0.001  0.00  0.00    +0.133 C 
ATOM      2  C   UNL     1       2.505   4.834  -1.240  0.00  0.00    +0.158 C 
ATOM      3  N   UNL     1       1.595   5.968  -1.056  0.00  0.00    -0.243 NA
ATOM      4  C   UNL     1       1.407   6.489   0.121  0.00  0.00    +0.211 C 
ATOM      5  N   UNL     1       2.006   5.990   1.230  0.00  0.00    -0.183 NA
ATOM      6  C   UNL     1       2.533   4.800   1.234  0.00  0.00    +0.200 C 
ATOM      7  N   UNL     1       0.574   7.582   0.244  0.00  0.00    -0.328 N 
ATOM      8  H   UNL     1       0.424   7.981   1.115  0.00  0.00    +0.145 HD
ATOM      9  H   UNL     1       0.139   7.950  -0.540  0.00  0.00    +0.145 HD
ENDROOT
BRANCH   1  13
ATOM     10  C   UNL     1      -1.219   1.751   0.017  0.00  0.00    +0.000 A 
ATOM     11  C   UNL     1      -0.013   1.076   0.008  0.00  0.00    +0.000 A 
ATOM     12  C   UNL     1       1.175   1.783   0.000  0.00  0.00    +0.004 A 
ATOM     13  C   UNL     1       1.156   3.165   0.008  0.00  0.00    -0.033 A 
ATOM     14  C   UNL     1      -0.050   3.840   0.023  0.00  0.00    +0.004 A 
ATOM     15  C   UNL     1      -1.238   3.133   0.030  0.00  0.00    +0.000 A 
ENDBRANCH   1  13
BRANCH   2  16
ATOM     16  C   UNL     1       2.085   4.044  -2.452  0.00  0.00    +0.019 A 
ATOM     17  C   UNL     1       0.799   4.162  -2.943  0.00  0.00    +0.009 A 
ATOM     18  C   UNL     1       0.415   3.441  -4.059  0.00  0.00    +0.001 A 
ATOM     19  C   UNL     1       1.314   2.591  -4.679  0.00  0.00    +0.004 A 
ATOM     20  C   UNL     1       2.599   2.466  -4.189  0.00  0.00    +0.046 A 
ATOM     21  C   UNL     1       2.988   3.193  -3.073  0.00  0.00    +0.122 A 
BRANCH  21  22
ATOM     22  O   UNL     1       4.252   3.072  -2.589  0.00  0.00    -0.506 OA
ATOM     23  H   UNL     1       4.355   2.376  -1.926  0.00  0.00    +0.292 HD
ENDBRANCH  21  22
ENDBRANCH   2  16
BRANCH   6  24
ATOM     24  O   UNL     1       3.149   4.340   2.338  0.00  0.00    -0.495 OA
ATOM     25  H   UNL     1       3.175   4.929   3.104  0.00  0.00    +0.293 HD
ENDBRANCH   6  24
TORSDOF 4
