REMARK  Name = ZINC12975180
REMARK  10 active torsions:
REMARK  status: ('A' for Active; 'I' for Inactive)
REMARK    1  A    between atoms: C_4  and  S_11
REMARK    2  A    between atoms: C_5  and  C_7
REMARK    3  A    between atoms: S_11  and  N_14
REMARK    4  A    between atoms: N_14  and  C_15
REMARK    5  A    between atoms: C_15  and  C_16
REMARK    6  A    between atoms: C_16  and  C_17
REMARK    7  A    between atoms: N_19  and  C_20
REMARK    8  A    between atoms: C_20  and  C_21
REMARK    9  A    between atoms: C_21  and  C_23
REMARK   10  A    between atoms: C_21  and  N_28
REMARK                            x       y       z     vdW  Elec       q    Type
REMARK                         _______ _______ _______ _____ _____    ______ ____
ROOT
ATOM      1  C   UNL     1       2.989  -3.758   3.546  0.00  0.00    +0.214 C 
ATOM      2  O   UNL     1       1.950  -3.994   2.967  0.00  0.00    -0.276 OA
ATOM      3  N   UNL     1       3.415  -4.579   4.527  0.00  0.00    -0.316 N 
ATOM      4  H   UNL     1       4.246  -4.390   4.990  0.00  0.00    +0.149 HD
ENDROOT
BRANCH   1   5
ATOM      5  C   UNL     1       3.804  -2.548   3.169  0.00  0.00    +0.112 C 
BRANCH   5   6
ATOM      6  C   UNL     1       3.104  -1.794   2.038  0.00  0.00    +0.115 C 
BRANCH   6   7
ATOM      7  N   UNL     1       3.896  -0.617   1.671  0.00  0.00    -0.189 NA
ATOM      8  H   UNL     1       4.588  -0.292   2.269  0.00  0.00    +0.148 HD
BRANCH   7   9
ATOM      9  S   UNL     1       3.612   0.158   0.235  0.00  0.00    +0.059 S 
ATOM     10  O   UNL     1       3.611  -0.843  -0.773  0.00  0.00    -0.153 OA
ATOM     11  O   UNL     1       4.489   1.276   0.197  0.00  0.00    -0.153 OA
BRANCH   9  15
ATOM     12  C   UNL     1      -0.596   1.816   0.421  0.00  0.00    +0.001 A 
ATOM     13  C   UNL     1      -0.285   0.820  -0.485  0.00  0.00    +0.002 A 
ATOM     14  C   UNL     1       1.000   0.314  -0.542  0.00  0.00    +0.029 A 
ATOM     15  C   UNL     1       1.975   0.804   0.307  0.00  0.00    +0.117 A 
ATOM     16  C   UNL     1       1.664   1.800   1.213  0.00  0.00    +0.081 A 
ATOM     17  C   UNL     1       0.378   2.306   1.271  0.00  0.00    +0.014 A 
BRANCH  16  18
ATOM     18  C   UNL     1       2.726   2.334   2.140  0.00  0.00    +0.419 C 
ATOM     19  F   UNL     1       2.147   3.229   3.046  0.00  0.00    -0.166 F 
ATOM     20  F   UNL     1       3.310   1.273   2.840  0.00  0.00    -0.166 F 
ATOM     21  F   UNL     1       3.706   2.997   1.393  0.00  0.00    -0.166 F 
ENDBRANCH  16  18
ENDBRANCH   9  15
ENDBRANCH   7   9
ENDBRANCH   6   7
ENDBRANCH   5   6
ENDBRANCH   1   5
BRANCH   3  22
ATOM     22  C   UNL     1       2.622  -5.755   4.894  0.00  0.00    +0.096 C 
BRANCH  22  23
ATOM     23  C   UNL     1       3.261  -6.444   6.101  0.00  0.00    +0.016 C 
BRANCH  23  24
ATOM     24  N   UNL     1       4.673  -6.727   5.813  0.00  0.00    +0.387 N 
ATOM     25  C   UNL     1       4.769  -7.537   4.593  0.00  0.00    -0.078 C 
ATOM     26  C   UNL     1       6.241  -7.767   4.243  0.00  0.00    -0.019 C 
ATOM     27  C   UNL     1       6.926  -8.501   5.399  0.00  0.00    -0.004 C 
ATOM     28  C   UNL     1       6.756  -7.683   6.682  0.00  0.00    -0.019 C 
ATOM     29  C   UNL     1       5.265  -7.456   6.942  0.00  0.00    -0.078 C 
ATOM     30  H   UNL     1       5.169  -5.859   5.678  0.00  0.00    -0.081 HD
ENDBRANCH  23  24
BRANCH  23  31
ATOM     31  C   UNL     1       3.165  -5.541   7.304  0.00  0.00    +0.093 A 
ATOM     32  C   UNL     1       2.258  -5.640   8.292  0.00  0.00    +0.043 A 
ATOM     33  C   UNL     1       2.533  -4.599   9.207  0.00  0.00    +0.041 A 
ATOM     34  C   UNL     1       3.592  -3.925   8.724  0.00  0.00    +0.195 A 
ATOM     35  O   UNL     1       3.974  -4.504   7.574  0.00  0.00    -0.469 OA
ENDBRANCH  23  31
ENDBRANCH  22  23
ENDBRANCH   3  22
TORSDOF 10
