REMARK  Name = ZINC60215418
REMARK  9 active torsions:
REMARK  status: ('A' for Active; 'I' for Inactive)
REMARK    1  A    between atoms: C_1  and  C_2
REMARK    2  A    between atoms: C_2  and  C_3
REMARK    3  A    between atoms: C_2  and  C_4
REMARK    4  A    between atoms: C_2  and  C_5
REMARK    5  A    between atoms: N_13  and  C_17
REMARK    6  A    between atoms: C_17  and  C_18
REMARK    7  A    between atoms: N_20  and  C_21
REMARK    8  A    between atoms: C_21  and  C_22
REMARK    9  A    between atoms: N_24  and  C_25
REMARK                            x       y       z     vdW  Elec       q    Type
REMARK                         _______ _______ _______ _____ _____    ______ ____
ROOT
ATOM      1  C   UNL     1       0.718  -0.497  -1.257  0.00  0.00    -0.005 C 
ATOM      2  C   UNL     1       0.737  -2.027  -1.266  0.00  0.00    +0.006 C 
ATOM      3  C   UNL     1       1.444  -2.520  -2.531  0.00  0.00    +0.035 C 
ATOM      4  C   UNL     1       2.869  -1.978  -2.563  0.00  0.00    +0.113 C 
ATOM      5  C   UNL     1       2.866  -0.453  -2.532  0.00  0.00    +0.035 C 
ATOM      6  C   UNL     1       2.154   0.032  -1.267  0.00  0.00    +0.006 C 
ATOM      7  C   UNL     1       3.598  -2.480  -3.787  0.00  0.00    +0.247 C 
ATOM      8  O   UNL     1       3.308  -2.281  -4.947  0.00  0.00    -0.273 OA
ATOM      9  N   UNL     1       4.640  -3.197  -3.317  0.00  0.00    -0.215 N 
ATOM     10  C   UNL     1       4.664  -3.212  -1.979  0.00  0.00    +0.310 C 
ATOM     11  O   UNL     1       5.508  -3.792  -1.325  0.00  0.00    -0.252 OA
ATOM     12  N   UNL     1       3.647  -2.513  -1.439  0.00  0.00    -0.285 N 
ATOM     13  H   UNL     1       3.466  -2.388  -0.494  0.00  0.00    +0.151 HD
ENDROOT
BRANCH   1  15
ATOM     14  C   UNL     1      -0.019   1.526   0.010  0.00  0.00    +0.011 C 
ATOM     15  C   UNL     1       0.002  -0.004   0.002  0.00  0.00    -0.035 C 
ATOM     16  C   UNL     1       0.742  -0.511   1.242  0.00  0.00    +0.011 C 
ATOM     17  C   UNL     1      -1.433  -0.534   0.013  0.00  0.00    +0.011 C 
ENDBRANCH   1  15
BRANCH   9  18
ATOM     18  C   UNL     1       5.623  -3.874  -4.166  0.00  0.00    +0.213 C 
BRANCH  18  19
ATOM     19  C   UNL     1       6.765  -2.936  -4.459  0.00  0.00    +0.231 C 
ATOM     20  O   UNL     1       6.759  -1.812  -4.003  0.00  0.00    -0.274 OA
ATOM     21  N   UNL     1       7.794  -3.346  -5.227  0.00  0.00    -0.305 N 
ATOM     22  H   UNL     1       7.799  -4.245  -5.592  0.00  0.00    +0.149 HD
BRANCH  21  23
ATOM     23  C   UNL     1       8.905  -2.434  -5.512  0.00  0.00    +0.200 C 
BRANCH  23  24
ATOM     24  C   UNL     1       9.916  -3.131  -6.385  0.00  0.00    +0.230 C 
ATOM     25  O   UNL     1       9.727  -4.277  -6.735  0.00  0.00    -0.274 OA
ATOM     26  N   UNL     1      11.030  -2.481  -6.777  0.00  0.00    -0.311 N 
ATOM     27  H   UNL     1      11.181  -1.565  -6.497  0.00  0.00    +0.149 HD
BRANCH  26  28
ATOM     28  C   UNL     1      12.013  -3.159  -7.626  0.00  0.00    +0.073 C 
ATOM     29  C   UNL     1      12.970  -3.970  -6.750  0.00  0.00    +0.022 C 
ATOM     30  C   UNL     1      13.997  -4.677  -7.637  0.00  0.00    +0.002 C 
ATOM     31  C   UNL     1      14.789  -3.636  -8.431  0.00  0.00    +0.000 C 
ATOM     32  C   UNL     1      13.831  -2.826  -9.306  0.00  0.00    +0.002 C 
ATOM     33  C   UNL     1      12.805  -2.118  -8.419  0.00  0.00    +0.022 C 
ENDBRANCH  26  28
ENDBRANCH  23  24
ENDBRANCH  21  23
ENDBRANCH  18  19
ENDBRANCH   9  18
TORSDOF 6
