REMARK  Name = ZINC39530531
REMARK  6 active torsions:
REMARK  status: ('A' for Active; 'I' for Inactive)
REMARK    1  A    between atoms: C_4  and  O_7
REMARK    2  A    between atoms: O_7  and  S_8
REMARK    3  A    between atoms: S_8  and  C_11
REMARK    4  A    between atoms: C_16  and  N_17
REMARK    5  A    between atoms: C_21  and  C_24
REMARK    6  A    between atoms: C_29  and  O_30
REMARK                            x       y       z     vdW  Elec       q    Type
REMARK                         _______ _______ _______ _____ _____    ______ ____
ROOT
ATOM      1  C   UNL     1       3.192  -2.273   2.002  0.00  0.00    +0.150 A 
ATOM      2  C   UNL     1       2.051  -2.014   2.737  0.00  0.00    +0.052 A 
ATOM      3  C   UNL     1       1.306  -3.060   3.252  0.00  0.00    +0.043 A 
ATOM      4  C   UNL     1       1.702  -4.369   3.033  0.00  0.00    +0.022 A 
ATOM      5  C   UNL     1       2.841  -4.633   2.300  0.00  0.00    +0.026 A 
ATOM      6  C   UNL     1       3.588  -3.585   1.776  0.00  0.00    +0.058 A 
ATOM      7 CL   UNL     1      -0.127  -2.731   4.174  0.00  0.00    -0.083 Cl
ENDROOT
BRANCH   6   8
ATOM      8  N   UNL     1       4.739  -3.850   1.029  0.00  0.00    -0.331 N 
ATOM      9  C   UNL     1       6.052  -3.973   1.680  0.00  0.00    +0.086 C 
ATOM     10  C   UNL     1       6.711  -5.272   1.204  0.00  0.00    -0.063 C 
ATOM     11  N   UNL     1       6.758  -5.286  -0.264  0.00  0.00    +0.386 N 
ATOM     12  C   UNL     1       5.395  -5.312  -0.808  0.00  0.00    -0.020 C 
ATOM     13  C   UNL     1       4.670  -4.021  -0.431  0.00  0.00    +0.094 C 
ATOM     14  H   UNL     1       7.234  -4.459  -0.592  0.00  0.00    -0.085 HD
ATOM     15  H   UNL     1       7.259  -6.105  -0.575  0.00  0.00    -0.085 HD
BRANCH  12  16
ATOM     16  C   UNL     1       5.455  -5.437  -2.308  0.00  0.00    -0.018 A 
ATOM     17  C   UNL     1       6.613  -5.104  -2.984  0.00  0.00    +0.005 A 
ATOM     18  C   UNL     1       6.669  -5.218  -4.361  0.00  0.00    +0.000 A 
ATOM     19  C   UNL     1       5.566  -5.665  -5.065  0.00  0.00    +0.004 A 
ATOM     20  C   UNL     1       4.406  -6.001  -4.394  0.00  0.00    +0.045 A 
ATOM     21  C   UNL     1       4.349  -5.892  -3.012  0.00  0.00    +0.118 A 
BRANCH  21  22
ATOM     22  O   UNL     1       3.211  -6.227  -2.349  0.00  0.00    -0.507 OA
ATOM     23  H   UNL     1       2.591  -5.493  -2.237  0.00  0.00    +0.292 HD
ENDBRANCH  21  22
ENDBRANCH  12  16
ENDBRANCH   6   8
BRANCH   1  24
ATOM     24  S   UNL     1       4.140  -0.941   1.346  0.00  0.00    +0.153 S 
ATOM     25  O   UNL     1       5.458  -1.436   1.154  0.00  0.00    -0.131 OA
ATOM     26  O   UNL     1       3.863   0.192   2.158  0.00  0.00    -0.131 OA
BRANCH  24  27
ATOM     27  O   UNL     1       3.586  -0.632  -0.037  0.00  0.00    -0.342 OA
BRANCH  27  31
ATOM     28  C   UNL     1      -0.017   1.378   0.010  0.00  0.00    +0.000 A 
ATOM     29  C   UNL     1       1.170   2.088   0.002  0.00  0.00    +0.004 A 
ATOM     30  C   UNL     1       2.377   1.417  -0.013  0.00  0.00    +0.048 A 
ATOM     31  C   UNL     1       2.399   0.030  -0.021  0.00  0.00    +0.157 A 
ATOM     32  C   UNL     1       1.207  -0.680  -0.013  0.00  0.00    +0.048 A 
ATOM     33  C   UNL     1       0.002  -0.004   0.002  0.00  0.00    +0.004 A 
ENDBRANCH  27  31
ENDBRANCH  24  27
ENDBRANCH   1  24
TORSDOF 6
