REMARK  Name = ZINC31674062
REMARK  7 active torsions:
REMARK  status: ('A' for Active; 'I' for Inactive)
REMARK    1  A    between atoms: C_1  and  S_2
REMARK    2  A    between atoms: S_2  and  C_5
REMARK    3  A    between atoms: C_9  and  C_11
REMARK    4  A    between atoms: N_13  and  N_14
REMARK    5  A    between atoms: C_15  and  C_17
REMARK    6  A    between atoms: C_17  and  N_18
REMARK    7  A    between atoms: C_19  and  C_21
REMARK                            x       y       z     vdW  Elec       q    Type
REMARK                         _______ _______ _______ _____ _____    ______ ____
ROOT
ATOM      1  N   UNL     1       3.848  11.258   0.029  0.00  0.00    -0.233 N 
ATOM      2  C   UNL     1       3.107  10.133   0.029  0.00  0.00    +0.246 C 
ATOM      3  O   UNL     1       1.896  10.204   0.041  0.00  0.00    -0.273 OA
ATOM      4  H   UNL     1       4.946  11.194   0.018  0.00  0.00    +0.173 HD
ENDROOT
BRANCH   1   7
ATOM      5  C   UNL     1       3.962  13.636   0.041  0.00  0.00    +0.260 C 
ATOM      6  O   UNL     1       5.175  13.565   0.029  0.00  0.00    -0.269 OA
ATOM      7  N   UNL     1       3.220  12.511   0.042  0.00  0.00    -0.230 N 
ATOM      8  H   UNL     1       2.122  12.575   0.052  0.00  0.00    +0.173 HD
BRANCH   5  13
ATOM      9  C   UNL     1       3.439  17.355   0.067  0.00  0.00    +0.089 A 
ATOM     10  C   UNL     1       2.058  17.433   0.080  0.00  0.00    +0.027 A 
ATOM     11  C   UNL     1       1.294  16.280   0.081  0.00  0.00    +0.003 A 
ATOM     12  C   UNL     1       1.906  15.043   0.063  0.00  0.00    +0.013 A 
ATOM     13  C   UNL     1       3.299  14.958   0.055  0.00  0.00    +0.040 A 
ATOM     14  C   UNL     1       4.064  16.126   0.055  0.00  0.00    +0.040 A 
BRANCH   9  16
ATOM     15  C   UNL     1       4.641  19.230  -1.688  0.00  0.00    +0.200 C 
ATOM     16  S   UNL     1       4.403  18.831   0.066  0.00  0.00    -0.006 S 
ATOM     17  O   UNL     1       3.573  19.806   0.682  0.00  0.00    -0.170 OA
ATOM     18  O   UNL     1       5.640  18.456   0.655  0.00  0.00    -0.170 OA
ENDBRANCH   9  16
ENDBRANCH   5  13
ENDBRANCH   1   7
BRANCH   2  19
ATOM     19  C   UNL     1       3.782   8.786   0.015  0.00  0.00    +0.202 C 
BRANCH  19  20
ATOM     20  N   UNL     1       2.767   7.730   0.019  0.00  0.00    -0.302 N 
ATOM     21  C   UNL     1       3.140   6.435   0.008  0.00  0.00    +0.253 C 
ATOM     22  O   UNL     1       4.322   6.143  -0.005  0.00  0.00    -0.270 OA
ATOM     23  H   UNL     1       1.699   7.994   0.030  0.00  0.00    +0.150 HD
BRANCH  21  24
ATOM     24  C   UNL     1       2.122   5.377   0.011  0.00  0.00    +0.093 A 
ATOM     25  C   UNL     1       2.301   4.028   0.002  0.00  0.00    +0.068 A 
ATOM     26  C   UNL     1       1.184   3.173   0.008  0.00  0.00    +0.008 A 
ATOM     27  C   UNL     1       1.164   1.754   0.000  0.00  0.00    +0.010 A 
ATOM     28  C   UNL     1      -0.013   1.076   0.008  0.00  0.00    +0.001 A 
ATOM     29  C   UNL     1      -1.235   1.737   0.017  0.00  0.00    +0.001 A 
ATOM     30  C   UNL     1      -1.261   3.117   0.030  0.00  0.00    +0.016 A 
ATOM     31  C   UNL     1      -0.075   3.819   0.023  0.00  0.00    +0.021 A 
ATOM     32  S   UNL     1       0.346   5.544   0.029  0.00  0.00    -0.082 S 
ATOM     33 CL   UNL     1       3.905   3.364  -0.017  0.00  0.00    -0.082 Cl
ENDBRANCH  21  24
ENDBRANCH  19  20
ENDBRANCH   2  19
TORSDOF 6
