REMARK  Name = ZINC19941607
REMARK  7 active torsions:
REMARK  status: ('A' for Active; 'I' for Inactive)
REMARK    1  A    between atoms: C_1  and  C_2
REMARK    2  A    between atoms: C_4  and  C_39
REMARK    3  A    between atoms: C_9  and  C_14
REMARK    4  A    between atoms: C_14  and  C_16
REMARK    5  A    between atoms: C_14  and  N_27
REMARK    6  A    between atoms: N_20  and  C_21
REMARK    7  A    between atoms: N_30  and  C_33
REMARK                            x       y       z     vdW  Elec       q    Type
REMARK                         _______ _______ _______ _____ _____    ______ ____
ROOT
ATOM      1  C   UNL     1       1.817  -1.796  -0.025  0.00  0.00    +0.162 C 
ENDROOT
BRANCH   1  10
ATOM      2  C   UNL     1       3.602  -0.126   7.021  0.00  0.00    +0.044 C 
ATOM      3  C   UNL     1       3.585  -1.089   5.863  0.00  0.00    -0.050 A 
ATOM      4  C   UNL     1       4.146  -2.351   6.009  0.00  0.00    +0.008 A 
ATOM      5  C   UNL     1       4.141  -3.248   4.964  0.00  0.00    -0.026 A 
ATOM      6  C   UNL     1       3.571  -2.888   3.747  0.00  0.00    +0.052 A 
ATOM      7  C   UNL     1       3.004  -1.608   3.602  0.00  0.00    -0.001 A 
ATOM      8  C   UNL     1       3.020  -0.714   4.678  0.00  0.00    +0.013 A 
ATOM      9  C   UNL     1       2.412  -1.236   2.316  0.00  0.00    +0.021 A 
ATOM     10  C   UNL     1       2.422  -2.145   1.310  0.00  0.00    +0.042 A 
ATOM     11  C   UNL     1       3.004  -3.416   1.508  0.00  0.00    +0.254 A 
ATOM     12  O   UNL     1       3.006  -4.218   0.590  0.00  0.00    -0.268 OA
ATOM     13  N   UNL     1       3.554  -3.765   2.684  0.00  0.00    -0.322 N 
ATOM     14  H   UNL     1       3.996  -4.767   2.791  0.00  0.00    +0.169 HD
ATOM     15  C   UNL     1       4.752  -4.615   5.137  0.00  0.00    +0.046 C 
ENDBRANCH   1  10
BRANCH   1  16
ATOM     16  N   UNL     1       2.844  -1.896  -1.069  0.00  0.00    -0.292 NA
ATOM     17  C   UNL     1       4.004  -1.051  -0.750  0.00  0.00    +0.067 C 
ATOM     18  C   UNL     1       5.082  -1.243  -1.820  0.00  0.00    -0.063 C 
ATOM     19  N   UNL     1       4.528  -0.898  -3.137  0.00  0.00    +0.383 N 
ATOM     20  C   UNL     1       3.369  -1.743  -3.456  0.00  0.00    -0.063 C 
ATOM     21  C   UNL     1       2.291  -1.551  -2.387  0.00  0.00    +0.067 C 
ATOM     22  H   UNL     1       4.187   0.147  -3.099  0.00  0.00    -0.081 HD
BRANCH  19  23
ATOM     23  C   UNL     1       5.556  -0.998  -4.182  0.00  0.00    -0.068 C 
ATOM     24  C   UNL     1       6.025  -2.450  -4.300  0.00  0.00    -0.015 C 
ATOM     25  C   UNL     1       7.095  -2.553  -5.388  0.00  0.00    -0.002 C 
ATOM     26  C   UNL     1       8.283  -1.662  -5.021  0.00  0.00    -0.000 C 
ATOM     27  C   UNL     1       7.814  -0.210  -4.904  0.00  0.00    -0.002 C 
ATOM     28  C   UNL     1       6.744  -0.106  -3.815  0.00  0.00    -0.015 C 
ENDBRANCH  19  23
ENDBRANCH   1  16
BRANCH   1  29
ATOM     29  C   UNL     1       1.280  -0.388   0.020  0.00  0.00    +0.173 A 
ATOM     30  N   UNL     1       1.983   0.718  -0.013  0.00  0.00    -0.111 NA
ATOM     31  N   UNL     1       1.164   1.711   0.045  0.00  0.00    -0.023 NA
ATOM     32  N   UNL     1      -0.043   1.267   0.116  0.00  0.00    -0.044 NA
ATOM     33  N   UNL     1      -0.012  -0.023   0.102  0.00  0.00    -0.224 N 
BRANCH  33  34
ATOM     34  C   UNL     1      -1.168  -0.921   0.165  0.00  0.00    +0.111 C 
ATOM     35  C   UNL     1      -2.088  -0.653  -1.027  0.00  0.00    +0.027 C 
ATOM     36  C   UNL     1      -3.295  -1.591  -0.962  0.00  0.00    +0.002 C 
ATOM     37  C   UNL     1      -4.062  -1.345   0.339  0.00  0.00    +0.000 C 
ATOM     38  C   UNL     1      -3.142  -1.613   1.532  0.00  0.00    +0.002 C 
ATOM     39  C   UNL     1      -1.935  -0.675   1.466  0.00  0.00    +0.027 C 
ENDBRANCH  33  34
ENDBRANCH   1  29
TORSDOF 5
