REMARK  Name = ZINC08369114
REMARK  6 active torsions:
REMARK  status: ('A' for Active; 'I' for Inactive)
REMARK    1  A    between atoms: C_3  and  O_28
REMARK    2  A    between atoms: C_6  and  C_7
REMARK    3  A    between atoms: C_8  and  C_9
REMARK    4  A    between atoms: C_15  and  C_17
REMARK    5  A    between atoms: O_28  and  C_29
REMARK    6  A    between atoms: C_29  and  C_30
REMARK                            x       y       z     vdW  Elec       q    Type
REMARK                         _______ _______ _______ _____ _____    ______ ____
ROOT
ATOM      1  C   UNL     1       3.643   6.036  -0.002  0.00  0.00    +0.240 C 
ATOM      2  O   UNL     1       4.707   5.445  -0.015  0.00  0.00    -0.271 OA
ATOM      3  N   UNL     1       3.621   7.384   0.005  0.00  0.00    -0.291 N 
ATOM      4  C   UNL     1       2.409   8.223   0.014  0.00  0.00    +0.109 C 
ATOM      5  C   UNL     1       2.866   9.570   0.634  0.00  0.00    +0.021 C 
ATOM      6  C   UNL     1       4.291   9.716   0.036  0.00  0.00    +0.029 C 
ATOM      7  C   UNL     1       4.801   8.261  -0.002  0.00  0.00    +0.107 C 
ENDROOT
BRANCH   7   8
ATOM      8  C   UNL     1       5.602   8.031  -1.258  0.00  0.00    -0.023 A 
ATOM      9  C   UNL     1       4.953   7.810  -2.458  0.00  0.00    +0.009 A 
ATOM     10  C   UNL     1       5.682   7.599  -3.615  0.00  0.00    +0.050 A 
ATOM     11  C   UNL     1       7.066   7.610  -3.567  0.00  0.00    +0.162 A 
ATOM     12  C   UNL     1       7.717   7.833  -2.362  0.00  0.00    +0.162 A 
ATOM     13  C   UNL     1       6.984   8.049  -1.207  0.00  0.00    +0.055 A 
ATOM     14  O   UNL     1       9.081   7.841  -2.324  0.00  0.00    -0.488 OA
ATOM     15  C   UNL     1       9.717   8.934  -2.990  0.00  0.00    +0.232 C 
ATOM     16  C   UNL     1       9.871   8.644  -4.475  0.00  0.00    +0.082 C 
ATOM     17  C   UNL     1       8.531   8.529  -5.184  0.00  0.00    +0.232 C 
ATOM     18  O   UNL     1       7.797   7.403  -4.700  0.00  0.00    -0.488 OA
ENDBRANCH   7   8
BRANCH   1  20
ATOM     19  C   UNL     1       2.411   3.935  -0.001  0.00  0.00    +0.013 C 
ATOM     20  C   UNL     1       2.389   5.284   0.006  0.00  0.00    +0.068 C 
BRANCH  19  26
ATOM     21  C   UNL     1       1.171   1.779   0.000  0.00  0.00    +0.011 A 
ATOM     22  C   UNL     1      -0.013   1.076   0.008  0.00  0.00    +0.046 A 
ATOM     23  C   UNL     1      -1.226   1.753   0.017  0.00  0.00    +0.121 A 
ATOM     24  C   UNL     1      -1.252   3.143   0.030  0.00  0.00    +0.046 A 
ATOM     25  C   UNL     1      -0.074   3.856   0.022  0.00  0.00    +0.011 A 
ATOM     26  C   UNL     1       1.150   3.179   0.008  0.00  0.00    -0.025 A 
BRANCH  23  27
ATOM     27  O   UNL     1      -2.391   1.055   0.019  0.00  0.00    -0.483 OA
BRANCH  27  28
ATOM     28  C   UNL     1      -3.602   1.813   0.029  0.00  0.00    +0.324 C 
BRANCH  28  29
ATOM     29  C   UNL     1      -4.782   0.876   0.029  0.00  0.00    +0.248 C 
ATOM     30  O   UNL     1      -4.603  -0.324   0.022  0.00  0.00    -0.272 OA
ATOM     31  N   UNL     1      -6.035   1.370   0.038  0.00  0.00    -0.327 N 
ATOM     32  H   UNL     1      -6.178   2.330   0.044  0.00  0.00    +0.145 HD
ATOM     33  H   UNL     1      -6.795   0.767   0.038  0.00  0.00    +0.145 HD
ENDBRANCH  28  29
ENDBRANCH  27  28
ENDBRANCH  23  27
ENDBRANCH  19  26
ENDBRANCH   1  20
TORSDOF 6
