REMARK  Name = ZINC14201395
REMARK  8 active torsions:
REMARK  status: ('A' for Active; 'I' for Inactive)
REMARK    1  A    between atoms: C_1  and  C_2
REMARK    2  A    between atoms: C_2  and  C_28
REMARK    3  A    between atoms: N_5  and  N_9
REMARK    4  A    between atoms: C_10  and  C_12
REMARK    5  A    between atoms: C_12  and  N_64
REMARK    6  A    between atoms: C_16  and  C_19
REMARK    7  A    between atoms: C_28  and  C_29
REMARK    8  A    between atoms: C_29  and  C_30
REMARK                            x       y       z     vdW  Elec       q    Type
REMARK                         _______ _______ _______ _____ _____    ______ ____
ROOT
ATOM      1  N   UNL     1       8.954   6.307  -3.664  0.00  0.00    -0.225 N 
ATOM      2  C   UNL     1       8.422   5.677  -2.598  0.00  0.00    +0.213 C 
ATOM      3  O   UNL     1       9.140   5.297  -1.697  0.00  0.00    -0.276 OA
ATOM      4  H   UNL     1       8.380   6.610  -4.384  0.00  0.00    +0.173 HD
ENDROOT
BRANCH   1   9
ATOM      5  C   UNL     1      13.168   7.790  -2.408  0.00  0.00    +0.041 C 
ATOM      6  C   UNL     1      12.412   7.477  -3.701  0.00  0.00    +0.112 C 
ATOM      7  C   UNL     1      10.926   7.719  -3.531  0.00  0.00    +0.263 C 
ATOM      8  O   UNL     1      10.381   8.770  -3.268  0.00  0.00    -0.271 OA
ATOM      9  N   UNL     1      10.336   6.524  -3.731  0.00  0.00    -0.137 N 
ATOM     10  C   UNL     1      11.234   5.571  -4.009  0.00  0.00    +0.326 C 
ATOM     11  O   UNL     1      10.943   4.413  -4.231  0.00  0.00    -0.251 OA
ATOM     12  N   UNL     1      12.495   6.040  -4.014  0.00  0.00    -0.284 N 
ATOM     13  H   UNL     1      13.302   5.530  -4.190  0.00  0.00    +0.151 HD
BRANCH   6  14
ATOM     14  C   UNL     1      12.961   8.312  -4.859  0.00  0.00    +0.040 C 
BRANCH  14  15
ATOM     15  C   UNL     1      14.397   7.880  -5.164  0.00  0.00    +0.038 C 
BRANCH  15  16
ATOM     16  C   UNL     1      14.937   8.704  -6.305  0.00  0.00    -0.047 A 
ATOM     17  C   UNL     1      14.780   8.267  -7.607  0.00  0.00    +0.003 A 
ATOM     18  C   UNL     1      15.272   9.025  -8.654  0.00  0.00    +0.000 A 
ATOM     19  C   UNL     1      15.929  10.214  -8.398  0.00  0.00    +0.000 A 
ATOM     20  C   UNL     1      16.091  10.647  -7.095  0.00  0.00    +0.000 A 
ATOM     21  C   UNL     1      15.595   9.892  -6.049  0.00  0.00    +0.003 A 
ENDBRANCH  15  16
ENDBRANCH  14  15
ENDBRANCH   6  14
ENDBRANCH   1   9
BRANCH   2  22
ATOM     22  C   UNL     1       6.935   5.443  -2.525  0.00  0.00    +0.020 C 
BRANCH  22  28
ATOM     23  C   UNL     1       6.894   5.589  -0.109  0.00  0.00    -0.078 C 
ATOM     24  C   UNL     1       6.683   4.781   1.173  0.00  0.00    -0.018 C 
ATOM     25  C   UNL     1       5.237   4.280   1.223  0.00  0.00    +0.006 C 
ATOM     26  C   UNL     1       4.952   3.441  -0.027  0.00  0.00    +0.028 C 
ATOM     27  C   UNL     1       5.214   4.289  -1.274  0.00  0.00    -0.068 C 
ATOM     28  N   UNL     1       6.628   4.719  -1.274  0.00  0.00    +0.386 N 
ATOM     29  H   UNL     1       7.229   3.889  -1.213  0.00  0.00    -0.081 HD
BRANCH  26  30
ATOM     30  C   UNL     1       3.514   2.993  -0.015  0.00  0.00    +0.081 A 
ATOM     31  N   UNL     1       2.438   3.729  -0.001  0.00  0.00    -0.244 NA
ATOM     32  C   UNL     1       1.197   3.198   0.008  0.00  0.00    +0.078 A 
ATOM     33  C   UNL     1      -0.053   3.857   0.023  0.00  0.00    +0.029 A 
ATOM     34  C   UNL     1      -1.212   3.145   0.031  0.00  0.00    +0.002 A 
ATOM     35  C   UNL     1      -1.215   1.757   0.017  0.00  0.00    +0.001 A 
ATOM     36  C   UNL     1      -0.013   1.076   0.008  0.00  0.00    +0.017 A 
ATOM     37  C   UNL     1       1.164   1.785   0.001  0.00  0.00    +0.039 A 
ATOM     38  S   UNL     1       2.890   1.373  -0.018  0.00  0.00    -0.072 S 
ENDBRANCH  26  30
ENDBRANCH  22  28
ENDBRANCH   2  22
TORSDOF 7
