REMARK  Name = ZINC58245075
REMARK  10 active torsions:
REMARK  status: ('A' for Active; 'I' for Inactive)
REMARK    1  A    between atoms: C_1  and  C_2
REMARK    2  A    between atoms: C_2  and  C_3
REMARK    3  A    between atoms: C_2  and  C_4
REMARK    4  A    between atoms: C_4  and  C_5
REMARK    5  A    between atoms: C_5  and  C_7
REMARK    6  A    between atoms: C_5  and  N_12
REMARK    7  A    between atoms: C_13  and  C_15
REMARK    8  A    between atoms: C_15  and  C_16
REMARK    9  A    between atoms: C_16  and  C_18
REMARK   10  A    between atoms: C_16  and  N_23
REMARK                            x       y       z     vdW  Elec       q    Type
REMARK                         _______ _______ _______ _____ _____    ______ ____
ROOT
ATOM      1  N   UNL     1      -1.330  -0.821   2.503  0.00  0.00    -0.308 N 
ATOM      2  C   UNL     1      -2.373  -0.303   3.181  0.00  0.00    +0.216 C 
ATOM      3  O   UNL     1      -2.245   0.740   3.787  0.00  0.00    -0.276 OA
ATOM      4  H   UNL     1      -1.432  -1.655   2.019  0.00  0.00    +0.149 HD
ENDROOT
BRANCH   1   5
ATOM      5  C   UNL     1      -0.042  -0.124   2.497  0.00  0.00    +0.110 C 
BRANCH   5   6
ATOM      6  C   UNL     1       0.746  -0.514   3.721  0.00  0.00    +0.010 A 
ATOM      7  C   UNL     1       1.515   0.262   4.525  0.00  0.00    +0.013 A 
ATOM      8  C   UNL     1       2.152  -0.318   5.606  0.00  0.00    +0.008 A 
ATOM      9  C   UNL     1       1.990  -1.645   5.830  0.00  0.00    +0.045 A 
ATOM     10  S   UNL     1       0.903  -2.116   4.494  0.00  0.00    -0.100 S 
ENDBRANCH   5   6
BRANCH   5  11
ATOM     11  C   UNL     1       0.742  -0.511   1.242  0.00  0.00    +0.030 C 
BRANCH  11  13
ATOM     12  C   UNL     1      -0.019   1.526   0.010  0.00  0.00    +0.007 C 
ATOM     13  C   UNL     1       0.002  -0.004   0.002  0.00  0.00    -0.015 C 
ATOM     14  C   UNL     1       0.718  -0.497  -1.257  0.00  0.00    +0.007 C 
ENDBRANCH  11  13
ENDBRANCH   5  11
ENDBRANCH   1   5
BRANCH   2  15
ATOM     15  C   UNL     1      -3.699  -1.020   3.187  0.00  0.00    +0.123 C 
BRANCH  15  16
ATOM     16  C   UNL     1      -4.704  -0.226   4.024  0.00  0.00    +0.120 C 
BRANCH  16  17
ATOM     17  N   UNL     1      -4.268  -0.206   5.422  0.00  0.00    -0.292 N 
ATOM     18  C   UNL     1      -4.661   0.793   6.237  0.00  0.00    +0.298 C 
ATOM     19  O   UNL     1      -5.377   1.678   5.811  0.00  0.00    -0.253 OA
ATOM     20  N   UNL     1      -4.260   0.811   7.523  0.00  0.00    -0.313 N 
ATOM     21  H   UNL     1      -3.696  -0.912   5.762  0.00  0.00    +0.151 HD
ATOM     22  H   UNL     1      -3.688   0.105   7.863  0.00  0.00    +0.146 HD
ATOM     23  H   UNL     1      -4.542   1.531   8.109  0.00  0.00    +0.146 HD
ENDBRANCH  16  17
BRANCH  16  24
ATOM     24  C   UNL     1      -6.060  -0.877   3.930  0.00  0.00    +0.010 A 
ATOM     25  C   UNL     1      -7.120  -0.533   3.157  0.00  0.00    +0.013 A 
ATOM     26  C   UNL     1      -8.278  -1.284   3.236  0.00  0.00    +0.008 A 
ATOM     27  C   UNL     1      -8.320  -2.341   4.084  0.00  0.00    +0.045 A 
ATOM     28  S   UNL     1      -6.686  -2.304   4.801  0.00  0.00    -0.100 S 
ENDBRANCH  16  24
ENDBRANCH  15  16
ENDBRANCH   2  15
TORSDOF 8
