REMARK  Name = ZINC02261512
REMARK  10 active torsions:
REMARK  status: ('A' for Active; 'I' for Inactive)
REMARK    1  A    between atoms: C_1  and  C_2
REMARK    2  A    between atoms: N_8  and  C_9
REMARK    3  A    between atoms: C_9  and  C_10
REMARK    4  A    between atoms: C_16  and  C_24
REMARK    5  A    between atoms: C_18  and  C_22
REMARK    6  A    between atoms: C_19  and  N_21
REMARK    7  A    between atoms: C_27  and  O_32
REMARK    8  A    between atoms: C_29  and  O_30
REMARK    9  A    between atoms: O_30  and  C_31
REMARK   10  A    between atoms: O_32  and  C_33
REMARK                            x       y       z     vdW  Elec       q    Type
REMARK                         _______ _______ _______ _____ _____    ______ ____
ROOT
ATOM      1  C   UNL     1      -2.799  -1.588  -4.819  0.00  0.00    +0.064 C 
ATOM      2  C   UNL     1      -2.036  -1.243  -3.565  0.00  0.00    +0.023 A 
ATOM      3  C   UNL     1      -2.609  -1.447  -2.360  0.00  0.00    +0.068 A 
ATOM      4  C   UNL     1      -1.899  -1.127  -1.184  0.00  0.00    +0.141 A 
ATOM      5  C   UNL     1      -0.627  -0.605  -1.293  0.00  0.00    +0.072 A 
ATOM      6  C   UNL     1      -0.073  -0.412  -2.565  0.00  0.00    +0.259 A 
ATOM      7  O   UNL     1       1.052   0.047  -2.676  0.00  0.00    -0.267 OA
ATOM      8  N   UNL     1      -0.781  -0.731  -3.664  0.00  0.00    -0.308 N 
ATOM      9  C   UNL     1       0.165  -0.248  -0.065  0.00  0.00    +0.107 C 
ATOM     10  C   UNL     1      -0.440  -0.898   1.148  0.00  0.00    +0.098 C 
ATOM     11  C   UNL     1      -1.700  -1.393   1.125  0.00  0.00    +0.199 C 
ATOM     12  O   UNL     1      -2.468  -1.331   0.023  0.00  0.00    -0.441 OA
ENDROOT
BRANCH   9  13
ATOM     13  C   UNL     1       0.160   1.248   0.115  0.00  0.00    +0.007 A 
ATOM     14  C   UNL     1      -1.036   1.919   0.288  0.00  0.00    +0.012 A 
ATOM     15  C   UNL     1      -1.044   3.290   0.459  0.00  0.00    +0.046 A 
ATOM     16  C   UNL     1       0.150   3.998   0.446  0.00  0.00    +0.124 A 
ATOM     17  C   UNL     1       1.350   3.329   0.266  0.00  0.00    +0.091 A 
ATOM     18  C   UNL     1       1.355   1.952   0.101  0.00  0.00    +0.128 A 
BRANCH  18  19
ATOM     19  O   UNL     1       2.530   1.293  -0.076  0.00  0.00    -0.495 OA
ATOM     20  C   UNL     1       3.722   2.081  -0.080  0.00  0.00    +0.277 C 
ENDBRANCH  18  19
BRANCH  16  21
ATOM     21  O   UNL     1       0.141   5.347   0.608  0.00  0.00    -0.495 OA
ATOM     22  C   UNL     1      -1.132   5.971   0.788  0.00  0.00    +0.277 C 
ENDBRANCH  16  21
ENDBRANCH   9  13
BRANCH  11  23
ATOM     23  N   UNL     1      -2.208  -1.977   2.258  0.00  0.00    -0.328 N 
ATOM     24  H   UNL     1      -1.666  -2.030   3.061  0.00  0.00    +0.145 HD
ATOM     25  H   UNL     1      -3.109  -2.336   2.257  0.00  0.00    +0.145 HD
ENDBRANCH  11  23
BRANCH  10  26
ATOM     26  C   UNL     1       0.330  -0.995   2.351  0.00  0.00    +0.101 C 
ATOM     27  N   UNL     1       0.942  -1.071   3.306  0.00  0.00    -0.191 NA
ENDBRANCH  10  26
BRANCH   8  28
ATOM     28  C   UNL     1      -0.190  -0.523  -4.988  0.00  0.00    +0.160 C 
BRANCH  28  29
ATOM     29  C   UNL     1       0.639  -1.725  -5.362  0.00  0.00    -0.028 A 
ATOM     30  C   UNL     1       1.957  -1.810  -4.955  0.00  0.00    +0.005 A 
ATOM     31  C   UNL     1       2.716  -2.915  -5.294  0.00  0.00    +0.000 A 
ATOM     32  C   UNL     1       2.159  -3.930  -6.049  0.00  0.00    +0.000 A 
ATOM     33  C   UNL     1       0.843  -3.842  -6.462  0.00  0.00    +0.000 A 
ATOM     34  C   UNL     1       0.083  -2.740  -6.119  0.00  0.00    +0.005 A 
ENDBRANCH  28  29
ENDBRANCH   8  28
TORSDOF 7
