REMARK  Name = ZINC20081513
REMARK  3 active torsions:
REMARK  status: ('A' for Active; 'I' for Inactive)
REMARK    1  A    between atoms: C_2  and  C_9
REMARK    2  A    between atoms: C_3  and  C_7
REMARK    3  A    between atoms: C_4  and  N_6
REMARK                            x       y       z     vdW  Elec       q    Type
REMARK                         _______ _______ _______ _____ _____    ______ ____
ROOT
ATOM      1  C   UNL     1      -0.165   2.826  -4.614  0.00  0.00    +0.052 A 
ATOM      2  C   UNL     1      -0.771   2.038  -3.709  0.00  0.00    -0.015 A 
ATOM      3  C   UNL     1      -2.149   1.687  -3.959  0.00  0.00    +0.083 A 
ATOM      4  C   UNL     1      -2.727   2.206  -5.112  0.00  0.00    +0.081 A 
ATOM      5  S   UNL     1      -1.439   3.119  -5.823  0.00  0.00    -0.081 S 
ENDROOT
BRANCH   2   6
ATOM      6  C   UNL     1      -0.043   1.539  -2.488  0.00  0.00    -0.002 C 
ATOM      7  C   UNL     1      -0.759   2.033  -1.229  0.00  0.00    +0.015 C 
ATOM      8  C   UNL     1      -0.019   1.526   0.010  0.00  0.00    -0.010 C 
ATOM      9  C   UNL     1       1.417   2.055  -0.000  0.00  0.00    +0.007 C 
ATOM     10  C   UNL     1       2.133   1.562  -1.259  0.00  0.00    -0.010 C 
ATOM     11  C   UNL     1       1.393   2.069  -2.499  0.00  0.00    +0.015 C 
ATOM     12  C   UNL     1       2.154   0.032  -1.268  0.00  0.00    +0.007 C 
ATOM     13  C   UNL     1       0.718  -0.497  -1.257  0.00  0.00    -0.010 C 
ATOM     14  C   UNL     1       0.002  -0.004   0.002  0.00  0.00    +0.007 C 
ATOM     15  C   UNL     1      -0.022   0.009  -2.496  0.00  0.00    +0.015 C 
ENDBRANCH   2   6
BRANCH   4  16
ATOM     16  N   UNL     1      -4.017   2.030  -5.582  0.00  0.00    -0.352 N 
ATOM     17  H   UNL     1      -4.331   2.510  -6.520  0.00  0.00    +0.143 HD
ATOM     18  H   UNL     1      -4.728   1.410  -5.016  0.00  0.00    +0.143 HD
ENDBRANCH   4  16
BRANCH   3  19
ATOM     19  C   UNL     1      -2.886   0.849  -3.061  0.00  0.00    +0.102 C 
ATOM     20  N   UNL     1      -3.470   0.184  -2.349  0.00  0.00    -0.191 NA
ENDBRANCH   3  19
TORSDOF 3
