REMARK  Name = ZINC35565252
REMARK  10 active torsions:
REMARK  status: ('A' for Active; 'I' for Inactive)
REMARK    1  A    between atoms: C_1  and  O_2
REMARK    2  A    between atoms: O_2  and  C_3
REMARK    3  A    between atoms: C_13  and  O_36
REMARK    4  A    between atoms: C_16  and  O_17
REMARK    5  A    between atoms: C_18  and  O_28
REMARK    6  A    between atoms: C_21  and  C_23
REMARK    7  A    between atoms: C_21  and  O_27
REMARK    8  A    between atoms: C_23  and  C_25
REMARK    9  A    between atoms: C_25  and  O_26
REMARK   10  A    between atoms: O_28  and  C_29
REMARK                            x       y       z     vdW  Elec       q    Type
REMARK                         _______ _______ _______ _____ _____    ______ ____
ROOT
ATOM      1  C   UNL     1      -0.625  -0.542   0.090  0.00  0.00    +0.132 A 
ATOM      2  C   UNL     1      -0.252   0.401  -0.864  0.00  0.00    +0.046 A 
ATOM      3  C   UNL     1       0.336   0.003  -2.046  0.00  0.00    +0.004 A 
ATOM      4  C   UNL     1       0.566  -1.339  -2.303  0.00  0.00    +0.012 A 
ATOM      5  C   UNL     1       0.203  -2.298  -1.365  0.00  0.00    +0.037 A 
ATOM      6  C   UNL     1      -0.393  -1.898  -0.152  0.00  0.00    +0.075 A 
ATOM      7  C   UNL     1      -0.772  -2.916   0.846  0.00  0.00    +0.202 C 
ATOM      8  O   UNL     1      -1.507  -2.627   1.771  0.00  0.00    -0.286 OA
ATOM      9  C   UNL     1      -0.249  -4.289   0.710  0.00  0.00    +0.078 A 
ATOM     10  C   UNL     1       0.352  -4.690  -0.502  0.00  0.00    +0.078 A 
ATOM     11  C   UNL     1       0.841  -5.988  -0.626  0.00  0.00    +0.132 A 
ATOM     12  C   UNL     1       0.743  -6.889   0.444  0.00  0.00    +0.007 A 
ATOM     13  C   UNL     1       0.165  -6.496   1.624  0.00  0.00    +0.030 A 
ATOM     14  C   UNL     1      -0.337  -5.195   1.762  0.00  0.00    +0.134 A 
ATOM     15  C   UNL     1       0.047  -7.414   2.814  0.00  0.00    +0.158 C 
ATOM     16  C   UNL     1       0.226  -8.870   2.392  0.00  0.00    +0.079 C 
ATOM     17  C   UNL     1       1.515  -8.979   1.569  0.00  0.00    +0.133 C 
ATOM     18  C   UNL     1       1.290  -8.277   0.231  0.00  0.00    +0.082 C 
ATOM     19  C   UNL     1       0.442  -3.734  -1.624  0.00  0.00    +0.198 C 
ATOM     20  O   UNL     1       0.724  -4.119  -2.742  0.00  0.00    -0.286 OA
ENDROOT
BRANCH   1  22
ATOM     21  C   UNL     1      -1.408   1.256   1.428  0.00  0.00    +0.277 C 
ATOM     22  O   UNL     1      -1.203  -0.147   1.251  0.00  0.00    -0.494 OA
ENDBRANCH   1  22
BRANCH  14  23
ATOM     23  O   UNL     1      -0.914  -4.816   2.930  0.00  0.00    -0.506 OA
ATOM     24  H   UNL     1      -1.877  -4.899   2.939  0.00  0.00    +0.292 HD
ENDBRANCH  14  23
BRANCH  17  25
ATOM     25  C   UNL     1       2.647  -8.313   2.307  0.00  0.00    +0.190 C 
ATOM     26  O   UNL     1       2.943  -7.170   2.055  0.00  0.00    -0.292 OA
BRANCH  25  27
ATOM     27  C   UNL     1       3.411  -9.074   3.360  0.00  0.00    +0.233 C 
BRANCH  27  28
ATOM     28  O   UNL     1       4.427  -8.235   3.912  0.00  0.00    -0.387 OA
ATOM     29  H   UNL     1       4.959  -8.660   4.597  0.00  0.00    +0.210 HD
ENDBRANCH  27  28
ENDBRANCH  25  27
ENDBRANCH  17  25
BRANCH  17  30
ATOM     30  O   UNL     1       1.828 -10.355   1.344  0.00  0.00    -0.381 OA
ATOM     31  H   UNL     1       2.634 -10.495   0.828  0.00  0.00    +0.211 HD
ENDBRANCH  17  30
BRANCH  11  32
ATOM     32  O   UNL     1       1.416  -6.383  -1.789  0.00  0.00    -0.506 OA
ATOM     33  H   UNL     1       2.370  -6.229  -1.828  0.00  0.00    +0.292 HD
ENDBRANCH  11  32
BRANCH  15  34
ATOM     34  O   UNL     1      -1.243  -7.251   3.408  0.00  0.00    -0.343 OA
BRANCH  34  35
ATOM     35  C   UNL     1      -1.255  -7.419   4.827  0.00  0.00    +0.251 C 
ATOM     36  C   UNL     1      -2.602  -6.952   5.384  0.00  0.00    +0.061 C 
ATOM     37  C   UNL     1      -2.630  -7.191   6.897  0.00  0.00    +0.007 C 
ATOM     38  C   UNL     1      -2.369  -8.675   7.174  0.00  0.00    +0.028 C 
ATOM     39  C   UNL     1      -1.031  -9.075   6.547  0.00  0.00    +0.163 C 
ATOM     40  O   UNL     1      -1.061  -8.799   5.145  0.00  0.00    -0.351 OA
ENDBRANCH  34  35
ENDBRANCH  15  34
TORSDOF 9
