REMARK  Name = ZINC42858712
REMARK  8 active torsions:
REMARK  status: ('A' for Active; 'I' for Inactive)
REMARK    1  A    between atoms: C_1  and  C_2
REMARK    2  A    between atoms: C_8  and  C_10
REMARK    3  A    between atoms: C_10  and  N_11
REMARK    4  A    between atoms: N_11  and  C_12
REMARK    5  A    between atoms: C_12  and  C_14
REMARK    6  A    between atoms: C_12  and  C_15
REMARK    7  A    between atoms: C_19  and  S_21
REMARK    8  A    between atoms: S_21  and  N_24
REMARK                            x       y       z     vdW  Elec       q    Type
REMARK                         _______ _______ _______ _____ _____    ______ ____
ROOT
ATOM      1  C   UNL     1       4.229   0.141   2.467  0.00  0.00    -0.044 C 
ATOM      2  C   UNL     1       4.209   1.671   2.475  0.00  0.00    -0.009 C 
ENDROOT
BRANCH   1   3
ATOM      3  C   UNL     1       4.958  -0.358   3.688  0.00  0.00    -0.060 A 
ATOM      4  C   UNL     1       4.308  -0.414   4.907  0.00  0.00    +0.002 A 
ATOM      5  C   UNL     1       4.977  -0.872   6.027  0.00  0.00    +0.002 A 
ATOM      6  C   UNL     1       6.295  -1.275   5.928  0.00  0.00    +0.028 A 
ATOM      7  C   UNL     1       6.945  -1.220   4.709  0.00  0.00    +0.105 A 
ATOM      8  C   UNL     1       6.275  -0.766   3.588  0.00  0.00    +0.030 A 
BRANCH   7   9
ATOM      9  S   UNL     1       8.626  -1.734   4.583  0.00  0.00    +0.056 S 
ATOM     10  O   UNL     1       9.169  -1.072   3.449  0.00  0.00    -0.153 OA
ATOM     11  O   UNL     1       9.188  -1.604   5.882  0.00  0.00    -0.153 OA
BRANCH   9  12
ATOM     12  N   UNL     1       8.619  -3.352   4.229  0.00  0.00    -0.204 NA
ATOM     13  H   UNL     1       7.777  -3.823   4.133  0.00  0.00    +0.144 HD
ATOM     14  H   UNL     1       9.457  -3.828   4.119  0.00  0.00    +0.144 HD
ENDBRANCH   9  12
ENDBRANCH   7   9
ENDBRANCH   1   3
BRANCH   1  15
ATOM     15  N   UNL     1       2.851  -0.368   2.478  0.00  0.00    +0.384 N 
ATOM     16  H   UNL     1       2.354   0.024   3.264  0.00  0.00    -0.085 HD
ATOM     17  H   UNL     1       2.865  -1.374   2.555  0.00  0.00    -0.085 HD
BRANCH  15  18
ATOM     18  C   UNL     1       2.178   0.019   1.231  0.00  0.00    -0.078 C 
BRANCH  18  25
ATOM     19  C   UNL     1      -0.019   1.526   0.010  0.00  0.00    +0.008 C 
ATOM     20  C   UNL     1       0.002  -0.004   0.002  0.00  0.00    -0.013 C 
ATOM     21  C   UNL     1      -1.433  -0.534   0.013  0.00  0.00    +0.003 C 
ATOM     22  C   UNL     1      -1.413  -2.063   0.004  0.00  0.00    +0.000 C 
ATOM     23  C   UNL     1      -0.673  -2.570   1.244  0.00  0.00    +0.000 C 
ATOM     24  C   UNL     1       0.763  -2.041   1.233  0.00  0.00    +0.002 C 
ATOM     25  C   UNL     1       0.742  -0.511   1.242  0.00  0.00    -0.025 C 
ENDBRANCH  18  25
ENDBRANCH  15  18
ENDBRANCH   1  15
TORSDOF 6
