REMARK  Name = ZINC52938569
REMARK  8 active torsions:
REMARK  status: ('A' for Active; 'I' for Inactive)
REMARK    1  A    between atoms: C_4  and  O_18
REMARK    2  A    between atoms: C_5  and  N_7
REMARK    3  A    between atoms: C_8  and  C_10
REMARK    4  A    between atoms: C_10  and  C_11
REMARK    5  A    between atoms: C_11  and  C_12
REMARK    6  A    between atoms: C_12  and  C_13
REMARK    7  A    between atoms: C_13  and  N_14
REMARK    8  A    between atoms: O_18  and  C_19
REMARK                            x       y       z     vdW  Elec       q    Type
REMARK                         _______ _______ _______ _____ _____    ______ ____
ROOT
ATOM      1  N   UNL     1       1.393  -1.978  -0.076  0.00  0.00    -0.283 N 
ATOM      2  C   UNL     1       0.268  -2.716  -0.151  0.00  0.00    +0.217 C 
ATOM      3  O   UNL     1      -0.806  -2.172  -0.292  0.00  0.00    -0.275 OA
ATOM      4  H   UNL     1       2.259  -2.415  -0.048  0.00  0.00    +0.155 HD
ENDROOT
BRANCH   1   9
ATOM      5  C   UNL     1       0.169   1.418   0.633  0.00  0.00    +0.002 A 
ATOM      6  C   UNL     1       1.152   2.184   0.034  0.00  0.00    +0.004 A 
ATOM      7  C   UNL     1       2.217   1.576  -0.602  0.00  0.00    +0.048 A 
ATOM      8  C   UNL     1       2.303   0.193  -0.641  0.00  0.00    +0.150 A 
ATOM      9  C   UNL     1       1.313  -0.580  -0.039  0.00  0.00    +0.076 A 
ATOM     10  C   UNL     1       0.246   0.038   0.598  0.00  0.00    +0.027 A 
BRANCH   8  11
ATOM     11  O   UNL     1       3.350  -0.407  -1.267  0.00  0.00    -0.453 OA
BRANCH  11  12
ATOM     12  C   UNL     1       3.157  -0.873  -2.529  0.00  0.00    +0.147 A 
ATOM     13  C   UNL     1       1.896  -0.819  -3.105  0.00  0.00    +0.048 A 
ATOM     14  C   UNL     1       1.703  -1.292  -4.388  0.00  0.00    +0.004 A 
ATOM     15  C   UNL     1       2.765  -1.819  -5.100  0.00  0.00    +0.002 A 
ATOM     16  C   UNL     1       4.023  -1.874  -4.530  0.00  0.00    +0.024 A 
ATOM     17  C   UNL     1       4.224  -1.397  -3.248  0.00  0.00    +0.083 A 
ATOM     18 CL   UNL     1       5.805  -1.460  -2.534  0.00  0.00    -0.080 Cl
ENDBRANCH  11  12
ENDBRANCH   8  11
ENDBRANCH   1   9
BRANCH   2  19
ATOM     19  C   UNL     1       0.345  -4.219  -0.060  0.00  0.00    +0.096 C 
BRANCH  19  20
ATOM     20  C   UNL     1      -1.062  -4.809  -0.173  0.00  0.00    +0.011 C 
BRANCH  20  21
ATOM     21  C   UNL     1      -0.984  -6.335  -0.081  0.00  0.00    +0.019 C 
BRANCH  21  22
ATOM     22  C   UNL     1      -2.391  -6.925  -0.193  0.00  0.00    +0.106 C 
BRANCH  22  23
ATOM     23  N   UNL     1      -2.316  -8.385  -0.105  0.00  0.00    -0.300 N 
ATOM     24  C   UNL     1      -3.441  -9.124  -0.180  0.00  0.00    +0.297 C 
ATOM     25  O   UNL     1      -4.518  -8.577  -0.321  0.00  0.00    -0.253 OA
ATOM     26  N   UNL     1      -3.372 -10.467  -0.099  0.00  0.00    -0.313 N 
ATOM     27  H   UNL     1      -1.456  -8.821   0.008  0.00  0.00    +0.150 HD
ATOM     28  H   UNL     1      -2.513 -10.903   0.014  0.00  0.00    +0.146 HD
ATOM     29  H   UNL     1      -4.182 -10.998  -0.153  0.00  0.00    +0.146 HD
ENDBRANCH  22  23
ENDBRANCH  21  22
ENDBRANCH  20  21
ENDBRANCH  19  20
ENDBRANCH   2  19
TORSDOF 8
