REMARK  Name = ZINC12317470
REMARK  10 active torsions:
REMARK  status: ('A' for Active; 'I' for Inactive)
REMARK    1  A    between atoms: C_1  and  C_2
REMARK    2  A    between atoms: C_2  and  C_3
REMARK    3  A    between atoms: C_6  and  C_10
REMARK    4  A    between atoms: C_7  and  C_9
REMARK    5  A    between atoms: C_10  and  N_62
REMARK    6  A    between atoms: C_23  and  C_25
REMARK    7  A    between atoms: C_29  and  O_33
REMARK    8  A    between atoms: C_30  and  O_31
REMARK    9  A    between atoms: O_31  and  C_32
REMARK   10  A    between atoms: O_33  and  C_34
REMARK                            x       y       z     vdW  Elec       q    Type
REMARK                         _______ _______ _______ _____ _____    ______ ____
ROOT
ATOM      1  C   UNL     1      -0.650  -0.992   4.947  0.00  0.00    -0.072 C 
ATOM      2  C   UNL     1      -1.410   0.241   5.453  0.00  0.00    +0.019 C 
ATOM      3  C   UNL     1      -1.521   1.222   4.313  0.00  0.00    -0.022 A 
ATOM      4  C   UNL     1      -1.861   2.627   4.341  0.00  0.00    +0.003 A 
ATOM      5  C   UNL     1      -2.187   3.506   5.378  0.00  0.00    +0.010 A 
ATOM      6  C   UNL     1      -2.461   4.805   5.029  0.00  0.00    +0.001 A 
ATOM      7  C   UNL     1      -2.419   5.238   3.714  0.00  0.00    +0.002 A 
ATOM      8  C   UNL     1      -2.099   4.391   2.667  0.00  0.00    +0.026 A 
ATOM      9  C   UNL     1      -1.817   3.065   2.992  0.00  0.00    +0.047 A 
ATOM     10  N   UNL     1      -1.474   1.989   2.224  0.00  0.00    -0.359 N 
ATOM     11  H   UNL     1      -1.369   2.002   1.260  0.00  0.00    +0.166 HD
ATOM     12  C   UNL     1      -1.296   0.892   3.017  0.00  0.00    +0.011 A 
ATOM     13  C   UNL     1      -0.921  -0.505   2.582  0.00  0.00    +0.015 C 
ATOM     14  N   UNL     1      -1.266  -1.441   3.678  0.00  0.00    +0.392 N 
ATOM     15  H   UNL     1      -2.287  -1.458   3.791  0.00  0.00    -0.080 HD
ENDROOT
BRANCH  13  16
ATOM     16  C   UNL     1      -1.707  -0.881   1.352  0.00  0.00    -0.010 A 
ATOM     17  C   UNL     1      -3.028  -1.272   1.470  0.00  0.00    +0.006 A 
ATOM     18  C   UNL     1      -3.751  -1.623   0.345  0.00  0.00    +0.004 A 
ATOM     19  C   UNL     1      -3.157  -1.580  -0.903  0.00  0.00    +0.049 A 
ATOM     20  C   UNL     1      -1.836  -1.183  -1.028  0.00  0.00    +0.162 A 
ATOM     21  C   UNL     1      -1.108  -0.830   0.104  0.00  0.00    +0.163 A 
BRANCH  21  22
ATOM     22  O   UNL     1       0.189  -0.440  -0.013  0.00  0.00    -0.491 OA
ATOM     23  C   UNL     1       0.428   0.931  -0.338  0.00  0.00    +0.277 C 
ENDBRANCH  21  22
BRANCH  20  24
ATOM     24  O   UNL     1      -1.251  -1.139  -2.255  0.00  0.00    -0.491 OA
ATOM     25  C   UNL     1      -2.058  -1.516  -3.373  0.00  0.00    +0.277 C 
ENDBRANCH  20  24
ENDBRANCH  13  16
BRANCH  14  26
ATOM     26  C   UNL     1      -0.798  -2.802   3.344  0.00  0.00    -0.021 C 
BRANCH  26  30
ATOM     27  C   UNL     1      -0.423  -4.821   6.368  0.00  0.00    +0.107 A 
ATOM     28  N   UNL     1       0.111  -4.038   5.406  0.00  0.00    -0.347 N 
ATOM     29  H   UNL     1       1.071  -3.773   5.321  0.00  0.00    +0.167 HD
ATOM     30  C   UNL     1      -0.909  -3.675   4.567  0.00  0.00    +0.022 A 
ATOM     31  C   UNL     1      -2.030  -4.244   5.049  0.00  0.00    +0.057 A 
ATOM     32  N   UNL     1      -1.703  -4.942   6.147  0.00  0.00    -0.238 NA
ATOM     33  C   UNL     1      -3.411  -4.120   4.457  0.00  0.00    +0.067 C 
BRANCH  27  35
ATOM     34  C   UNL     1      -0.316  -5.049   8.835  0.00  0.00    +0.012 C 
ATOM     35  C   UNL     1       0.334  -5.450   7.509  0.00  0.00    +0.071 C 
ENDBRANCH  27  35
ENDBRANCH  26  30
ENDBRANCH  14  26
TORSDOF 6
