REMARK  Name = ZINC08430796
REMARK  8 active torsions:
REMARK  status: ('A' for Active; 'I' for Inactive)
REMARK    1  A    between atoms: C_7  and  C_20
REMARK    2  A    between atoms: N_9  and  C_10
REMARK    3  A    between atoms: C_10  and  C_11
REMARK    4  A    between atoms: C_11  and  C_13
REMARK    5  A    between atoms: C_11  and  O_19
REMARK    6  A    between atoms: C_13  and  N_57
REMARK    7  A    between atoms: C_21  and  C_22
REMARK    8  A    between atoms: C_22  and  C_24
REMARK                            x       y       z     vdW  Elec       q    Type
REMARK                         _______ _______ _______ _____ _____    ______ ____
ROOT
ATOM      1  C   UNL     1       1.220   3.107  -0.037  0.00  0.00    +0.001 A 
ATOM      2  C   UNL     1       1.204   1.720  -0.049  0.00  0.00    +0.002 A 
ATOM      3  C   UNL     1       0.011   1.031  -0.028  0.00  0.00    +0.026 A 
ATOM      4  C   UNL     1      -1.193   1.728  -0.001  0.00  0.00    +0.050 A 
ATOM      5  C   UNL     1      -1.175   3.131   0.017  0.00  0.00    +0.007 A 
ATOM      6  C   UNL     1       0.038   3.815  -0.005  0.00  0.00    +0.010 A 
ATOM      7  C   UNL     1      -2.588   3.555   0.052  0.00  0.00    +0.000 A 
ATOM      8  C   UNL     1      -3.338   2.399   0.043  0.00  0.00    +0.094 A 
ATOM      9  N   UNL     1      -2.513   1.325   0.019  0.00  0.00    -0.344 N 
ENDROOT
BRANCH   7  10
ATOM     10  C   UNL     1      -3.092   4.928   0.075  0.00  0.00    +0.014 C 
ATOM     11  C   UNL     1      -4.429   5.160   0.107  0.00  0.00    +0.052 C 
BRANCH  11  12
ATOM     12  C   UNL     1      -4.915   6.485   0.130  0.00  0.00    +0.186 C 
ATOM     13  O   UNL     1      -4.135   7.421   0.120  0.00  0.00    -0.287 OA
BRANCH  12  14
ATOM     14  C   UNL     1      -6.373   6.738   0.164  0.00  0.00    +0.022 A 
ATOM     15  C   UNL     1      -7.269   5.668   0.169  0.00  0.00    +0.013 A 
ATOM     16  C   UNL     1      -8.627   5.910   0.208  0.00  0.00    +0.016 A 
ATOM     17  C   UNL     1      -9.101   7.211   0.230  0.00  0.00    +0.018 A 
ATOM     18  C   UNL     1      -8.216   8.276   0.219  0.00  0.00    +0.016 A 
ATOM     19  C   UNL     1      -6.857   8.047   0.186  0.00  0.00    +0.013 A 
ATOM     20 BR   UNL     1     -10.963   7.534   0.275  0.00  0.00    -0.050 Br
ENDBRANCH  12  14
ENDBRANCH  11  12
ENDBRANCH   7  10
BRANCH   9  21
ATOM     21  C   UNL     1      -2.959  -0.070   0.014  0.00  0.00    +0.151 C 
BRANCH  21  22
ATOM     22  C   UNL     1      -2.970  -0.608   1.447  0.00  0.00    +0.118 C 
BRANCH  22  23
ATOM     23  O   UNL     1      -1.634  -0.640   1.953  0.00  0.00    -0.392 OA
ATOM     24  H   UNL     1      -1.033  -1.200   1.442  0.00  0.00    +0.210 HD
ENDBRANCH  22  23
BRANCH  22  25
ATOM     25  C   UNL     1      -3.553  -2.022   1.457  0.00  0.00    -0.045 C 
BRANCH  25  31
ATOM     26  C   UNL     1      -3.665  -3.999   2.849  0.00  0.00    -0.079 C 
ATOM     27  C   UNL     1      -3.538  -4.504   4.289  0.00  0.00    -0.019 C 
ATOM     28  C   UNL     1      -4.656  -3.895   5.139  0.00  0.00    -0.004 C 
ATOM     29  C   UNL     1      -4.568  -2.369   5.066  0.00  0.00    -0.019 C 
ATOM     30  C   UNL     1      -4.666  -1.925   3.605  0.00  0.00    -0.079 C 
ATOM     31  N   UNL     1      -3.548  -2.525   2.846  0.00  0.00    +0.381 N 
ATOM     32  H   UNL     1      -2.662  -2.260   3.293  0.00  0.00    -0.082 HD
ENDBRANCH  25  31
ENDBRANCH  22  25
ENDBRANCH  21  22
ENDBRANCH   9  21
TORSDOF 8
