REMARK  Name = ZINC09056967
REMARK  5 active torsions:
REMARK  status: ('A' for Active; 'I' for Inactive)
REMARK    1  A    between atoms: C_14  and  N_15
REMARK    2  A    between atoms: N_15  and  N_16
REMARK    3  A    between atoms: N_16  and  C_17
REMARK    4  A    between atoms: C_20  and  N_23
REMARK    5  A    between atoms: C_26  and  C_28
REMARK                            x       y       z     vdW  Elec       q    Type
REMARK                         _______ _______ _______ _____ _____    ______ ____
ROOT
ATOM      1  C   UNL     1      -0.017   1.366   0.010  0.00  0.00    +0.002 A 
ATOM      2  C   UNL     1       1.157   2.107   0.002  0.00  0.00    +0.001 A 
ATOM      3  C   UNL     1       2.373   1.450  -0.013  0.00  0.00    +0.017 A 
ATOM      4  C   UNL     1       2.401   0.078  -0.021  0.00  0.00    +0.041 A 
ATOM      5  C   UNL     1       1.228  -0.710  -0.013  0.00  0.00    +0.080 A 
ATOM      6  C   UNL     1       0.002  -0.004   0.002  0.00  0.00    +0.029 A 
ATOM      7  N   UNL     1       1.420  -2.046  -0.023  0.00  0.00    -0.223 NA
ATOM      8  C   UNL     1       2.616  -2.587  -0.038  0.00  0.00    +0.189 A 
ATOM      9  S   UNL     1       3.683  -1.153  -0.040  0.00  0.00    -0.050 S 
ATOM     10  N   UNL     1       2.963  -3.931  -0.049  0.00  0.00    -0.131 N 
ATOM     11  C   UNL     1       4.227  -4.402  -0.058  0.00  0.00    +0.275 C 
ATOM     12  O   UNL     1       5.254  -3.745  -0.059  0.00  0.00    -0.268 OA
ATOM     13  C   UNL     1       4.114  -5.865  -0.067  0.00  0.00    +0.085 C 
ATOM     14  C   UNL     1       5.145  -6.790  -0.078  0.00  0.00    +0.103 C 
ATOM     15  C   UNL     1       2.669  -6.135  -0.061  0.00  0.00    +0.176 C 
ATOM     16  N   UNL     1       2.057  -4.990  -0.045  0.00  0.00    -0.165 NA
ENDROOT
BRANCH  15  17
ATOM     17  C   UNL     1       2.016  -7.493  -0.067  0.00  0.00    +0.436 C 
ATOM     18  F   UNL     1       0.625  -7.343  -0.059  0.00  0.00    -0.164 F 
ATOM     19  F   UNL     1       2.403  -8.192  -1.216  0.00  0.00    -0.164 F 
ATOM     20  F   UNL     1       2.415  -8.207   1.069  0.00  0.00    -0.164 F 
ENDBRANCH  15  17
BRANCH  14  21
ATOM     21  N   UNL     1       4.866  -8.110  -0.085  0.00  0.00    -0.273 N 
ATOM     22  H   UNL     1       3.944  -8.411  -0.082  0.00  0.00    +0.169 HD
BRANCH  21  23
ATOM     23  N   UNL     1       5.909  -9.045  -0.095  0.00  0.00    -0.267 N 
ATOM     24  H   UNL     1       6.831  -8.744  -0.098  0.00  0.00    +0.170 HD
BRANCH  23  25
ATOM     25  C   UNL     1       5.620 -10.412  -0.102  0.00  0.00    +0.044 A 
ATOM     26  C   UNL     1       4.301 -10.845  -0.105  0.00  0.00    +0.026 A 
ATOM     27  C   UNL     1       4.019 -12.197  -0.112  0.00  0.00    +0.034 A 
ATOM     28  C   UNL     1       5.049 -13.119  -0.117  0.00  0.00    +0.126 A 
ATOM     29  C   UNL     1       6.364 -12.692  -0.114  0.00  0.00    +0.034 A 
ATOM     30  C   UNL     1       6.653 -11.341  -0.113  0.00  0.00    +0.026 A 
BRANCH  28  31
ATOM     31  N   UNL     1       4.744 -14.568  -0.124  0.00  0.00    +0.056 N 
ATOM     32  O   UNL     1       3.594 -14.943  -0.126  0.00  0.00    -0.126 OA
ATOM     33  O   UNL     1       5.643 -15.375  -0.129  0.00  0.00    -0.126 OA
ENDBRANCH  28  31
ENDBRANCH  23  25
ENDBRANCH  21  23
ENDBRANCH  14  21
TORSDOF 5
