REMARK  Name = ZINC66701606
REMARK  7 active torsions:
REMARK  status: ('A' for Active; 'I' for Inactive)
REMARK    1  A    between atoms: C_1  and  C_2
REMARK    2  A    between atoms: C_2  and  N_3
REMARK    3  A    between atoms: C_9  and  C_11
REMARK    4  A    between atoms: C_11  and  C_12
REMARK    5  A    between atoms: N_20  and  C_21
REMARK    6  A    between atoms: C_21  and  C_22
REMARK    7  A    between atoms: C_23  and  C_27
REMARK                            x       y       z     vdW  Elec       q    Type
REMARK                         _______ _______ _______ _____ _____    ______ ____
ROOT
ATOM      1  C   UNL     1      -5.221  -5.025   2.384  0.00  0.00    +0.001 C 
ATOM      2  C   UNL     1      -4.594  -4.937   3.778  0.00  0.00    +0.023 C 
ATOM      3  C   UNL     1      -5.510  -5.633   4.790  0.00  0.00    +0.109 C 
ATOM      4  N   UNL     1      -5.768  -7.004   4.330  0.00  0.00    -0.286 N 
ATOM      5  C   UNL     1      -6.287  -7.207   2.971  0.00  0.00    +0.109 C 
ATOM      6  C   UNL     1      -5.362  -6.494   1.979  0.00  0.00    +0.023 C 
ATOM      7  C   UNL     1      -5.533  -8.055   5.140  0.00  0.00    +0.302 C 
ATOM      8  O   UNL     1      -5.015  -7.882   6.226  0.00  0.00    -0.253 OA
ATOM      9  N   UNL     1      -5.872  -9.299   4.746  0.00  0.00    -0.295 N 
ATOM     10  H   UNL     1      -6.218  -9.446   3.852  0.00  0.00    +0.151 HD
ENDROOT
BRANCH   1  11
ATOM     11  C   UNL     1      -4.327  -4.302   1.376  0.00  0.00    +0.099 C 
BRANCH  11  18
ATOM     12  N   UNL     1      -1.376  -0.500   0.031  0.00  0.00    +0.382 N 
ATOM     13  C   UNL     1      -2.033  -0.119   1.288  0.00  0.00    -0.060 C 
ATOM     14  C   UNL     1      -3.502  -0.552   1.247  0.00  0.00    +0.089 C 
ATOM     15  N   UNL     1      -3.556  -1.991   0.945  0.00  0.00    -0.305 N 
ATOM     16  C   UNL     1      -2.789  -2.486  -0.208  0.00  0.00    +0.089 C 
ATOM     17  C   UNL     1      -1.353  -1.962  -0.098  0.00  0.00    -0.060 C 
ATOM     18  C   UNL     1      -4.287  -2.831   1.704  0.00  0.00    +0.216 C 
ATOM     19  O   UNL     1      -4.912  -2.404   2.652  0.00  0.00    -0.276 OA
ATOM     20  H   UNL     1      -1.884  -0.102  -0.745  0.00  0.00    -0.082 HD
BRANCH  12  22
ATOM     21  C   UNL     1      -0.023   1.542   0.035  0.00  0.00    -0.017 C 
ATOM     22  C   UNL     1       0.001   0.012   0.026  0.00  0.00    -0.082 C 
ENDBRANCH  12  22
ENDBRANCH  11  18
ENDBRANCH   1  11
BRANCH   9  23
ATOM     23  C   UNL     1      -5.718 -10.427   5.667  0.00  0.00    +0.148 C 
BRANCH  23  24
ATOM     24  C   UNL     1      -6.164 -11.696   4.987  0.00  0.00    +0.010 A 
ATOM     25  C   UNL     1      -5.436 -12.572   4.253  0.00  0.00    -0.039 A 
ATOM     26  C   UNL     1      -6.063 -13.682   3.719  0.00  0.00    +0.011 A 
ATOM     27  C   UNL     1      -7.388 -13.862   3.946  0.00  0.00    +0.046 A 
ATOM     28  S   UNL     1      -7.787 -12.438   4.947  0.00  0.00    -0.100 S 
ATOM     29  C   UNL     1      -3.965 -12.339   4.021  0.00  0.00    +0.044 C 
ENDBRANCH  23  24
ENDBRANCH   9  23
TORSDOF 5
