REMARK  Name = ZINC21232075
REMARK  8 active torsions:
REMARK  status: ('A' for Active; 'I' for Inactive)
REMARK    1  A    between atoms: C_1  and  C_2
REMARK    2  A    between atoms: C_2  and  C_3
REMARK    3  A    between atoms: C_2  and  C_4
REMARK    4  A    between atoms: C_4  and  C_6
REMARK    5  A    between atoms: C_4  and  S_12
REMARK    6  A    between atoms: S_12  and  C_13
REMARK    7  A    between atoms: N_23  and  C_24
REMARK    8  A    between atoms: C_24  and  C_25
REMARK                            x       y       z     vdW  Elec       q    Type
REMARK                         _______ _______ _______ _____ _____    ______ ____
ROOT
ATOM      1  C   UNL     1      -2.469  -0.387   2.043  0.00  0.00    +0.173 A 
ATOM      2  N   UNL     1      -2.853  -0.592   3.279  0.00  0.00    -0.223 NA
ATOM      3  C   UNL     1      -2.391  -1.642   3.998  0.00  0.00    +0.080 A 
ATOM      4  C   UNL     1      -2.799  -1.863   5.316  0.00  0.00    +0.048 A 
ATOM      5  C   UNL     1      -2.302  -2.945   6.008  0.00  0.00    +0.043 A 
ATOM      6  C   UNL     1      -1.400  -3.819   5.411  0.00  0.00    +0.021 A 
ATOM      7  C   UNL     1      -0.987  -3.624   4.123  0.00  0.00    +0.017 A 
ATOM      8  C   UNL     1      -1.474  -2.537   3.399  0.00  0.00    +0.065 A 
ATOM      9  C   UNL     1      -1.065  -2.284   2.011  0.00  0.00    +0.263 A 
ATOM     10  O   UNL     1      -0.282  -3.021   1.440  0.00  0.00    -0.267 OA
ATOM     11  N   UNL     1      -1.587  -1.201   1.391  0.00  0.00    -0.280 N 
ATOM     12 CL   UNL     1      -2.807  -3.221   7.646  0.00  0.00    -0.083 Cl
ENDROOT
BRANCH   1  13
ATOM     13  S   UNL     1      -3.122   1.005   1.181  0.00  0.00    -0.075 S 
BRANCH  13  14
ATOM     14  C   UNL     1      -4.189   1.699   2.468  0.00  0.00    +0.143 C 
BRANCH  14  15
ATOM     15  C   UNL     1      -4.965   2.862   1.904  0.00  0.00    +0.234 C 
ATOM     16  O   UNL     1      -4.575   3.421   0.901  0.00  0.00    -0.274 OA
ATOM     17  N   UNL     1      -6.091   3.280   2.515  0.00  0.00    -0.239 N 
ATOM     18  C   UNL     1      -6.784   4.320   2.010  0.00  0.00    +0.303 C 
ATOM     19  O   UNL     1      -6.394   4.881   1.005  0.00  0.00    -0.253 OA
ATOM     20  N   UNL     1      -7.911   4.738   2.621  0.00  0.00    -0.313 N 
ATOM     21  H   UNL     1      -6.444   2.773   3.425  0.00  0.00    +0.159 HD
ATOM     22  H   UNL     1      -8.477   5.587   2.209  0.00  0.00    +0.146 HD
ATOM     23  H   UNL     1      -8.264   4.231   3.531  0.00  0.00    +0.146 HD
ENDBRANCH  14  15
BRANCH  14  25
ATOM     24  C   UNL     1      -2.444   3.338   3.181  0.00  0.00    +0.009 C 
ATOM     25  C   UNL     1      -3.330   2.179   3.640  0.00  0.00    +0.005 C 
ATOM     26  C   UNL     1      -4.238   2.650   4.778  0.00  0.00    +0.009 C 
ENDBRANCH  14  25
ENDBRANCH  13  14
ENDBRANCH   1  13
BRANCH  11  27
ATOM     27  C   UNL     1      -1.208  -0.902   0.008  0.00  0.00    +0.201 C 
BRANCH  27  28
ATOM     28  C   UNL     1       0.002  -0.004   0.002  0.00  0.00    +0.125 A 
ATOM     29  C   UNL     1       1.284  -0.412  -0.012  0.00  0.00    +0.046 A 
ATOM     30  C   UNL     1       2.084   0.754  -0.014  0.00  0.00    +0.041 A 
ATOM     31  C   UNL     1       1.244   1.804  -0.000  0.00  0.00    +0.195 A 
ATOM     32  O   UNL     1      -0.016   1.339   0.009  0.00  0.00    -0.466 OA
ENDBRANCH  27  28
ENDBRANCH  11  27
TORSDOF 6
