REMARK  Name = ZINC38049948
REMARK  4 active torsions:
REMARK  status: ('A' for Active; 'I' for Inactive)
REMARK    1  A    between atoms: C_4  and  S_8
REMARK    2  A    between atoms: S_8  and  N_11
REMARK    3  A    between atoms: N_11  and  C_12
REMARK    4  A    between atoms: C_18  and  N_20
REMARK                            x       y       z     vdW  Elec       q    Type
REMARK                         _______ _______ _______ _____ _____    ______ ____
ROOT
ATOM      1  N   UNL     1       4.628  -0.351  -1.465  0.00  0.00    -0.188 NA
ATOM      2  H   UNL     1       4.702  -0.977  -2.203  0.00  0.00    +0.148 HD
ENDROOT
BRANCH   1   3
ATOM      3  C   UNL     1       5.061   1.038  -1.637  0.00  0.00    +0.062 C 
ATOM      4  C   UNL     1       6.573   1.130  -1.418  0.00  0.00    +0.019 C 
ATOM      5  C   UNL     1       7.026   2.581  -1.597  0.00  0.00    +0.001 C 
ATOM      6  C   UNL     1       6.685   3.051  -3.013  0.00  0.00    -0.001 C 
ATOM      7  C   UNL     1       5.173   2.958  -3.231  0.00  0.00    -0.015 C 
ATOM      8  C   UNL     1       4.721   1.507  -3.052  0.00  0.00    -0.056 C 
BRANCH   8   9
ATOM      9  N   UNL     1       3.269   1.418  -3.261  0.00  0.00    +0.381 N 
ATOM     10  H   UNL     1       2.796   2.004  -2.590  0.00  0.00    -0.090 HD
ATOM     11  H   UNL     1       3.045   1.728  -4.195  0.00  0.00    -0.090 HD
ATOM     12  H   UNL     1       2.970   0.462  -3.144  0.00  0.00    -0.090 HD
ENDBRANCH   8   9
ENDBRANCH   1   3
BRANCH   1  13
ATOM     13  S   UNL     1       4.011  -0.853  -0.013  0.00  0.00    +0.060 S 
ATOM     14  O   UNL     1       3.706  -2.234  -0.156  0.00  0.00    -0.153 OA
ATOM     15  O   UNL     1       3.034   0.107   0.367  0.00  0.00    -0.153 OA
BRANCH  13  19
ATOM     16  C   UNL     1       7.354  -0.574   3.028  0.00  0.00    +0.021 A 
ATOM     17  C   UNL     1       7.450  -1.466   1.976  0.00  0.00    +0.023 A 
ATOM     18  C   UNL     1       6.429  -1.551   1.047  0.00  0.00    +0.067 A 
ATOM     19  C   UNL     1       5.311  -0.744   1.171  0.00  0.00    +0.125 A 
ATOM     20  C   UNL     1       5.216   0.147   2.223  0.00  0.00    +0.050 A 
ATOM     21  C   UNL     1       6.237   0.233   3.152  0.00  0.00    +0.043 A 
ATOM     22 CL   UNL     1       6.117   1.352   4.474  0.00  0.00    -0.083 Cl
ATOM     23 CL   UNL     1       6.549  -2.670  -0.274  0.00  0.00    -0.082 Cl
ENDBRANCH  13  19
ENDBRANCH   1  13
TORSDOF 4
