REMARK  Name = ZINC48546172
REMARK  5 active torsions:
REMARK  status: ('A' for Active; 'I' for Inactive)
REMARK    1  A    between atoms: C_1  and  C_2
REMARK    2  A    between atoms: C_2  and  C_4
REMARK    3  A    between atoms: C_2  and  N_9
REMARK    4  A    between atoms: N_9  and  C_10
REMARK    5  A    between atoms: C_13  and  N_17
REMARK                            x       y       z     vdW  Elec       q    Type
REMARK                         _______ _______ _______ _____ _____    ______ ____
ROOT
ATOM      1  C   UNL     1      -2.075  -0.647  -1.187  0.00  0.00    +0.029 A 
ATOM      2  C   UNL     1      -1.471  -0.308  -2.391  0.00  0.00    +0.025 A 
ATOM      3  C   UNL     1      -2.169  -0.444  -3.575  0.00  0.00    +0.035 A 
ATOM      4  C   UNL     1      -3.468  -0.917  -3.563  0.00  0.00    +0.139 A 
ATOM      5  C   UNL     1      -4.073  -1.256  -2.366  0.00  0.00    +0.045 A 
ATOM      6  C   UNL     1      -3.378  -1.128  -1.179  0.00  0.00    +0.039 A 
ATOM      7  I   UNL     1      -6.042  -1.972  -2.355  0.00  0.00    -0.041 I 
ENDROOT
BRANCH   4   8
ATOM      8  N   UNL     1      -4.213  -1.062  -4.834  0.00  0.00    +0.057 N 
ATOM      9  O   UNL     1      -3.685  -0.766  -5.881  0.00  0.00    -0.126 OA
ATOM     10  O   UNL     1      -5.349  -1.475  -4.825  0.00  0.00    -0.126 OA
ENDBRANCH   4   8
BRANCH   1  11
ATOM     11  N   UNL     1      -1.372  -0.511   0.012  0.00  0.00    -0.334 N 
ATOM     12  H   UNL     1      -1.794  -0.752   0.852  0.00  0.00    +0.147 HD
BRANCH  11  14
ATOM     13  C   UNL     1      -0.019   1.526   0.010  0.00  0.00    +0.036 C 
ATOM     14  C   UNL     1       0.002  -0.004   0.002  0.00  0.00    +0.133 C 
BRANCH  14  15
ATOM     15  C   UNL     1       0.731  -0.503   1.223  0.00  0.00    +0.125 A 
ATOM     16  C   UNL     1       2.009  -0.922   1.260  0.00  0.00    +0.046 A 
ATOM     17  C   UNL     1       2.278  -1.298   2.596  0.00  0.00    +0.041 A 
ATOM     18  C   UNL     1       1.149  -1.087   3.295  0.00  0.00    +0.195 A 
ATOM     19  O   UNL     1       0.217  -0.600   2.460  0.00  0.00    -0.466 OA
ENDBRANCH  14  15
ENDBRANCH  11  14
ENDBRANCH   1  11
TORSDOF 4
