REMARK  Name = ZINC02253098
REMARK  7 active torsions:
REMARK  status: ('A' for Active; 'I' for Inactive)
REMARK    1  A    between atoms: C_4  and  C_7
REMARK    2  A    between atoms: C_7  and  C_8
REMARK    3  A    between atoms: C_8  and  N_9
REMARK    4  A    between atoms: C_10  and  C_12
REMARK    5  A    between atoms: C_12  and  S_13
REMARK    6  A    between atoms: S_13  and  C_14
REMARK    7  A    between atoms: N_30  and  N_31
REMARK                            x       y       z     vdW  Elec       q    Type
REMARK                         _______ _______ _______ _____ _____    ______ ____
ROOT
ATOM      1  C   UNL     1      -7.217  -0.055  -1.848  0.00  0.00    +0.199 A 
ATOM      2  N   UNL     1      -6.302  -0.080  -2.789  0.00  0.00    -0.122 NA
ATOM      3  N   UNL     1      -5.145   0.200  -2.296  0.00  0.00    -0.128 NA
ATOM      4  C   UNL     1      -5.256   0.420  -1.009  0.00  0.00    +0.174 A 
ATOM      5  N   UNL     1      -6.584   0.265  -0.677  0.00  0.00    -0.240 N 
ATOM      6  C   UNL     1      -7.001   0.434   0.615  0.00  0.00    +0.218 A 
ATOM      7  N   UNL     1      -6.156   0.748   1.568  0.00  0.00    -0.207 NA
ATOM      8  C   UNL     1      -4.856   0.920   1.336  0.00  0.00    +0.116 A 
ATOM      9  C   UNL     1      -4.297   0.775   0.059  0.00  0.00    +0.056 A 
ATOM     10  C   UNL     1      -2.856   0.994  -0.039  0.00  0.00    -0.024 A 
ATOM     11  C   UNL     1      -2.205   1.312   1.101  0.00  0.00    -0.004 A 
ATOM     12  S   UNL     1      -3.460   1.337   2.352  0.00  0.00    -0.073 S 
ATOM     13  C   UNL     1      -0.738   1.584   1.267  0.00  0.00    +0.043 C 
ATOM     14  C   UNL     1      -0.013   1.086   0.008  0.00  0.00    +0.005 C 
ATOM     15  C   UNL     1      -0.759   1.596  -1.228  0.00  0.00    +0.005 C 
ATOM     16  C   UNL     1      -2.101   0.874  -1.360  0.00  0.00    +0.037 C 
ATOM     17  N   UNL     1      -8.333   0.274   0.921  0.00  0.00    -0.253 N 
ATOM     18  H   UNL     1      -8.966   0.042   0.224  0.00  0.00    +0.169 HD
ENDROOT
BRANCH  17  19
ATOM     19  N   UNL     1      -8.763   0.440   2.207  0.00  0.00    -0.254 NA
ATOM     20  H   UNL     1      -9.758   0.290   2.277  0.00  0.00    +0.140 HD
ATOM     21  H   UNL     1      -8.261  -0.167   2.838  0.00  0.00    +0.140 HD
ENDBRANCH  17  19
BRANCH   1  22
ATOM     22  S   UNL     1      -8.938  -0.374  -2.054  0.00  0.00    -0.076 S 
BRANCH  22  23
ATOM     23  C   UNL     1      -9.109  -0.730  -3.824  0.00  0.00    +0.173 C 
BRANCH  23  25
ATOM     24  N   UNL     1     -10.921  -1.318  -5.402  0.00  0.00    -0.314 N 
ATOM     25  C   UNL     1     -10.553  -1.024  -4.140  0.00  0.00    +0.223 C 
ATOM     26  O   UNL     1     -11.385  -0.996  -3.257  0.00  0.00    -0.275 OA
ATOM     27  H   UNL     1     -10.256  -1.340  -6.108  0.00  0.00    +0.149 HD
BRANCH  24  28
ATOM     28  C   UNL     1     -12.325  -1.603  -5.709  0.00  0.00    +0.109 C 
BRANCH  28  29
ATOM     29  C   UNL     1     -12.469  -1.904  -7.202  0.00  0.00    +0.054 C 
BRANCH  29  33
ATOM     30  C   UNL     1     -16.562  -2.737  -8.097  0.00  0.00    +0.000 A 
ATOM     31  C   UNL     1     -16.090  -1.440  -8.168  0.00  0.00    +0.000 A 
ATOM     32  C   UNL     1     -14.765  -1.170  -7.878  0.00  0.00    +0.004 A 
ATOM     33  C   UNL     1     -13.913  -2.198  -7.518  0.00  0.00    -0.046 A 
ATOM     34  C   UNL     1     -14.385  -3.495  -7.453  0.00  0.00    +0.004 A 
ATOM     35  C   UNL     1     -15.710  -3.764  -7.737  0.00  0.00    +0.000 A 
ENDBRANCH  29  33
ENDBRANCH  28  29
ENDBRANCH  24  28
ENDBRANCH  23  25
ENDBRANCH  22  23
ENDBRANCH   1  22
TORSDOF 7
