REMARK  Name = ZINC12098796
REMARK  9 active torsions:
REMARK  status: ('A' for Active; 'I' for Inactive)
REMARK    1  A    between atoms: C_1  and  N_70
REMARK    2  A    between atoms: C_2  and  N_70
REMARK    3  A    between atoms: C_3  and  C_4
REMARK    4  A    between atoms: C_3  and  N_70
REMARK    5  A    between atoms: C_4  and  N_5
REMARK    6  A    between atoms: C_9  and  C_12
REMARK    7  A    between atoms: C_9  and  C_26
REMARK    8  A    between atoms: C_12  and  C_13
REMARK    9  A    between atoms: C_20  and  N_72
REMARK                            x       y       z     vdW  Elec       q    Type
REMARK                         _______ _______ _______ _____ _____    ______ ____
ROOT
ATOM      1  N   UNL     1      -1.217   4.892  -1.895  0.00  0.00    -0.243 N 
ATOM      2  C   UNL     1      -2.360   5.159  -1.251  0.00  0.00    +0.223 C 
ATOM      3  O   UNL     1      -3.224   5.916  -1.639  0.00  0.00    -0.275 OA
ATOM      4  C   UNL     1      -2.403   4.367   0.037  0.00  0.00    +0.117 C 
ATOM      5  C   UNL     1      -1.072   3.587   0.027  0.00  0.00    +0.091 C 
ATOM      6  C   UNL     1      -0.417   4.021  -1.267  0.00  0.00    +0.233 C 
ATOM      7  O   UNL     1       0.661   3.640  -1.670  0.00  0.00    -0.274 OA
ENDROOT
BRANCH   5   8
ATOM      8  C   UNL     1      -0.223   3.972   1.210  0.00  0.00    +0.004 A 
ATOM      9  C   UNL     1       0.199   3.005   2.103  0.00  0.00    +0.007 A 
ATOM     10  C   UNL     1       0.983   3.357   3.185  0.00  0.00    +0.000 A 
ATOM     11  C   UNL     1       1.337   4.678   3.383  0.00  0.00    +0.003 A 
ATOM     12  C   UNL     1       0.912   5.648   2.495  0.00  0.00    +0.038 A 
ATOM     13  C   UNL     1       0.131   5.296   1.407  0.00  0.00    +0.128 A 
ATOM     14  F   UNL     1      -0.284   6.243   0.538  0.00  0.00    -0.205 F 
ENDBRANCH   5   8
BRANCH   1  15
ATOM     15  C   UNL     1      -0.870   5.502  -3.181  0.00  0.00    +0.098 C 
BRANCH  15  16
ATOM     16  C   UNL     1      -0.106   6.805  -2.937  0.00  0.00    -0.060 C 
BRANCH  16  19
ATOM     17  C   UNL     1      -0.963   7.848  -4.947  0.00  0.00    -0.097 C 
ATOM     18  C   UNL     1       1.175   8.537  -4.043  0.00  0.00    -0.097 C 
ATOM     19  N   UNL     1       0.255   7.397  -4.242  0.00  0.00    +0.377 N 
ATOM     20  H   UNL     1       0.726   6.685  -4.813  0.00  0.00    -0.083 HD
ENDBRANCH  16  19
ENDBRANCH  15  16
ENDBRANCH   1  15
BRANCH   5  21
ATOM     21  C   UNL     1      -1.331   2.079   0.020  0.00  0.00    +0.117 C 
BRANCH  21  22
ATOM     22  C   UNL     1      -0.016   1.344   0.009  0.00  0.00    +0.217 C 
ATOM     23  O   UNL     1       1.026   1.964   0.003  0.00  0.00    -0.276 OA
ATOM     24  N   UNL     1       0.002  -0.004   0.002  0.00  0.00    -0.305 N 
ATOM     25  C   UNL     1      -1.250  -0.776   0.016  0.00  0.00    +0.089 C 
ATOM     26  C   UNL     1      -1.197  -1.801  -1.129  0.00  0.00    -0.059 C 
ATOM     27  C   UNL     1       1.228  -1.768  -1.151  0.00  0.00    -0.059 C 
ATOM     28  C   UNL     1       1.274  -0.742  -0.014  0.00  0.00    +0.089 C 
ATOM     29  N   UNL     1       0.028  -2.615  -0.978  0.00  0.00    +0.384 N 
ATOM     30  H   UNL     1       0.043  -3.023  -0.035  0.00  0.00    -0.081 HD
BRANCH  29  31
ATOM     31  C   UNL     1       0.034  -3.707  -1.973  0.00  0.00    -0.068 C 
ATOM     32  C   UNL     1       0.067  -3.140  -3.394  0.00  0.00    -0.015 C 
ATOM     33  C   UNL     1       0.073  -4.291  -4.402  0.00  0.00    -0.002 C 
ATOM     34  C   UNL     1      -1.189  -5.136  -4.219  0.00  0.00    -0.000 C 
ATOM     35  C   UNL     1      -1.222  -5.703  -2.798  0.00  0.00    -0.002 C 
ATOM     36  C   UNL     1      -1.229  -4.552  -1.790  0.00  0.00    -0.015 C 
ENDBRANCH  29  31
ENDBRANCH  21  22
ENDBRANCH   5  21
TORSDOF 7
