REMARK  Name = ZINC56854065
REMARK  7 active torsions:
REMARK  status: ('A' for Active; 'I' for Inactive)
REMARK    1  A    between atoms: C_1  and  C_2
REMARK    2  A    between atoms: C_2  and  C_4
REMARK    3  A    between atoms: C_2  and  N_14
REMARK    4  A    between atoms: C_9  and  C_10
REMARK    5  A    between atoms: N_17  and  N_18
REMARK    6  A    between atoms: N_18  and  C_19
REMARK    7  A    between atoms: C_19  and  C_26
REMARK                            x       y       z     vdW  Elec       q    Type
REMARK                         _______ _______ _______ _____ _____    ______ ____
ROOT
ATOM      1  N   UNL     1       0.688  -0.476  -1.203  0.00  0.00    -0.292 N 
ATOM      2  C   UNL     1       0.006  -0.608  -2.358  0.00  0.00    +0.314 C 
ATOM      3  O   UNL     1      -1.178  -0.335  -2.400  0.00  0.00    -0.252 OA
ATOM      4  N   UNL     1       0.637  -1.043  -3.467  0.00  0.00    -0.234 N 
ATOM      5  H   UNL     1       1.632  -0.695  -1.170  0.00  0.00    +0.151 HD
ATOM      6  H   UNL     1       0.146  -1.137  -4.299  0.00  0.00    +0.171 HD
ENDROOT
BRANCH   1   8
ATOM      7  C   UNL     1      -0.019   1.526   0.010  0.00  0.00    +0.033 C 
ATOM      8  C   UNL     1       0.002  -0.004   0.002  0.00  0.00    +0.102 C 
BRANCH   8   9
ATOM      9  C   UNL     1       0.731  -0.503   1.223  0.00  0.00    -0.016 A 
ATOM     10  C   UNL     1       2.077  -0.808   1.148  0.00  0.00    +0.006 A 
ATOM     11  C   UNL     1       2.746  -1.266   2.267  0.00  0.00    +0.000 A 
ATOM     12  C   UNL     1       2.068  -1.419   3.463  0.00  0.00    +0.001 A 
ATOM     13  C   UNL     1       0.722  -1.113   3.538  0.00  0.00    +0.013 A 
ATOM     14  C   UNL     1       0.055  -0.651   2.419  0.00  0.00    +0.060 A 
BRANCH  14  15
ATOM     15  C   UNL     1      -1.411  -0.313   2.503  0.00  0.00    +0.418 C 
ATOM     16  F   UNL     1      -1.869  -0.542   3.805  0.00  0.00    -0.166 F 
ATOM     17  F   UNL     1      -1.599   1.034   2.173  0.00  0.00    -0.166 F 
ATOM     18  F   UNL     1      -2.127  -1.116   1.609  0.00  0.00    -0.166 F 
ENDBRANCH  14  15
ENDBRANCH   8   9
ENDBRANCH   1   8
BRANCH   4  19
ATOM     19  N   UNL     1       1.967  -1.350  -3.420  0.00  0.00    -0.232 NA
ATOM     20  H   UNL     1       2.508  -0.566  -3.086  0.00  0.00    +0.145 HD
BRANCH  19  21
ATOM     21  C   UNL     1       2.450  -1.801  -4.732  0.00  0.00    +0.054 C 
ATOM     22  C   UNL     1       1.598  -2.985  -5.187  0.00  0.00    +0.047 C 
ATOM     23  C   UNL     1       2.422  -3.915  -6.121  0.00  0.00    +0.168 C 
ATOM     24  S   UNL     1       4.051  -3.858  -5.253  0.00  0.00    -0.029 S 
ATOM     25  O   UNL     1       5.095  -3.944  -6.212  0.00  0.00    -0.174 OA
ATOM     26  O   UNL     1       4.027  -4.762  -4.156  0.00  0.00    -0.174 OA
ATOM     27  C   UNL     1       3.951  -2.132  -4.619  0.00  0.00    +0.189 C 
ATOM     28  C   UNL     1       2.274  -0.660  -5.737  0.00  0.00    +0.031 C 
ENDBRANCH  19  21
ENDBRANCH   4  19
TORSDOF 5
