REMARK  Name = ZINC06239496
REMARK  9 active torsions:
REMARK  status: ('A' for Active; 'I' for Inactive)
REMARK    1  A    between atoms: C_1  and  O_2
REMARK    2  A    between atoms: O_2  and  C_3
REMARK    3  A    between atoms: C_7  and  C_17
REMARK    4  A    between atoms: C_14  and  O_15
REMARK    5  A    between atoms: O_15  and  C_16
REMARK    6  A    between atoms: C_17  and  C_19
REMARK    7  A    between atoms: C_17  and  N_66
REMARK    8  A    between atoms: N_23  and  C_24
REMARK    9  A    between atoms: C_24  and  C_25
REMARK                            x       y       z     vdW  Elec       q    Type
REMARK                         _______ _______ _______ _____ _____    ______ ____
ROOT
ATOM      1  C   UNL     1      -1.288  -0.811   0.761  0.00  0.00    +0.039 C 
ENDROOT
BRANCH   1   6
ATOM      2  C   UNL     1      -3.518  -6.306  -1.040  0.00  0.00    +0.162 A 
ATOM      3  C   UNL     1      -3.368  -4.937  -1.075  0.00  0.00    +0.059 A 
ATOM      4  C   UNL     1      -2.516  -4.310  -0.158  0.00  0.00    +0.002 A 
ATOM      5  C   UNL     1      -2.335  -2.859  -0.167  0.00  0.00    +0.017 A 
ATOM      6  C   UNL     1      -1.497  -2.304   0.745  0.00  0.00    +0.011 A 
ATOM      7  C   UNL     1      -0.816  -3.118   1.672  0.00  0.00    +0.251 A 
ATOM      8  O   UNL     1      -0.064  -2.598   2.479  0.00  0.00    -0.268 OA
ATOM      9  N   UNL     1      -0.980  -4.452   1.694  0.00  0.00    -0.322 N 
ATOM     10  H   UNL     1      -0.498  -4.982   2.348  0.00  0.00    +0.169 HD
ATOM     11  C   UNL     1      -1.817  -5.079   0.794  0.00  0.00    +0.053 A 
ATOM     12  C   UNL     1      -1.980  -6.459   0.815  0.00  0.00    +0.075 A 
ATOM     13  C   UNL     1      -2.824  -7.068  -0.095  0.00  0.00    +0.163 A 
BRANCH   2  15
ATOM     14  C   UNL     1      -5.024  -6.083  -2.868  0.00  0.00    +0.277 C 
ATOM     15  O   UNL     1      -4.345  -6.920  -1.929  0.00  0.00    -0.491 OA
ENDBRANCH   2  15
BRANCH  13  16
ATOM     16  O   UNL     1      -2.980  -8.417  -0.071  0.00  0.00    -0.491 OA
ATOM     17  C   UNL     1      -2.243  -9.137   0.919  0.00  0.00    +0.277 C 
ENDBRANCH  13  16
ENDBRANCH   1   6
BRANCH   1  27
ATOM     18  C   UNL     1       0.376   0.934   0.522  0.00  0.00    -0.072 C 
ATOM     19  C   UNL     1       1.862   1.207   0.757  0.00  0.00    +0.017 C 
ATOM     20  C   UNL     1       2.695   0.306  -0.119  0.00  0.00    -0.048 A 
ATOM     21  C   UNL     1       4.028   0.628  -0.321  0.00  0.00    +0.004 A 
ATOM     22  C   UNL     1       4.828  -0.174  -1.110  0.00  0.00    +0.000 A 
ATOM     23  C   UNL     1       4.297  -1.306  -1.701  0.00  0.00    +0.000 A 
ATOM     24  C   UNL     1       2.969  -1.626  -1.502  0.00  0.00    +0.002 A 
ATOM     25  C   UNL     1       2.163  -0.820  -0.711  0.00  0.00    -0.061 A 
ATOM     26  C   UNL     1       0.720  -1.208  -0.528  0.00  0.00    -0.041 C 
ATOM     27  N   UNL     1       0.159  -0.521   0.648  0.00  0.00    +0.392 N 
ATOM     28  H   UNL     1       0.635  -0.860   1.492  0.00  0.00    -0.080 HD
ENDBRANCH   1  27
BRANCH   1  29
ATOM     29  C   UNL     1      -1.800  -0.247   2.061  0.00  0.00    +0.143 A 
ATOM     30  N   UNL     1      -1.199  -0.294   3.225  0.00  0.00    -0.115 NA
ATOM     31  N   UNL     1      -1.953   0.298   4.086  0.00  0.00    -0.023 NA
ATOM     32  N   UNL     1      -3.022   0.715   3.503  0.00  0.00    -0.044 NA
ATOM     33  N   UNL     1      -2.966   0.398   2.254  0.00  0.00    -0.226 N 
BRANCH  33  34
ATOM     34  C   UNL     1      -3.979   0.686   1.236  0.00  0.00    +0.182 C 
BRANCH  34  35
ATOM     35  C   UNL     1      -3.761   2.072   0.688  0.00  0.00    -0.026 A 
ATOM     36  C   UNL     1      -4.356   3.159   1.300  0.00  0.00    +0.008 A 
ATOM     37  C   UNL     1      -4.153   4.432   0.801  0.00  0.00    +0.038 A 
ATOM     38  C   UNL     1      -3.361   4.616  -0.320  0.00  0.00    +0.123 A 
ATOM     39  C   UNL     1      -2.770   3.526  -0.936  0.00  0.00    +0.038 A 
ATOM     40  C   UNL     1      -2.970   2.255  -0.432  0.00  0.00    +0.008 A 
ATOM     41  F   UNL     1      -3.165   5.859  -0.812  0.00  0.00    -0.205 F 
ENDBRANCH  34  35
ENDBRANCH  33  34
ENDBRANCH   1  29
TORSDOF 7
