REMARK  Name = ZINC12490070
REMARK  11 active torsions:
REMARK  status: ('A' for Active; 'I' for Inactive)
REMARK    1  A    between atoms: C_1  and  O_2
REMARK    2  A    between atoms: O_2  and  C_3
REMARK    3  A    between atoms: C_6  and  N_9
REMARK    4  A    between atoms: N_9  and  C_10
REMARK    5  A    between atoms: C_10  and  C_12
REMARK    6  A    between atoms: C_10  and  C_18
REMARK    7  A    between atoms: N_20  and  C_21
REMARK    8  A    between atoms: C_21  and  C_22
REMARK    9  A    between atoms: C_28  and  C_30
REMARK   10  A    between atoms: C_30  and  N_31
REMARK   11  A    between atoms: C_32  and  C_34
REMARK                            x       y       z     vdW  Elec       q    Type
REMARK                         _______ _______ _______ _____ _____    ______ ____
ROOT
ATOM      1  N   UNL     1       2.065  -2.527   4.524  0.00  0.00    -0.254 N 
ATOM      2  C   UNL     1       2.617  -1.903   5.583  0.00  0.00    +0.238 C 
ATOM      3  O   UNL     1       3.429  -2.482   6.273  0.00  0.00    -0.274 OA
ENDROOT
BRANCH   1   7
ATOM      4  C   UNL     1      -0.525  -0.453   1.998  0.00  0.00    +0.120 A 
ATOM      5  C   UNL     1       0.829  -0.150   2.003  0.00  0.00    +0.047 A 
ATOM      6  C   UNL     1       1.687  -0.837   2.840  0.00  0.00    +0.027 A 
ATOM      7  C   UNL     1       1.194  -1.830   3.675  0.00  0.00    +0.038 A 
ATOM      8  C   UNL     1      -0.161  -2.133   3.670  0.00  0.00    +0.027 A 
ATOM      9  C   UNL     1      -1.019  -1.442   2.837  0.00  0.00    +0.047 A 
BRANCH   4  11
ATOM     10  C   UNL     1      -0.794   1.228   0.338  0.00  0.00    +0.277 C 
ATOM     11  O   UNL     1      -1.370   0.223   1.175  0.00  0.00    -0.495 OA
ENDBRANCH   4  11
ENDBRANCH   1   7
BRANCH   1  12
ATOM     12  C   UNL     1       2.375  -3.934   4.259  0.00  0.00    +0.197 C 
BRANCH  12  13
ATOM     13  C   UNL     1       1.510  -4.436   3.132  0.00  0.00    -0.018 A 
ATOM     14  C   UNL     1       1.529  -3.794   1.908  0.00  0.00    +0.006 A 
ATOM     15  C   UNL     1       0.735  -4.254   0.874  0.00  0.00    +0.000 A 
ATOM     16  C   UNL     1      -0.077  -5.357   1.063  0.00  0.00    +0.000 A 
ATOM     17  C   UNL     1      -0.095  -5.999   2.287  0.00  0.00    +0.000 A 
ATOM     18  C   UNL     1       0.702  -5.542   3.320  0.00  0.00    +0.006 A 
ENDBRANCH  12  13
BRANCH  12  19
ATOM     19  C   UNL     1       3.826  -4.065   3.875  0.00  0.00    +0.239 C 
ATOM     20  O   UNL     1       4.532  -3.080   3.827  0.00  0.00    -0.273 OA
ATOM     21  N   UNL     1       4.340  -5.277   3.585  0.00  0.00    -0.311 N 
ATOM     22  H   UNL     1       3.776  -6.065   3.623  0.00  0.00    +0.149 HD
BRANCH  21  23
ATOM     23  C   UNL     1       5.751  -5.404   3.212  0.00  0.00    +0.135 C 
BRANCH  23  24
ATOM     24  C   UNL     1       6.075  -6.874   2.935  0.00  0.00    +0.135 C 
ATOM     25  C   UNL     1       7.573  -7.035   2.572  0.00  0.00    +0.035 C 
ATOM     26  C   UNL     1       7.814  -8.517   2.971  0.00  0.00    +0.031 C 
ATOM     27  C   UNL     1       6.890  -8.681   4.196  0.00  0.00    +0.160 C 
ATOM     28  O   UNL     1       5.889  -7.657   4.125  0.00  0.00    -0.375 OA
ENDBRANCH  23  24
ENDBRANCH  21  23
ENDBRANCH  12  19
ENDBRANCH   1  12
BRANCH   2  29
ATOM     29  C   UNL     1       2.224  -0.485   5.911  0.00  0.00    +0.201 C 
BRANCH  29  30
ATOM     30  N   UNL     1       3.019  -0.009   7.045  0.00  0.00    -0.302 N 
ATOM     31  C   UNL     1       2.839   1.241   7.517  0.00  0.00    +0.251 C 
ATOM     32  O   UNL     1       2.015   1.973   7.001  0.00  0.00    -0.270 OA
ATOM     33  H   UNL     1       3.676  -0.592   7.457  0.00  0.00    +0.150 HD
BRANCH  31  34
ATOM     34  C   UNL     1       3.634   1.718   8.652  0.00  0.00    +0.074 A 
ATOM     35  C   UNL     1       3.601   2.950   9.286  0.00  0.00    +0.021 A 
ATOM     36  C   UNL     1       4.476   3.107  10.334  0.00  0.00    +0.008 A 
ATOM     37  C   UNL     1       5.292   2.077  10.671  0.00  0.00    +0.046 A 
ATOM     38  S   UNL     1       4.892   0.862   9.582  0.00  0.00    -0.092 S 
ENDBRANCH  31  34
ENDBRANCH  29  30
ENDBRANCH   2  29
TORSDOF 10
