REMARK  Name = ZINC38966415
REMARK  10 active torsions:
REMARK  status: ('A' for Active; 'I' for Inactive)
REMARK    1  A    between atoms: C_1  and  O_2
REMARK    2  A    between atoms: O_2  and  C_3
REMARK    3  A    between atoms: C_6  and  C_11
REMARK    4  A    between atoms: C_8  and  O_9
REMARK    5  A    between atoms: O_9  and  C_10
REMARK    6  A    between atoms: C_11  and  C_12
REMARK    7  A    between atoms: C_12  and  N_13
REMARK    8  A    between atoms: N_13  and  C_14
REMARK    9  A    between atoms: N_17  and  S_18
REMARK   10  A    between atoms: S_18  and  C_21
REMARK                            x       y       z     vdW  Elec       q    Type
REMARK                         _______ _______ _______ _____ _____    ______ ____
ROOT
ATOM      1  C   UNL     1       6.069  -3.593  -4.950  0.00  0.00    +0.219 C 
ATOM      2  C   UNL     1       6.382  -5.031  -5.300  0.00  0.00    +0.188 C 
ATOM      3  N   UNL     1       5.743  -6.005  -4.722  0.00  0.00    -0.110 NA
ATOM      4  N   UNL     1       7.329  -5.287  -6.216  0.00  0.00    -0.226 NA
ATOM      5  C   UNL     1       7.990  -4.318  -6.815  0.00  0.00    +0.089 A 
ATOM      6  C   UNL     1       8.985  -4.625  -7.778  0.00  0.00    +0.030 A 
ATOM      7  C   UNL     1       9.666  -3.635  -8.396  0.00  0.00    +0.002 A 
ATOM      8  C   UNL     1       9.438  -2.275  -8.129  0.00  0.00    +0.002 A 
ATOM      9  C   UNL     1       8.514  -1.873  -7.229  0.00  0.00    +0.027 A 
ATOM     10  C   UNL     1       7.728  -2.889  -6.514  0.00  0.00    +0.063 A 
ATOM     11  N   UNL     1       6.827  -2.538  -5.640  0.00  0.00    -0.362 N 
ATOM     12  H   UNL     1       6.661  -1.602  -5.449  0.00  0.00    +0.162 HD
ENDROOT
BRANCH   3  13
ATOM     13  S   UNL     1       6.095  -7.574  -5.114  0.00  0.00    +0.100 S 
ATOM     14  O   UNL     1       5.702  -7.753  -6.468  0.00  0.00    -0.146 OA
ATOM     15  O   UNL     1       7.423  -7.816  -4.669  0.00  0.00    -0.146 OA
BRANCH  13  16
ATOM     16  C   UNL     1       5.044  -8.603  -4.144  0.00  0.00    +0.113 A 
ATOM     17  C   UNL     1       5.457  -9.031  -2.896  0.00  0.00    +0.032 A 
ATOM     18  C   UNL     1       4.633  -9.838  -2.134  0.00  0.00    +0.040 A 
ATOM     19  C   UNL     1       3.393 -10.216  -2.621  0.00  0.00    +0.124 A 
ATOM     20  C   UNL     1       2.980  -9.786  -3.870  0.00  0.00    +0.040 A 
ATOM     21  C   UNL     1       3.804  -8.976  -4.629  0.00  0.00    +0.032 A 
ATOM     22  F   UNL     1       2.587 -11.004  -1.877  0.00  0.00    -0.205 F 
ENDBRANCH  13  16
ENDBRANCH   3  13
BRANCH   1  23
ATOM     23  N   UNL     1       4.642  -3.368  -5.217  0.00  0.00    -0.290 NA
ATOM     24  H   UNL     1       4.178  -4.231  -5.457  0.00  0.00    +0.124 HD
BRANCH  23  25
ATOM     25  C   UNL     1       3.989  -2.719  -4.072  0.00  0.00    +0.088 C 
BRANCH  25  26
ATOM     26  C   UNL     1       2.507  -2.501  -4.386  0.00  0.00    +0.050 C 
BRANCH  26  30
ATOM     27  C   UNL     1       0.606  -0.608  -1.056  0.00  0.00    +0.161 A 
ATOM     28  C   UNL     1       1.173   0.159  -2.062  0.00  0.00    +0.049 A 
ATOM     29  C   UNL     1       1.787  -0.456  -3.137  0.00  0.00    +0.007 A 
ATOM     30  C   UNL     1       1.837  -1.836  -3.212  0.00  0.00    -0.042 A 
ATOM     31  C   UNL     1       1.273  -2.606  -2.212  0.00  0.00    +0.053 A 
ATOM     32  C   UNL     1       0.662  -1.996  -1.129  0.00  0.00    +0.162 A 
BRANCH  27  34
ATOM     33  C   UNL     1      -0.017   1.425   0.010  0.00  0.00    +0.277 C 
ATOM     34  O   UNL     1       0.002  -0.004   0.002  0.00  0.00    -0.491 OA
ENDBRANCH  27  34
BRANCH  32  35
ATOM     35  O   UNL     1       0.112  -2.753  -0.142  0.00  0.00    -0.491 OA
ATOM     36  C   UNL     1       0.206  -4.171  -0.283  0.00  0.00    +0.277 C 
ENDBRANCH  32  35
ENDBRANCH  26  30
ENDBRANCH  25  26
ENDBRANCH  23  25
ENDBRANCH   1  23
TORSDOF 8
