REMARK  Name = ZINC36485509
REMARK  14 active torsions:
REMARK  status: ('A' for Active; 'I' for Inactive)
REMARK    1  A    between atoms: C_1  and  C_2
REMARK    2  A    between atoms: C_2  and  C_3
REMARK    3  A    between atoms: C_3  and  C_4
REMARK    4  A    between atoms: C_4  and  N_5
REMARK    5  A    between atoms: C_6  and  C_8
REMARK    6  A    between atoms: C_8  and  C_10
REMARK    7  A    between atoms: C_8  and  N_19
REMARK    8  A    between atoms: C_11  and  O_18
REMARK    9  A    between atoms: C_13  and  O_17
REMARK   10  A    between atoms: C_15  and  O_16
REMARK   11  A    between atoms: N_19  and  C_20
REMARK   12  A    between atoms: C_27  and  C_29
REMARK   13  A    between atoms: C_29  and  C_30
REMARK   14  A    between atoms: C_30  and  S_31
REMARK                            x       y       z     vdW  Elec       q    Type
REMARK                         _______ _______ _______ _____ _____    ______ ____
ROOT
ATOM      1  C   UNL     1      -3.607  -5.403   0.734  0.00  0.00    +0.204 C 
ENDROOT
BRANCH   1   2
ATOM      2  C   UNL     1      -4.308  -5.398   2.068  0.00  0.00    +0.065 A 
ATOM      3  C   UNL     1      -4.846  -6.572   2.573  0.00  0.00    +0.129 A 
ATOM      4  C   UNL     1      -5.490  -6.568   3.801  0.00  0.00    +0.091 A 
ATOM      5  C   UNL     1      -5.597  -5.389   4.524  0.00  0.00    +0.124 A 
ATOM      6  C   UNL     1      -5.058  -4.215   4.019  0.00  0.00    +0.091 A 
ATOM      7  C   UNL     1      -4.410  -4.221   2.794  0.00  0.00    +0.129 A 
BRANCH   7   8
ATOM      8  O   UNL     1      -3.878  -3.071   2.301  0.00  0.00    -0.506 OA
ATOM      9  H   UNL     1      -4.489  -2.557   1.756  0.00  0.00    +0.292 HD
ENDBRANCH   7   8
BRANCH   5  10
ATOM     10  O   UNL     1      -6.229  -5.385   5.727  0.00  0.00    -0.507 OA
ATOM     11  H   UNL     1      -5.647  -5.562   6.478  0.00  0.00    +0.292 HD
ENDBRANCH   5  10
BRANCH   3  12
ATOM     12  O   UNL     1      -4.741  -7.727   1.865  0.00  0.00    -0.506 OA
ATOM     13  H   UNL     1      -3.917  -8.209   2.017  0.00  0.00    +0.292 HD
ENDBRANCH   3  12
ENDBRANCH   1   2
BRANCH   1  15
ATOM     14  N   UNL     1      -1.222  -5.987   1.028  0.00  0.00    -0.313 N 
ATOM     15  C   UNL     1      -2.477  -6.400   0.763  0.00  0.00    +0.239 C 
ATOM     16  O   UNL     1      -2.698  -7.573   0.549  0.00  0.00    -0.273 OA
ATOM     17  H   UNL     1      -1.045  -5.049   1.199  0.00  0.00    +0.149 HD
BRANCH  14  18
ATOM     18  C   UNL     1      -0.123  -6.956   1.056  0.00  0.00    +0.104 C 
BRANCH  18  19
ATOM     19  C   UNL     1       1.186  -6.233   1.377  0.00  0.00    +0.018 C 
BRANCH  19  21
ATOM     20  C   UNL     1       3.643  -6.522   1.727  0.00  0.00    +0.004 C 
ATOM     21  C   UNL     1       2.334  -7.245   1.407  0.00  0.00    -0.002 C 
ENDBRANCH  19  21
ENDBRANCH  18  19
ENDBRANCH  14  18
ENDBRANCH   1  15
BRANCH   1  22
ATOM     22  N   UNL     1      -4.559  -5.774  -0.316  0.00  0.00    -0.255 N 
ATOM     23  C   UNL     1      -5.852  -5.996  -0.006  0.00  0.00    +0.221 C 
ATOM     24  O   UNL     1      -6.341  -5.466   0.969  0.00  0.00    -0.275 OA
BRANCH  22  25
ATOM     25  C   UNL     1      -4.126  -5.899  -1.641  0.00  0.00    +0.039 A 
ATOM     26  C   UNL     1      -3.205  -4.998  -2.159  0.00  0.00    +0.023 A 
ATOM     27  C   UNL     1      -2.779  -5.124  -3.467  0.00  0.00    +0.003 A 
ATOM     28  C   UNL     1      -3.269  -6.145  -4.261  0.00  0.00    +0.020 A 
ATOM     29  C   UNL     1      -4.187  -7.044  -3.748  0.00  0.00    +0.043 A 
ATOM     30  C   UNL     1      -4.612  -6.927  -2.437  0.00  0.00    +0.043 A 
ATOM     31 CL   UNL     1      -4.799  -8.324  -4.748  0.00  0.00    -0.083 Cl
ENDBRANCH  22  25
BRANCH  23  32
ATOM     32  C   UNL     1      -6.689  -6.902  -0.871  0.00  0.00    +0.107 C 
BRANCH  32  33
ATOM     33  C   UNL     1      -8.143  -6.863  -0.394  0.00  0.00    +0.075 C 
BRANCH  33  34
ATOM     34  S   UNL     1      -9.151  -7.954  -1.435  0.00  0.00    -0.178 S 
ATOM     35  H   UNL     1     -10.390  -7.836  -0.925  0.00  0.00    +0.102 HD
ENDBRANCH  33  34
ENDBRANCH  32  33
ENDBRANCH  23  32
ENDBRANCH   1  22
TORSDOF 13
