REMARK  Name = ZINC01993030
REMARK  13 active torsions:
REMARK  status: ('A' for Active; 'I' for Inactive)
REMARK    1  A    between atoms: C_1  and  C_2
REMARK    2  A    between atoms: C_2  and  O_3
REMARK    3  A    between atoms: O_3  and  C_4
REMARK    4  A    between atoms: N_11  and  C_12
REMARK    5  A    between atoms: C_12  and  C_13
REMARK    6  A    between atoms: C_13  and  C_14
REMARK    7  A    between atoms: C_17  and  O_22
REMARK    8  A    between atoms: C_18  and  O_20
REMARK    9  A    between atoms: O_20  and  C_21
REMARK   10  A    between atoms: O_22  and  C_23
REMARK   11  A    between atoms: C_25  and  C_27
REMARK   12  A    between atoms: C_30  and  O_33
REMARK   13  A    between atoms: O_33  and  C_34
REMARK                            x       y       z     vdW  Elec       q    Type
REMARK                         _______ _______ _______ _____ _____    ______ ____
ROOT
ATOM      1  C   UNL     1       0.690  -1.928  -1.329  0.00  0.00    +0.121 A 
ATOM      2  C   UNL     1       0.238  -2.814  -0.358  0.00  0.00    +0.049 A 
ATOM      3  C   UNL     1       0.446  -4.170  -0.495  0.00  0.00    +0.050 A 
ATOM      4  C   UNL     1       1.111  -4.662  -1.610  0.00  0.00    +0.138 A 
ATOM      5  C   UNL     1       1.567  -3.770  -2.589  0.00  0.00    +0.044 A 
ATOM      6  C   UNL     1       1.351  -2.403  -2.449  0.00  0.00    +0.059 A 
ATOM      7  C   UNL     1       2.274  -4.320  -3.769  0.00  0.00    +0.050 A 
ATOM      8  N   UNL     1       2.727  -3.535  -4.723  0.00  0.00    -0.383 N 
ATOM      9  C   UNL     1       2.444  -5.732  -3.828  0.00  0.00    +0.072 A 
ATOM     10  C   UNL     1       1.962  -6.503  -2.823  0.00  0.00    +0.138 A 
ATOM     11  O   UNL     1       1.323  -5.989  -1.758  0.00  0.00    -0.455 OA
ATOM     12  H   UNL     1       2.779  -3.861  -5.635  0.00  0.00    +0.160 HD
ENDROOT
BRANCH  10  13
ATOM     13  C   UNL     1       2.146  -7.965  -2.901  0.00  0.00    +0.018 A 
ATOM     14  C   UNL     1       2.812  -8.531  -3.992  0.00  0.00    +0.015 A 
ATOM     15  C   UNL     1       2.982  -9.896  -4.060  0.00  0.00    +0.046 A 
ATOM     16  C   UNL     1       2.493 -10.711  -3.046  0.00  0.00    +0.120 A 
ATOM     17  C   UNL     1       1.831 -10.153  -1.960  0.00  0.00    +0.046 A 
ATOM     18  C   UNL     1       1.661  -8.788  -1.881  0.00  0.00    +0.015 A 
BRANCH  16  19
ATOM     19  O   UNL     1       2.662 -12.056  -3.118  0.00  0.00    -0.495 OA
ATOM     20  C   UNL     1       2.135 -12.835  -2.042  0.00  0.00    +0.277 C 
ENDBRANCH  16  19
ENDBRANCH  10  13
BRANCH   1  21
ATOM     21  O   UNL     1       0.479  -0.593  -1.182  0.00  0.00    -0.492 OA
BRANCH  21  23
ATOM     22  C   UNL     1      -0.353   1.352  -0.012  0.00  0.00    +0.048 C 
ATOM     23  C   UNL     1      -0.209  -0.172  -0.002  0.00  0.00    +0.225 C 
ENDBRANCH  21  23
ENDBRANCH   1  21
BRANCH   8  24
ATOM     24  C   UNL     1       3.152  -2.169  -4.408  0.00  0.00    +0.117 C 
BRANCH  24  25
ATOM     25  C   UNL     1       2.212  -1.173  -5.090  0.00  0.00    +0.056 C 
BRANCH  25  26
ATOM     26  C   UNL     1       2.650   0.233  -4.766  0.00  0.00    -0.042 A 
ATOM     27  C   UNL     1       2.148   0.870  -3.646  0.00  0.00    +0.007 A 
ATOM     28  C   UNL     1       2.546   2.159  -3.345  0.00  0.00    +0.049 A 
ATOM     29  C   UNL     1       3.450   2.815  -4.165  0.00  0.00    +0.161 A 
ATOM     30  C   UNL     1       3.956   2.173  -5.291  0.00  0.00    +0.162 A 
ATOM     31  C   UNL     1       3.556   0.879  -5.585  0.00  0.00    +0.053 A 
BRANCH  30  32
ATOM     32  O   UNL     1       4.843   2.812  -6.099  0.00  0.00    -0.491 OA
ATOM     33  C   UNL     1       5.320   2.092  -7.237  0.00  0.00    +0.277 C 
ENDBRANCH  30  32
BRANCH  29  34
ATOM     34  O   UNL     1       3.842   4.083  -3.869  0.00  0.00    -0.491 OA
ATOM     35  C   UNL     1       3.282   4.679  -2.698  0.00  0.00    +0.277 C 
ENDBRANCH  29  34
ENDBRANCH  25  26
ENDBRANCH  24  25
ENDBRANCH   8  24
TORSDOF 9
