REMARK  Name = ZINC14276584
REMARK  8 active torsions:
REMARK  status: ('A' for Active; 'I' for Inactive)
REMARK    1  A    between atoms: C_1  and  C_2
REMARK    2  A    between atoms: C_9  and  N_14
REMARK    3  A    between atoms: C_10  and  C_11
REMARK    4  A    between atoms: N_14  and  C_15
REMARK    5  A    between atoms: C_15  and  N_17
REMARK    6  A    between atoms: C_18  and  C_20
REMARK    7  A    between atoms: C_23  and  C_25
REMARK    8  A    between atoms: C_29  and  N_31
REMARK                            x       y       z     vdW  Elec       q    Type
REMARK                         _______ _______ _______ _____ _____    ______ ____
ROOT
ATOM      1  C   UNL     1       3.643   9.493   0.016  0.00  0.00    +0.142 C 
ATOM      2  S   UNL     1       2.973  11.069   0.031  0.00  0.00    -0.018 S 
ENDROOT
BRANCH   1   3
ATOM      3  N   UNL     1       2.833   8.416   0.019  0.00  0.00    -0.261 N 
ATOM      4  C   UNL     1       1.495   8.580   0.032  0.00  0.00    +0.285 C 
ATOM      5  O   UNL     1       1.019   9.700   0.043  0.00  0.00    -0.266 OA
ATOM      6  H   UNL     1       3.212   7.524   0.011  0.00  0.00    +0.157 HD
BRANCH   4   7
ATOM      7  C   UNL     1       0.614   7.410   0.035  0.00  0.00    +0.190 A 
ATOM      8  C   UNL     1      -0.764   7.434   0.048  0.00  0.00    +0.055 A 
ATOM      9  C   UNL     1      -1.190   6.103   0.039  0.00  0.00    +0.050 A 
ATOM     10  C   UNL     1      -0.070   5.322   0.030  0.00  0.00    +0.136 A 
ATOM     11  O   UNL     1       1.011   6.120   0.024  0.00  0.00    -0.450 OA
BRANCH  10  12
ATOM     12  C   UNL     1      -0.050   3.845   0.022  0.00  0.00    +0.019 A 
ATOM     13  C   UNL     1      -1.248   3.127   0.030  0.00  0.00    +0.012 A 
ATOM     14  C   UNL     1      -1.222   1.748   0.017  0.00  0.00    +0.003 A 
ATOM     15  C   UNL     1      -0.013   1.076   0.008  0.00  0.00    +0.033 A 
ATOM     16  C   UNL     1       1.178   1.781   0.000  0.00  0.00    +0.127 A 
ATOM     17  C   UNL     1       1.167   3.160   0.007  0.00  0.00    +0.044 A 
BRANCH  16  18
ATOM     18  N   UNL     1       2.467   1.053  -0.015  0.00  0.00    +0.056 N 
ATOM     19  O   UNL     1       2.478  -0.165  -0.021  0.00  0.00    -0.126 OA
ATOM     20  O   UNL     1       3.516   1.672  -0.021  0.00  0.00    -0.126 OA
ENDBRANCH  16  18
ENDBRANCH  10  12
ENDBRANCH   4   7
ENDBRANCH   1   3
BRANCH   1  21
ATOM     21  N   UNL     1       4.981   9.330   0.003  0.00  0.00    -0.291 N 
ATOM     22  H   UNL     1       5.360   8.437  -0.005  0.00  0.00    +0.154 HD
BRANCH  21  30
ATOM     23  C   UNL     1       9.329  15.830  -0.099  0.00  0.00    +0.008 C 
ATOM     24  C   UNL     1       8.841  14.409  -0.388  0.00  0.00    -0.009 C 
ATOM     25  C   UNL     1       9.657  13.409   0.436  0.00  0.00    +0.008 C 
ATOM     26  C   UNL     1       9.350  11.982  -0.024  0.00  0.00    +0.037 C 
ATOM     27  C   UNL     1       7.840  11.777  -0.011  0.00  0.00    -0.023 A 
ATOM     28  C   UNL     1       6.995  12.831   0.002  0.00  0.00    -0.004 A 
ATOM     29  S   UNL     1       5.377  12.113   0.013  0.00  0.00    -0.077 S 
ATOM     30  C   UNL     1       5.814  10.437   0.000  0.00  0.00    +0.084 A 
ATOM     31  C   UNL     1       7.202  10.472  -0.007  0.00  0.00    +0.068 A 
ATOM     32  C   UNL     1       7.362  14.283   0.004  0.00  0.00    +0.046 C 
BRANCH  31  33
ATOM     33  C   UNL     1       7.993   9.238  -0.015  0.00  0.00    +0.244 C 
ATOM     34  O   UNL     1       8.317   8.729  -1.072  0.00  0.00    -0.270 OA
ATOM     35  N   UNL     1       8.363   8.668   1.149  0.00  0.00    -0.325 N 
ATOM     36  H   UNL     1       8.105   9.074   1.992  0.00  0.00    +0.145 HD
ATOM     37  H   UNL     1       8.887   7.852   1.144  0.00  0.00    +0.145 HD
ENDBRANCH  31  33
ENDBRANCH  21  30
ENDBRANCH   1  21
TORSDOF 7
