REMARK  Name = ZINC05938713
REMARK  8 active torsions:
REMARK  status: ('A' for Active; 'I' for Inactive)
REMARK    1  A    between atoms: C_1  and  C_2
REMARK    2  A    between atoms: C_2  and  C_4
REMARK    3  A    between atoms: C_2  and  N_14
REMARK    4  A    between atoms: N_20  and  C_21
REMARK    5  A    between atoms: N_20  and  S_24
REMARK    6  A    between atoms: C_21  and  C_22
REMARK    7  A    between atoms: C_21  and  C_23
REMARK    8  A    between atoms: S_24  and  C_27
REMARK                            x       y       z     vdW  Elec       q    Type
REMARK                         _______ _______ _______ _____ _____    ______ ____
ROOT
ATOM      1  N   UNL     1      -1.981   0.096   0.489  0.00  0.00    -0.296 N 
ATOM      2  C   UNL     1      -2.430  -0.245  -0.735  0.00  0.00    +0.307 C 
ATOM      3  O   UNL     1      -1.763   0.007  -1.719  0.00  0.00    -0.252 OA
ATOM      4  N   UNL     1      -3.618  -0.867  -0.867  0.00  0.00    -0.223 N 
ATOM      5  C   UNL     1      -4.067  -1.209  -2.091  0.00  0.00    +0.329 C 
ATOM      6  O   UNL     1      -3.442  -0.881  -3.081  0.00  0.00    -0.251 OA
ATOM      7  N   UNL     1      -5.209  -1.914  -2.218  0.00  0.00    -0.157 N 
ATOM      8  H   UNL     1      -2.514  -0.105   1.275  0.00  0.00    +0.151 HD
ATOM      9  H   UNL     1      -4.151  -1.069  -0.082  0.00  0.00    +0.161 HD
ENDROOT
BRANCH   7  10
ATOM     10  S   UNL     1      -5.692  -2.446  -3.710  0.00  0.00    +0.046 S 
ATOM     11  O   UNL     1      -7.078  -2.722  -3.565  0.00  0.00    -0.155 OA
ATOM     12  O   UNL     1      -5.243  -1.447  -4.614  0.00  0.00    -0.155 OA
ATOM     13  C   UNL     1      -4.773  -3.988  -3.975  0.00  0.00    +0.219 C 
ENDBRANCH   7  10
BRANCH   7  14
ATOM     14  C   UNL     1      -6.022  -2.210  -1.036  0.00  0.00    +0.096 C 
ATOM     15  C   UNL     1      -5.215  -3.077  -0.066  0.00  0.00    +0.030 C 
ATOM     16  C   UNL     1      -6.413  -0.902  -0.346  0.00  0.00    +0.030 C 
ENDBRANCH   7  14
BRANCH   1  18
ATOM     17  C   UNL     1      -0.878   2.278   0.443  0.00  0.00    +0.028 C 
ATOM     18  C   UNL     1      -0.689   0.772   0.634  0.00  0.00    +0.078 C 
BRANCH  18  19
ATOM     19  C   UNL     1      -0.125   0.501   2.030  0.00  0.00    -0.010 C 
ATOM     20  C   UNL     1      -1.099   1.031   3.085  0.00  0.00    +0.012 C 
ATOM     21  C   UNL     1      -0.534   0.760   4.481  0.00  0.00    -0.010 C 
ATOM     22  C   UNL     1       0.815   1.466   4.632  0.00  0.00    +0.007 C 
ATOM     23  C   UNL     1       1.788   0.936   3.577  0.00  0.00    -0.010 C 
ATOM     24  C   UNL     1       1.224   1.207   2.180  0.00  0.00    +0.012 C 
ATOM     25  C   UNL     1       1.976  -0.570   3.767  0.00  0.00    +0.007 C 
ATOM     26  C   UNL     1       0.627  -1.276   3.616  0.00  0.00    -0.010 C 
ATOM     27  C   UNL     1      -0.346  -0.747   4.671  0.00  0.00    +0.007 C 
ATOM     28  C   UNL     1       0.063  -1.005   2.220  0.00  0.00    +0.012 C 
ENDBRANCH  18  19
ENDBRANCH   1  18
TORSDOF 4
