REMARK  Name = ZINC06078539
REMARK  10 active torsions:
REMARK  status: ('A' for Active; 'I' for Inactive)
REMARK    1  A    between atoms: C_1  and  C_2
REMARK    2  A    between atoms: C_2  and  N_3
REMARK    3  A    between atoms: N_3  and  C_4
REMARK    4  A    between atoms: N_3  and  C_6
REMARK    5  A    between atoms: C_4  and  C_5
REMARK    6  A    between atoms: C_18  and  N_37
REMARK    7  A    between atoms: C_19  and  C_35
REMARK    8  A    between atoms: C_20  and  C_22
REMARK    9  A    between atoms: C_26  and  C_34
REMARK   10  A    between atoms: C_28  and  C_33
REMARK                            x       y       z     vdW  Elec       q    Type
REMARK                         _______ _______ _______ _____ _____    ______ ____
ROOT
ATOM      1  C   UNL     1       6.367   3.819  -4.768  0.00  0.00    +0.033 A 
ATOM      2  C   UNL     1       6.792   4.384  -3.565  0.00  0.00    +0.024 A 
ATOM      3  C   UNL     1       6.144   4.095  -2.399  0.00  0.00    +0.017 A 
ATOM      4  C   UNL     1       5.048   3.227  -2.410  0.00  0.00    +0.060 A 
ATOM      5  C   UNL     1       4.614   2.653  -3.618  0.00  0.00    +0.144 A 
ATOM      6  C   UNL     1       5.282   2.955  -4.794  0.00  0.00    +0.070 A 
ATOM      7  O   UNL     1       3.555   1.815  -3.620  0.00  0.00    -0.422 OA
ATOM      8  C   UNL     1       2.894   1.510  -2.492  0.00  0.00    +0.345 A 
ATOM      9  O   UNL     1       1.945   0.749  -2.549  0.00  0.00    -0.245 OA
ATOM     10  C   UNL     1       3.267   2.045  -1.248  0.00  0.00    +0.092 A 
ATOM     11  C   UNL     1       4.330   2.898  -1.171  0.00  0.00    +0.152 A 
ATOM     12  O   UNL     1       4.721   3.432   0.001  0.00  0.00    -0.440 OA
ATOM     13  C   UNL     1       4.336   2.865   1.159  0.00  0.00    +0.199 C 
ATOM     14  C   UNL     1       3.282   2.017   1.219  0.00  0.00    +0.098 C 
ATOM     15  C   UNL     1       2.492   1.673  -0.013  0.00  0.00    +0.108 C 
ENDROOT
BRANCH  15  16
ATOM     16  C   UNL     1       1.187   2.428   0.004  0.00  0.00    +0.003 A 
ATOM     17  C   UNL     1       1.187   3.793   0.011  0.00  0.00    +0.017 A 
ATOM     18  C   UNL     1      -0.053   4.458   0.026  0.00  0.00    +0.001 A 
ATOM     19  C   UNL     1      -0.131   5.860   0.034  0.00  0.00    +0.013 A 
ATOM     20  C   UNL     1      -1.350   6.466   0.049  0.00  0.00    -0.050 A 
ATOM     21  C   UNL     1      -2.523   5.713   0.057  0.00  0.00    +0.008 A 
ATOM     22  C   UNL     1      -2.484   4.353   0.049  0.00  0.00    -0.024 A 
ATOM     23  C   UNL     1      -1.244   3.690   0.034  0.00  0.00    +0.076 A 
ATOM     24  N   UNL     1      -1.176   2.355   0.021  0.00  0.00    -0.235 NA
ATOM     25  C   UNL     1      -0.021   1.732   0.012  0.00  0.00    +0.134 A 
ATOM     26 CL   UNL     1       0.002  -0.004   0.002  0.00  0.00    -0.062 Cl
ATOM     27  C   UNL     1      -3.766   3.560   0.057  0.00  0.00    +0.046 C 
ATOM     28  C   UNL     1      -1.433   7.971   0.058  0.00  0.00    +0.044 C 
ENDBRANCH  15  16
BRANCH  13  29
ATOM     29  N   UNL     1       5.029   3.153   2.308  0.00  0.00    -0.328 N 
ATOM     30  H   UNL     1       5.787   3.759   2.279  0.00  0.00    +0.145 HD
ATOM     31  H   UNL     1       4.762   2.751   3.150  0.00  0.00    +0.145 HD
ENDBRANCH  13  29
BRANCH  14  32
ATOM     32  C   UNL     1       2.913   1.439   2.476  0.00  0.00    +0.101 C 
ATOM     33  N   UNL     1       2.621   0.980   3.473  0.00  0.00    -0.191 NA
ENDBRANCH  14  32
BRANCH   1  34
ATOM     34  N   UNL     1       7.037   4.123  -5.949  0.00  0.00    -0.330 N 
BRANCH  34  36
ATOM     35  C   UNL     1       9.468   4.233  -5.706  0.00  0.00    +0.024 C 
ATOM     36  C   UNL     1       8.184   5.035  -5.927  0.00  0.00    +0.102 C 
ENDBRANCH  34  36
BRANCH  34  37
ATOM     37  C   UNL     1       6.595   3.533  -7.215  0.00  0.00    +0.102 C 
ATOM     38  C   UNL     1       5.557   4.446  -7.869  0.00  0.00    +0.024 C 
ENDBRANCH  34  37
ENDBRANCH   1  34
TORSDOF 6
