REMARK  Name = ZINC35737614
REMARK  6 active torsions:
REMARK  status: ('A' for Active; 'I' for Inactive)
REMARK    1  A    between atoms: C_1  and  C_2
REMARK    2  A    between atoms: C_5  and  N_12
REMARK    3  A    between atoms: C_8  and  C_10
REMARK    4  A    between atoms: C_8  and  C_11
REMARK    5  A    between atoms: N_12  and  C_13
REMARK    6  A    between atoms: N_16  and  C_18
REMARK                            x       y       z     vdW  Elec       q    Type
REMARK                         _______ _______ _______ _____ _____    ______ ____
ROOT
ATOM      1  C   UNL     1       0.214   0.929   1.659  0.00  0.00    +0.007 C 
ATOM      2  C   UNL     1       0.185  -0.479   1.060  0.00  0.00    -0.012 C 
ATOM      3  C   UNL     1       0.701  -0.432  -0.379  0.00  0.00    +0.025 C 
ATOM      4  C   UNL     1       0.672  -1.840  -0.978  0.00  0.00    +0.071 C 
ATOM      5  C   UNL     1       1.563  -2.766  -0.147  0.00  0.00    +0.028 C 
ATOM      6  C   UNL     1       1.048  -2.813   1.293  0.00  0.00    -0.033 C 
ATOM      7  C   UNL     1       1.077  -1.405   1.891  0.00  0.00    +0.009 C 
ATOM      8  C   UNL     1      -0.387  -3.342   1.304  0.00  0.00    +0.011 C 
ATOM      9  C   UNL     1       1.939  -3.738   2.124  0.00  0.00    +0.011 C 
ENDROOT
BRANCH   4  10
ATOM     10  N   UNL     1      -0.702  -2.347  -0.967  0.00  0.00    -0.339 N 
ATOM     11  H   UNL     1      -1.380  -1.900  -0.437  0.00  0.00    +0.146 HD
BRANCH  10  12
ATOM     12  C   UNL     1      -1.039  -3.484  -1.726  0.00  0.00    +0.065 A 
ATOM     13  C   UNL     1      -0.164  -4.230  -2.529  0.00  0.00    +0.157 A 
ATOM     14  N   UNL     1      -0.838  -5.209  -3.075  0.00  0.00    -0.178 NA
ATOM     15  N   UNL     1      -2.167  -5.125  -2.642  0.00  0.00    -0.273 N 
ATOM     16  C   UNL     1      -2.267  -4.056  -1.807  0.00  0.00    +0.131 A 
ATOM     17  C   UNL     1      -3.256  -6.030  -3.018  0.00  0.00    +0.172 C 
ENDBRANCH  10  12
ENDBRANCH   4  10
TORSDOF 2
