REMARK  Name = ZINC64868111
REMARK  9 active torsions:
REMARK  status: ('A' for Active; 'I' for Inactive)
REMARK    1  A    between atoms: C_1  and  C_2
REMARK    2  A    between atoms: C_5  and  C_8
REMARK    3  A    between atoms: C_8  and  N_9
REMARK    4  A    between atoms: N_9  and  C_10
REMARK    5  A    between atoms: C_10  and  C_11
REMARK    6  A    between atoms: C_13  and  C_15
REMARK    7  A    between atoms: C_15  and  C_16
REMARK    8  A    between atoms: C_15  and  N_27
REMARK    9  A    between atoms: C_16  and  C_17
REMARK                            x       y       z     vdW  Elec       q    Type
REMARK                         _______ _______ _______ _____ _____    ______ ____
ROOT
ATOM      1  C   UNL     1       3.506  -5.440  -1.214  0.00  0.00    +0.165 C 
ENDROOT
BRANCH   1   2
ATOM      2  N   UNL     1       4.113  -5.142  -2.514  0.00  0.00    -0.288 N 
ATOM      3  C   UNL     1       3.584  -5.662  -3.639  0.00  0.00    +0.298 C 
ATOM      4  O   UNL     1       2.604  -6.378  -3.576  0.00  0.00    -0.253 OA
ATOM      5  N   UNL     1       4.143  -5.388  -4.835  0.00  0.00    -0.313 N 
ATOM      6  H   UNL     1       4.895  -4.571  -2.564  0.00  0.00    +0.151 HD
ATOM      7  H   UNL     1       4.925  -4.817  -4.886  0.00  0.00    +0.146 HD
ATOM      8  H   UNL     1       3.762  -5.763  -5.645  0.00  0.00    +0.146 HD
ENDBRANCH   1   2
BRANCH   1  10
ATOM      9  N   UNL     1       1.447  -4.746  -0.032  0.00  0.00    -0.285 N 
ATOM     10  C   UNL     1       2.079  -4.956  -1.204  0.00  0.00    +0.237 C 
ATOM     11  O   UNL     1       1.498  -4.755  -2.250  0.00  0.00    -0.274 OA
BRANCH   9  12
ATOM     12  C   UNL     1       0.059  -4.275  -0.021  0.00  0.00    +0.143 C 
BRANCH  12  17
ATOM     13  C   UNL     1      -0.018   1.503   0.010  0.00  0.00    +0.044 C 
ATOM     14  C   UNL     1       0.002  -0.004   0.002  0.00  0.00    -0.050 A 
ATOM     15  C   UNL     1       0.006  -0.689  -1.199  0.00  0.00    +0.003 A 
ATOM     16  C   UNL     1       0.025  -2.071  -1.206  0.00  0.00    +0.005 A 
ATOM     17  C   UNL     1       0.040  -2.768  -0.013  0.00  0.00    -0.030 A 
ATOM     18  C   UNL     1       0.037  -2.084   1.188  0.00  0.00    +0.005 A 
ATOM     19  C   UNL     1       0.023  -0.702   1.195  0.00  0.00    +0.003 A 
ENDBRANCH  12  17
ENDBRANCH   9  12
BRANCH   9  20
ATOM     20  C   UNL     1       2.148  -4.988   1.232  0.00  0.00    +0.197 C 
BRANCH  20  21
ATOM     21  C   UNL     1       1.937  -6.383   1.650  0.00  0.00    -0.086 C 
ATOM     22  C   UNL     1       1.768  -7.496   1.984  0.00  0.00    +0.005 C 
ENDBRANCH  20  21
ENDBRANCH   9  20
ENDBRANCH   1  10
BRANCH   1  23
ATOM     23  C   UNL     1       3.534  -6.950  -0.972  0.00  0.00    +0.069 C 
BRANCH  23  24
ATOM     24  C   UNL     1       4.963  -7.414  -0.860  0.00  0.00    -0.020 A 
ATOM     25  C   UNL     1       5.721  -7.913  -1.850  0.00  0.00    +0.087 A 
ATOM     26  N   UNL     1       6.965  -8.226  -1.373  0.00  0.00    -0.360 N 
ATOM     27  H   UNL     1       7.686  -8.601  -1.903  0.00  0.00    +0.165 HD
ATOM     28  C   UNL     1       7.040  -7.929  -0.031  0.00  0.00    +0.047 A 
ATOM     29  C   UNL     1       5.792  -7.402   0.348  0.00  0.00    +0.003 A 
ATOM     30  C   UNL     1       5.576  -7.002   1.668  0.00  0.00    +0.010 A 
ATOM     31  C   UNL     1       6.581  -7.122   2.586  0.00  0.00    +0.001 A 
ATOM     32  C   UNL     1       7.816  -7.638   2.216  0.00  0.00    +0.002 A 
ATOM     33  C   UNL     1       8.047  -8.046   0.921  0.00  0.00    +0.026 A 
ENDBRANCH  23  24
ENDBRANCH   1  23
TORSDOF 8
