REMARK  Name = ZINC36575470
REMARK  11 active torsions:
REMARK  status: ('A' for Active; 'I' for Inactive)
REMARK    1  A    between atoms: C_1  and  C_2
REMARK    2  A    between atoms: C_2  and  C_3
REMARK    3  A    between atoms: C_2  and  C_4
REMARK    4  A    between atoms: C_4  and  C_5
REMARK    5  A    between atoms: C_5  and  C_7
REMARK    6  A    between atoms: C_5  and  N_11
REMARK    7  A    between atoms: C_7  and  O_9
REMARK    8  A    between atoms: O_9  and  C_10
REMARK    9  A    between atoms: C_23  and  C_25
REMARK   10  A    between atoms: C_30  and  O_31
REMARK   11  A    between atoms: O_31  and  C_32
REMARK                            x       y       z     vdW  Elec       q    Type
REMARK                         _______ _______ _______ _____ _____    ______ ____
ROOT
ATOM      1  N   UNL     1      -0.452  -2.547   0.699  0.00  0.00    -0.286 N 
ATOM      2  C   UNL     1       0.883  -2.639   0.858  0.00  0.00    +0.304 C 
ATOM      3  O   UNL     1       1.628  -2.107   0.058  0.00  0.00    -0.253 OA
ATOM      4  N   UNL     1       1.392  -3.319   1.904  0.00  0.00    -0.273 N 
ATOM      5  C   UNL     1       0.513  -4.069   2.814  0.00  0.00    +0.116 C 
ATOM      6  C   UNL     1       0.587  -3.444   4.212  0.00  0.00    +0.074 C 
ATOM      7  C   UNL     1       2.030  -3.174   4.548  0.00  0.00    +0.040 A 
ATOM      8  C   UNL     1       3.034  -3.118   3.647  0.00  0.00    +0.062 A 
ATOM      9  N   UNL     1       4.167  -2.857   4.303  0.00  0.00    -0.348 N 
ATOM     10  C   UNL     1       3.907  -2.751   5.580  0.00  0.00    +0.171 A 
ATOM     11  N   UNL     1       2.582  -2.945   5.772  0.00  0.00    -0.349 N 
ATOM     12  H   UNL     1       2.113  -2.924   6.621  0.00  0.00    +0.166 HD
ATOM     13  C   UNL     1       2.843  -3.334   2.160  0.00  0.00    +0.160 C 
ATOM     14  H   UNL     1      -1.047  -2.906   1.376  0.00  0.00    +0.151 HD
ATOM     15  H   UNL     1       5.043  -2.760   3.897  0.00  0.00    +0.167 HD
ENDROOT
BRANCH  13  16
ATOM     16  C   UNL     1       3.422  -4.665   1.753  0.00  0.00    +0.021 A 
ATOM     17  C   UNL     1       3.742  -5.603   2.716  0.00  0.00    +0.009 A 
ATOM     18  C   UNL     1       4.274  -6.824   2.343  0.00  0.00    +0.001 A 
ATOM     19  C   UNL     1       4.485  -7.109   1.007  0.00  0.00    +0.004 A 
ATOM     20  C   UNL     1       4.166  -6.175   0.041  0.00  0.00    +0.046 A 
ATOM     21  C   UNL     1       3.628  -4.951   0.412  0.00  0.00    +0.135 A 
BRANCH  21  22
ATOM     22  O   UNL     1       3.308  -4.032  -0.537  0.00  0.00    -0.405 OA
BRANCH  22  23
ATOM     23  C   UNL     1       3.547  -4.395  -1.898  0.00  0.00    +0.575 C 
ATOM     24  F   UNL     1       2.803  -5.537  -2.214  0.00  0.00    -0.133 F 
ATOM     25  F   UNL     1       3.164  -3.342  -2.736  0.00  0.00    -0.133 F 
ATOM     26  F   UNL     1       4.909  -4.662  -2.077  0.00  0.00    -0.133 F 
ENDBRANCH  22  23
ENDBRANCH  21  22
ENDBRANCH  13  16
BRANCH   1  27
ATOM     27  C   UNL     1      -1.005  -1.907  -0.497  0.00  0.00    +0.183 C 
BRANCH  27  28
ATOM     28  C   UNL     1      -2.346  -2.514  -0.818  0.00  0.00    +0.327 C 
ATOM     29  O   UNL     1      -2.795  -3.392  -0.120  0.00  0.00    -0.249 OA
BRANCH  28  30
ATOM     30  O   UNL     1      -3.043  -2.080  -1.880  0.00  0.00    -0.467 OA
ATOM     31  C   UNL     1      -4.307  -2.701  -2.125  0.00  0.00    +0.280 C 
ENDBRANCH  28  30
ENDBRANCH  27  28
BRANCH  27  32
ATOM     32  C   UNL     1      -1.172  -0.407  -0.242  0.00  0.00    +0.036 C 
BRANCH  32  34
ATOM     33  C   UNL     1      -1.888   1.761  -1.256  0.00  0.00    +0.007 C 
ATOM     34  C   UNL     1      -1.584   0.289  -1.541  0.00  0.00    -0.015 C 
ATOM     35  C   UNL     1      -0.444   0.191  -2.556  0.00  0.00    +0.007 C 
ENDBRANCH  32  34
ENDBRANCH  27  32
ENDBRANCH   1  27
TORSDOF 8
