REMARK  Name = ZINC21315042
REMARK  7 active torsions:
REMARK  status: ('A' for Active; 'I' for Inactive)
REMARK    1  A    between atoms: C_1  and  C_2
REMARK    2  A    between atoms: C_2  and  O_3
REMARK    3  A    between atoms: O_3  and  C_4
REMARK    4  A    between atoms: C_7  and  C_10
REMARK    5  A    between atoms: N_15  and  C_16
REMARK    6  A    between atoms: C_16  and  C_17
REMARK    7  A    between atoms: C_30  and  C_32
REMARK                            x       y       z     vdW  Elec       q    Type
REMARK                         _______ _______ _______ _____ _____    ______ ____
ROOT
ATOM      1  C   UNL     1      -1.604  -1.536  -3.018  0.00  0.00    +0.204 C 
ATOM      2  O   UNL     1      -2.669  -1.812  -2.507  0.00  0.00    -0.277 OA
ATOM      3  N   UNL     1      -1.355  -1.895  -4.293  0.00  0.00    -0.259 N 
ATOM      4  C   UNL     1      -0.132  -1.578  -4.898  0.00  0.00    +0.058 A 
ATOM      5  C   UNL     1       0.156  -0.273  -5.268  0.00  0.00    +0.025 A 
ATOM      6  C   UNL     1       1.354   0.017  -5.893  0.00  0.00    +0.002 A 
ATOM      7  C   UNL     1       2.267  -0.990  -6.153  0.00  0.00    +0.002 A 
ATOM      8  C   UNL     1       1.993  -2.305  -5.771  0.00  0.00    +0.025 A 
ATOM      9  C   UNL     1       0.798  -2.596  -5.135  0.00  0.00    +0.055 A 
ATOM     10  N   UNL     1       0.504  -3.900  -4.716  0.00  0.00    -0.284 N 
ATOM     11  C   UNL     1      -0.689  -4.463  -5.011  0.00  0.00    +0.219 C 
ATOM     12  O   UNL     1      -0.958  -5.563  -4.576  0.00  0.00    -0.275 OA
ATOM     13  C   UNL     1      -1.686  -3.736  -5.874  0.00  0.00    +0.128 C 
ATOM     14  C   UNL     1      -2.358  -2.618  -5.074  0.00  0.00    +0.194 C 
ATOM     15  H   UNL     1       1.247  -4.474  -4.143  0.00  0.00    +0.155 HD
ENDROOT
BRANCH  14  16
ATOM     16  C   UNL     1      -3.049  -1.650  -6.037  0.00  0.00    +0.409 C 
ATOM     17  F   UNL     1      -2.098  -1.092  -6.899  0.00  0.00    -0.169 F 
ATOM     18  F   UNL     1      -4.008  -2.340  -6.785  0.00  0.00    -0.169 F 
ATOM     19  F   UNL     1      -3.671  -0.631  -5.307  0.00  0.00    -0.169 F 
ENDBRANCH  14  16
BRANCH   1  20
ATOM     20  C   UNL     1      -0.560  -0.791  -2.227  0.00  0.00    +0.020 C 
BRANCH  20  25
ATOM     21  C   UNL     1       0.002  -0.004   0.002  0.00  0.00    -0.037 C 
ATOM     22  C   UNL     1      -0.273  -0.540   1.419  0.00  0.00    -0.013 C 
ATOM     23  C   UNL     1      -1.545  -1.408   1.282  0.00  0.00    -0.020 C 
ATOM     24  C   UNL     1      -1.562  -1.762  -0.226  0.00  0.00    -0.077 C 
ATOM     25  N   UNL     1      -1.071  -0.518  -0.877  0.00  0.00    +0.390 N 
ATOM     26  H   UNL     1      -1.875   0.221  -1.009  0.00  0.00    -0.080 HD
BRANCH  21  30
ATOM     27  C   UNL     1      -0.056   4.269   0.025  0.00  0.00    +0.121 A 
ATOM     28  C   UNL     1       1.154   3.591   0.010  0.00  0.00    +0.046 A 
ATOM     29  C   UNL     1       1.170   2.209   0.003  0.00  0.00    +0.005 A 
ATOM     30  C   UNL     1      -0.018   1.503   0.010  0.00  0.00    -0.061 A 
ATOM     31  C   UNL     1      -1.226   2.177   0.020  0.00  0.00    +0.005 A 
ATOM     32  C   UNL     1      -1.247   3.558   0.033  0.00  0.00    +0.046 A 
BRANCH  27  33
ATOM     33  O   UNL     1      -0.074   5.628   0.033  0.00  0.00    -0.492 OA
BRANCH  33  35
ATOM     34  C   UNL     1      -1.176   7.779   0.056  0.00  0.00    +0.048 C 
ATOM     35  C   UNL     1      -1.356   6.259   0.049  0.00  0.00    +0.225 C 
ENDBRANCH  33  35
ENDBRANCH  27  33
ENDBRANCH  21  30
ENDBRANCH  20  25
ENDBRANCH   1  20
TORSDOF 6
