REMARK  Name = ZINC10001259
REMARK  12 active torsions:
REMARK  status: ('A' for Active; 'I' for Inactive)
REMARK    1  A    between atoms: C_1  and  C_2
REMARK    2  A    between atoms: C_2  and  C_3
REMARK    3  A    between atoms: C_2  and  C_4
REMARK    4  A    between atoms: C_4  and  C_5
REMARK    5  A    between atoms: C_5  and  C_7
REMARK    6  A    between atoms: C_5  and  N_22
REMARK    7  A    between atoms: N_9  and  N_10
REMARK    8  A    between atoms: C_11  and  C_12
REMARK    9  A    between atoms: C_16  and  O_19
REMARK   10  A    between atoms: C_17  and  O_18
REMARK   11  A    between atoms: O_19  and  C_20
REMARK   12  A    between atoms: C_23  and  C_25
REMARK                            x       y       z     vdW  Elec       q    Type
REMARK                         _______ _______ _______ _____ _____    ______ ____
ROOT
ATOM      1  C   UNL     1       3.368   6.378   0.385  0.00  0.00    +0.253 C 
ATOM      2  O   UNL     1       4.320   5.642   0.229  0.00  0.00    -0.272 OA
ATOM      3  N   UNL     1       2.218   5.894   0.893  0.00  0.00    -0.205 N 
ATOM      4  H   UNL     1       1.472   6.491   1.061  0.00  0.00    +0.177 HD
ENDROOT
BRANCH   3   5
ATOM      5  N   UNL     1       2.099   4.527   1.178  0.00  0.00    -0.188 NA
ATOM      6  C   UNL     1       0.991   4.060   1.668  0.00  0.00    +0.142 C 
BRANCH   6   7
ATOM      7  C   UNL     1       0.866   2.623   1.968  0.00  0.00    +0.041 A 
ATOM      8  C   UNL     1      -0.326   2.117   2.495  0.00  0.00    +0.028 A 
ATOM      9  C   UNL     1      -0.439   0.771   2.774  0.00  0.00    +0.022 A 
ATOM     10  C   UNL     1       0.624  -0.085   2.535  0.00  0.00    +0.064 A 
ATOM     11  C   UNL     1       1.811   0.404   2.012  0.00  0.00    +0.163 A 
ATOM     12  C   UNL     1       1.939   1.758   1.726  0.00  0.00    +0.167 A 
ATOM     13 BR   UNL     1      -2.053   0.090   3.488  0.00  0.00    -0.050 Br
BRANCH  12  14
ATOM     14  O   UNL     1       3.102   2.240   1.213  0.00  0.00    -0.503 OA
ATOM     15  H   UNL     1       3.138   2.235   0.247  0.00  0.00    +0.292 HD
ENDBRANCH  12  14
BRANCH  11  16
ATOM     16  O   UNL     1       2.850  -0.442   1.778  0.00  0.00    -0.491 OA
ATOM     17  C   UNL     1       2.648  -1.821   2.095  0.00  0.00    +0.277 C 
ENDBRANCH  11  16
ENDBRANCH   6   7
ENDBRANCH   3   5
BRANCH   1  18
ATOM     18  C   UNL     1       3.472   7.834   0.010  0.00  0.00    +0.161 C 
BRANCH  18  19
ATOM     19  N   UNL     1       4.876   8.178  -0.227  0.00  0.00    -0.300 N 
ATOM     20  C   UNL     1       5.279   9.462  -0.145  0.00  0.00    +0.245 C 
ATOM     21  O   UNL     1       4.497  10.322   0.212  0.00  0.00    -0.270 OA
ATOM     22  H   UNL     1       5.516   7.482  -0.443  0.00  0.00    +0.150 HD
BRANCH  20  23
ATOM     23  C   UNL     1       6.670   9.823  -0.488  0.00  0.00    +0.037 A 
ATOM     24  C   UNL     1       7.571   8.837  -0.893  0.00  0.00    +0.014 A 
ATOM     25  C   UNL     1       8.866   9.181  -1.218  0.00  0.00    +0.021 A 
ATOM     26  C   UNL     1       9.277  10.502  -1.132  0.00  0.00    +0.041 A 
ATOM     27  C   UNL     1       8.389  11.484  -0.726  0.00  0.00    +0.021 A 
ATOM     28  C   UNL     1       7.090  11.152  -0.404  0.00  0.00    +0.014 A 
ATOM     29 CL   UNL     1      10.911  10.927  -1.536  0.00  0.00    -0.084 Cl
ENDBRANCH  20  23
ENDBRANCH  18  19
BRANCH  18  30
ATOM     30  C   UNL     1       2.662   8.092  -1.262  0.00  0.00    +0.034 C 
BRANCH  30  32
ATOM     31  C   UNL     1       0.620   8.755   0.016  0.00  0.00    +0.007 C 
ATOM     32  C   UNL     1       1.190   7.767  -1.003  0.00  0.00    -0.015 C 
ATOM     33  C   UNL     1       0.406   7.876  -2.313  0.00  0.00    +0.007 C 
ENDBRANCH  30  32
ENDBRANCH  18  30
ENDBRANCH   1  18
TORSDOF 9
