REMARK  Name = ZINC08791570
REMARK  7 active torsions:
REMARK  status: ('A' for Active; 'I' for Inactive)
REMARK    1  A    between atoms: C_1  and  C_2
REMARK    2  A    between atoms: C_16  and  C_18
REMARK    3  A    between atoms: C_18  and  C_19
REMARK    4  A    between atoms: N_31  and  C_34
REMARK    5  A    between atoms: C_34  and  C_35
REMARK    6  A    between atoms: C_35  and  O_36
REMARK    7  A    between atoms: O_36  and  C_37
REMARK                            x       y       z     vdW  Elec       q    Type
REMARK                         _______ _______ _______ _____ _____    ______ ____
ROOT
ATOM      1  C   UNL     1       4.704  -0.773   6.772  0.00  0.00    +0.045 C 
ATOM      2  C   UNL     1       4.540  -1.118   5.314  0.00  0.00    -0.029 A 
ATOM      3  C   UNL     1       5.637  -1.501   4.570  0.00  0.00    +0.005 A 
ATOM      4  C   UNL     1       5.496  -1.819   3.232  0.00  0.00    +0.001 A 
ATOM      5  C   UNL     1       4.249  -1.752   2.635  0.00  0.00    +0.004 A 
ATOM      6  C   UNL     1       3.152  -1.371   3.374  0.00  0.00    -0.027 A 
ATOM      7  C   UNL     1       3.281  -1.048   4.722  0.00  0.00    +0.039 A 
ATOM      8  N   UNL     1       2.040  -0.693   5.254  0.00  0.00    -0.286 N 
ATOM      9  C   UNL     1       1.056  -0.757   4.336  0.00  0.00    +0.211 C 
ATOM     10  O   UNL     1      -0.117  -0.505   4.513  0.00  0.00    -0.277 OA
ATOM     11  C   UNL     1       1.695  -1.200   3.049  0.00  0.00    +0.050 C 
ATOM     12  C   UNL     1       1.077  -2.508   2.538  0.00  0.00    +0.088 C 
ATOM     13  C   UNL     1       0.046  -2.059   1.464  0.00  0.00    +0.073 C 
ATOM     14  C   UNL     1       0.148  -0.520   1.435  0.00  0.00    -0.053 C 
ATOM     15  C   UNL     1       0.597  -2.622   0.174  0.00  0.00    +0.224 C 
ATOM     16  O   UNL     1       0.089  -2.493  -0.919  0.00  0.00    -0.275 OA
ATOM     17  N   UNL     1       1.744  -3.285   0.446  0.00  0.00    -0.240 N 
ATOM     18  C   UNL     1       2.096  -3.288   1.737  0.00  0.00    +0.225 C 
ATOM     19  O   UNL     1       3.079  -3.830   2.194  0.00  0.00    -0.275 OA
ATOM     20  H   UNL     1       1.902  -0.431   6.178  0.00  0.00    +0.155 HD
ATOM     21  N   UNL     1       1.482  -0.245   1.970  0.00  0.00    +0.394 N 
ATOM     22  H   UNL     1       2.192  -0.370   1.238  0.00  0.00    -0.083 HD
ATOM     23  H   UNL     1       1.530   0.716   2.330  0.00  0.00    -0.083 HD
ENDROOT
BRANCH  14  24
ATOM     24  C   UNL     1       0.002  -0.004   0.002  0.00  0.00    +0.022 C 
BRANCH  24  25
ATOM     25  C   UNL     1      -0.018   1.503   0.010  0.00  0.00    -0.024 A 
ATOM     26  C   UNL     1      -1.108   2.287   0.019  0.00  0.00    +0.087 A 
ATOM     27  N   UNL     1      -0.736   3.603   0.029  0.00  0.00    -0.360 N 
ATOM     28  H   UNL     1      -1.348   4.355   0.038  0.00  0.00    +0.165 HD
ATOM     29  C   UNL     1       0.637   3.701   0.016  0.00  0.00    +0.047 A 
ATOM     30  C   UNL     1       1.147   2.390   0.004  0.00  0.00    +0.003 A 
ATOM     31  C   UNL     1       2.527   2.179  -0.011  0.00  0.00    +0.010 A 
ATOM     32  C   UNL     1       3.377   3.250  -0.013  0.00  0.00    +0.001 A 
ATOM     33  C   UNL     1       2.879   4.545  -0.001  0.00  0.00    +0.002 A 
ATOM     34  C   UNL     1       1.521   4.776   0.013  0.00  0.00    +0.026 A 
ENDBRANCH  24  25
ENDBRANCH  14  24
BRANCH  17  35
ATOM     35  C   UNL     1       2.533  -3.954  -0.591  0.00  0.00    +0.144 C 
BRANCH  35  36
ATOM     36  C   UNL     1       2.050  -5.397  -0.748  0.00  0.00    +0.179 C 
BRANCH  36  37
ATOM     37  O   UNL     1       0.706  -5.400  -1.234  0.00  0.00    -0.381 OA
ATOM     38  C   UNL     1       0.157  -6.707  -1.417  0.00  0.00    +0.194 C 
ENDBRANCH  36  37
ENDBRANCH  35  36
ENDBRANCH  17  35
TORSDOF 5
