REMARK  Name = ZINC36159556
REMARK  13 active torsions:
REMARK  status: ('A' for Active; 'I' for Inactive)
REMARK    1  A    between atoms: C_1  and  C_2
REMARK    2  A    between atoms: C_7  and  O_8
REMARK    3  A    between atoms: O_8  and  C_9
REMARK    4  A    between atoms: C_9  and  C_10
REMARK    5  A    between atoms: C_10  and  C_12
REMARK    6  A    between atoms: C_10  and  O_33
REMARK    7  A    between atoms: C_12  and  N_13
REMARK    8  A    between atoms: N_13  and  C_14
REMARK    9  A    between atoms: N_13  and  C_18
REMARK   10  A    between atoms: C_14  and  C_15
REMARK   11  A    between atoms: C_15  and  O_16
REMARK   12  A    between atoms: O_16  and  C_17
REMARK   13  A    between atoms: C_18  and  C_19
REMARK                            x       y       z     vdW  Elec       q    Type
REMARK                         _______ _______ _______ _____ _____    ______ ____
ROOT
ATOM      1  N   UNL     1      -0.040   0.230   7.355  0.00  0.00    +0.388 N 
ATOM      2  H   UNL     1       0.579   1.023   7.434  0.00  0.00    -0.081 HD
ENDROOT
BRANCH   1   3
ATOM      3  C   UNL     1       0.244  -0.491   6.107  0.00  0.00    -0.043 C 
BRANCH   3   4
ATOM      4  C   UNL     1       0.149   0.477   4.926  0.00  0.00    +0.135 C 
BRANCH   4   5
ATOM      5  O   UNL     1       1.177   1.464   5.035  0.00  0.00    -0.390 OA
ATOM      6  H   UNL     1       2.073   1.100   5.034  0.00  0.00    +0.210 HD
ENDBRANCH   4   5
BRANCH   4   7
ATOM      7  C   UNL     1       0.321  -0.297   3.617  0.00  0.00    +0.258 C 
BRANCH   7   8
ATOM      8  O   UNL     1       0.117   0.585   2.512  0.00  0.00    -0.489 OA
BRANCH   8  15
ATOM      9  C   UNL     1      -0.283   2.312   0.312  0.00  0.00    +0.047 C 
ATOM     10  C   UNL     1       0.050   0.851   0.149  0.00  0.00    -0.009 A 
ATOM     11  C   UNL     1       0.176   0.308  -1.115  0.00  0.00    +0.007 A 
ATOM     12  C   UNL     1       0.481  -1.032  -1.266  0.00  0.00    +0.000 A 
ATOM     13  C   UNL     1       0.660  -1.832  -0.153  0.00  0.00    +0.004 A 
ATOM     14  C   UNL     1       0.536  -1.294   1.113  0.00  0.00    +0.046 A 
ATOM     15  C   UNL     1       0.235   0.052   1.267  0.00  0.00    +0.124 A 
ENDBRANCH   8  15
ENDBRANCH   7   8
ENDBRANCH   4   7
ENDBRANCH   3   4
ENDBRANCH   1   3
BRANCH   1  16
ATOM     16  C   UNL     1      -1.433   0.696   7.345  0.00  0.00    -0.050 C 
BRANCH  16  17
ATOM     17  C   UNL     1      -1.688   1.568   8.576  0.00  0.00    +0.141 C 
BRANCH  17  18
ATOM     18  O   UNL     1      -0.891   2.751   8.496  0.00  0.00    -0.385 OA
ATOM     19  C   UNL     1      -1.137   3.690   9.544  0.00  0.00    +0.193 C 
ENDBRANCH  17  18
ENDBRANCH  16  17
ENDBRANCH   1  16
BRANCH   1  20
ATOM     20  C   UNL     1       0.168  -0.668   8.498  0.00  0.00    -0.003 C 
BRANCH  20  21
ATOM     21  C   UNL     1       1.631  -1.011   8.608  0.00  0.00    +0.094 A 
ATOM     22  N   UNL     1       2.033  -1.934   9.520  0.00  0.00    -0.312 N 
ATOM     23  H   UNL     1       1.371  -2.360  10.088  0.00  0.00    +0.170 HD
ATOM     24  C   UNL     1       3.330  -2.269   9.652  0.00  0.00    +0.260 A 
ATOM     25  O   UNL     1       3.676  -3.099  10.475  0.00  0.00    -0.267 OA
ATOM     26  C   UNL     1       4.296  -1.633   8.806  0.00  0.00    +0.075 A 
ATOM     27  C   UNL     1       5.751  -1.842   8.775  0.00  0.00    -0.023 A 
ATOM     28  C   UNL     1       6.450  -1.118   7.884  0.00  0.00    -0.004 A 
ATOM     29  S   UNL     1       5.235  -0.130   7.042  0.00  0.00    -0.073 S 
ATOM     30  C   UNL     1       3.788  -0.696   7.897  0.00  0.00    +0.116 A 
ATOM     31  N   UNL     1       2.489  -0.419   7.821  0.00  0.00    -0.229 NA
ATOM     32  C   UNL     1       7.925  -1.410   7.946  0.00  0.00    +0.043 C 
ATOM     33  C   UNL     1       8.124  -2.116   9.305  0.00  0.00    +0.010 C 
ATOM     34  C   UNL     1       6.731  -2.732   9.545  0.00  0.00    +0.037 C 
ENDBRANCH  20  21
ENDBRANCH   1  20
TORSDOF 11
