REMARK  Name = ZINC08858846
REMARK  4 active torsions:
REMARK  status: ('A' for Active; 'I' for Inactive)
REMARK    1  A    between atoms: C_4  and  N_7
REMARK    2  A    between atoms: C_8  and  C_9
REMARK    3  A    between atoms: N_19  and  N_20
REMARK    4  A    between atoms: N_20  and  C_21
REMARK                            x       y       z     vdW  Elec       q    Type
REMARK                         _______ _______ _______ _____ _____    ______ ____
ROOT
ATOM      1  N   UNL     1       3.549  -0.686   0.063  0.00  0.00    -0.229 NA
ATOM      2  C   UNL     1       3.779  -1.678   0.888  0.00  0.00    +0.161 C 
ATOM      3  N   UNL     1       2.801  -2.079   1.772  0.00  0.00    -0.249 N 
ATOM      4  H   UNL     1       1.960  -1.597   1.816  0.00  0.00    +0.171 HD
ENDROOT
BRANCH   2   5
ATOM      5  C   UNL     1       5.088  -2.367   0.870  0.00  0.00    +0.106 A 
ATOM      6  C   UNL     1       6.113  -1.874   0.046  0.00  0.00    +0.032 A 
ATOM      7  C   UNL     1       7.324  -2.500   0.021  0.00  0.00    +0.012 A 
ATOM      8  C   UNL     1       7.505  -3.635   0.835  0.00  0.00    +0.000 A 
ATOM      9  C   UNL     1       8.727  -4.327   0.859  0.00  0.00    +0.010 A 
ATOM     10  C   UNL     1       8.866  -5.420   1.658  0.00  0.00    +0.001 A 
ATOM     11  C   UNL     1       7.812  -5.863   2.455  0.00  0.00    +0.002 A 
ATOM     12  C   UNL     1       6.615  -5.218   2.458  0.00  0.00    +0.028 A 
ATOM     13  C   UNL     1       6.431  -4.083   1.646  0.00  0.00    +0.072 A 
ATOM     14  N   UNL     1       5.269  -3.429   1.634  0.00  0.00    -0.244 NA
ENDBRANCH   2   5
BRANCH   1  18
ATOM     15  C   UNL     1      -0.172   1.119  -0.019  0.00  0.00    +0.000 A 
ATOM     16  C   UNL     1       0.956   1.878   0.239  0.00  0.00    +0.002 A 
ATOM     17  C   UNL     1       2.200   1.283   0.268  0.00  0.00    +0.028 A 
ATOM     18  C   UNL     1       2.319  -0.089   0.036  0.00  0.00    +0.066 A 
ATOM     19  C   UNL     1       1.176  -0.850  -0.224  0.00  0.00    +0.028 A 
ATOM     20  C   UNL     1      -0.061  -0.241  -0.250  0.00  0.00    +0.002 A 
ENDBRANCH   1  18
BRANCH   3  21
ATOM     21  N   UNL     1       3.022  -3.182   2.607  0.00  0.00    -0.272 N 
ATOM     22  H   UNL     1       3.892  -3.611   2.624  0.00  0.00    +0.169 HD
BRANCH  21  23
ATOM     23  C   UNL     1       2.030  -3.645   3.382  0.00  0.00    +0.099 C 
ATOM     24  C   UNL     1       2.279  -4.673   4.295  0.00  0.00    +0.038 C 
ATOM     25  C   UNL     1       3.590  -5.154   4.500  0.00  0.00    +0.028 C 
ATOM     26  C   UNL     1       3.812  -6.156   5.393  0.00  0.00    +0.019 C 
ATOM     27  C   UNL     1       2.770  -6.727   6.119  0.00  0.00    +0.019 C 
ATOM     28  C   UNL     1       1.483  -6.308   5.968  0.00  0.00    +0.052 C 
ATOM     29  C   UNL     1       1.183  -5.273   5.066  0.00  0.00    +0.187 C 
ATOM     30  O   UNL     1       0.032  -4.884   4.923  0.00  0.00    -0.287 OA
ATOM     31 BR   UNL     1       5.575  -6.787   5.654  0.00  0.00    -0.050 Br
ENDBRANCH  21  23
ENDBRANCH   3  21
TORSDOF 4
