REMARK  Name = ZINC40683365
REMARK  5 active torsions:
REMARK  status: ('A' for Active; 'I' for Inactive)
REMARK    1  A    between atoms: C_10  and  O_11
REMARK    2  A    between atoms: O_11  and  C_12
REMARK    3  A    between atoms: C_13  and  N_29
REMARK    4  A    between atoms: C_14  and  N_18
REMARK    5  A    between atoms: N_18  and  C_19
REMARK                            x       y       z     vdW  Elec       q    Type
REMARK                         _______ _______ _______ _____ _____    ______ ____
ROOT
ATOM      1  C   UNL     1       6.000  -0.617   0.015  0.00  0.00    +0.246 A 
ATOM      2  C   UNL     1       7.220   0.048   0.128  0.00  0.00    +0.128 A 
ATOM      3  C   UNL     1       8.382  -0.720   0.240  0.00  0.00    +0.151 A 
ATOM      4  N   UNL     1       8.281  -2.046   0.234  0.00  0.00    -0.218 NA
ATOM      5  C   UNL     1       7.107  -2.634   0.126  0.00  0.00    +0.227 A 
ATOM      6  N   UNL     1       5.987  -1.947   0.023  0.00  0.00    -0.199 NA
ENDROOT
BRANCH   2   7
ATOM      7  N   UNL     1       7.279   1.450   0.129  0.00  0.00    -0.351 N 
ATOM      8  H   UNL     1       6.464   1.970   0.050  0.00  0.00    +0.143 HD
ATOM      9  H   UNL     1       8.136   1.899   0.208  0.00  0.00    +0.143 HD
ENDBRANCH   2   7
BRANCH   3  10
ATOM     10  N   UNL     1       9.625  -0.107   0.354  0.00  0.00    -0.297 N 
ATOM     11  H   UNL     1       9.684   0.857   0.444  0.00  0.00    +0.154 HD
BRANCH  10  12
ATOM     12  C   UNL     1      10.785  -0.877   0.339  0.00  0.00    +0.042 A 
ATOM     13  C   UNL     1      10.792  -2.114  -0.273  0.00  0.00    +0.024 A 
ATOM     14  C   UNL     1      11.947  -2.889  -0.291  0.00  0.00    +0.004 A 
ATOM     15  C   UNL     1      13.098  -2.452   0.291  0.00  0.00    +0.028 A 
ATOM     16  C   UNL     1      13.135  -1.198   0.925  0.00  0.00    +0.073 A 
ATOM     17  C   UNL     1      11.966  -0.399   0.945  0.00  0.00    +0.022 A 
ATOM     18  C   UNL     1      12.007   0.856   1.575  0.00  0.00    +0.013 A 
ATOM     19  C   UNL     1      13.186   1.255   2.141  0.00  0.00    +0.020 A 
ATOM     20  C   UNL     1      14.301   0.424   2.083  0.00  0.00    +0.111 A 
ATOM     21  N   UNL     1      14.255  -0.752   1.504  0.00  0.00    -0.255 NA
ENDBRANCH  10  12
ENDBRANCH   3  10
BRANCH   1  22
ATOM     22  O   UNL     1       4.842   0.082  -0.095  0.00  0.00    -0.436 OA
BRANCH  22  32
ATOM     23  C   UNL     1       1.974  -1.956   3.485  0.00  0.00    +0.001 A 
ATOM     24  C   UNL     1       3.172  -1.244   3.505  0.00  0.00    +0.001 A 
ATOM     25  C   UNL     1       3.741  -0.799   2.351  0.00  0.00    +0.012 A 
ATOM     26  C   UNL     1       3.115  -1.058   1.121  0.00  0.00    +0.024 A 
ATOM     27  C   UNL     1       1.896  -1.781   1.100  0.00  0.00    -0.014 A 
ATOM     28  C   UNL     1       1.338  -2.225   2.312  0.00  0.00    +0.008 A 
ATOM     29  C   UNL     1       1.269  -2.042  -0.129  0.00  0.00    +0.009 A 
ATOM     30  C   UNL     1       1.833  -1.600  -1.287  0.00  0.00    +0.004 A 
ATOM     31  C   UNL     1       3.030  -0.890  -1.278  0.00  0.00    +0.047 A 
ATOM     32  C   UNL     1       3.675  -0.613  -0.093  0.00  0.00    +0.138 A 
ENDBRANCH  22  32
ENDBRANCH   1  22
TORSDOF 5
