REMARK  Name = ZINC35523543
REMARK  9 active torsions:
REMARK  status: ('A' for Active; 'I' for Inactive)
REMARK    1  A    between atoms: C_1  and  C_2
REMARK    2  A    between atoms: C_2  and  C_3
REMARK    3  A    between atoms: C_2  and  C_4
REMARK    4  A    between atoms: C_4  and  C_5
REMARK    5  A    between atoms: C_5  and  N_6
REMARK    6  A    between atoms: C_7  and  C_9
REMARK    7  A    between atoms: C_12  and  C_14
REMARK    8  A    between atoms: C_14  and  N_15
REMARK    9  A    between atoms: C_23  and  C_25
REMARK                            x       y       z     vdW  Elec       q    Type
REMARK                         _______ _______ _______ _____ _____    ______ ____
ROOT
ATOM      1  N   UNL     1       5.246  -3.905  -6.789  0.00  0.00    +0.394 N 
ATOM      2  C   UNL     1       6.659  -4.115  -6.451  0.00  0.00    -0.055 C 
ATOM      3  C   UNL     1       6.859  -5.536  -5.908  0.00  0.00    +0.103 C 
ATOM      4  N   UNL     1       6.245  -6.475  -6.855  0.00  0.00    -0.353 N 
ATOM      5  C   UNL     1       6.431  -7.815  -6.949  0.00  0.00    +0.086 A 
ATOM      6  C   UNL     1       5.671  -8.275  -7.967  0.00  0.00    +0.019 A 
ATOM      7  C   UNL     1       4.989  -7.170  -8.520  0.00  0.00    +0.021 A 
ATOM      8  C   UNL     1       5.355  -6.085  -7.822  0.00  0.00    +0.009 A 
ATOM      9  C   UNL     1       4.904  -4.657  -8.009  0.00  0.00    +0.014 C 
ATOM     10  H   UNL     1       4.668  -4.225  -6.026  0.00  0.00    -0.080 HD
ENDROOT
BRANCH   9  11
ATOM     11  C   UNL     1       3.414  -4.619  -8.229  0.00  0.00    -0.020 A 
ATOM     12  C   UNL     1       2.567  -4.317  -7.179  0.00  0.00    +0.008 A 
ATOM     13  C   UNL     1       1.201  -4.281  -7.380  0.00  0.00    +0.039 A 
ATOM     14  C   UNL     1       0.677  -4.549  -8.634  0.00  0.00    +0.126 A 
ATOM     15  C   UNL     1       1.524  -4.851  -9.686  0.00  0.00    +0.077 A 
ATOM     16  C   UNL     1       2.893  -4.881  -9.485  0.00  0.00    +0.128 A 
ATOM     17  F   UNL     1       3.721  -5.171 -10.513  0.00  0.00    -0.205 F 
ATOM     18  F   UNL     1      -0.659  -4.514  -8.829  0.00  0.00    -0.205 F 
ENDBRANCH   9  11
BRANCH   1  19
ATOM     19  C   UNL     1       5.006  -2.474  -7.016  0.00  0.00    -0.002 C 
BRANCH  19  23
ATOM     20  C   UNL     1       4.870  -0.759  -3.794  0.00  0.00    +0.189 A 
ATOM     21  C   UNL     1       6.190  -0.572  -4.092  0.00  0.00    +0.055 A 
ATOM     22  C   UNL     1       6.414  -1.187  -5.334  0.00  0.00    +0.043 A 
ATOM     23  C   UNL     1       5.237  -1.716  -5.734  0.00  0.00    +0.090 A 
ATOM     24  O   UNL     1       4.311  -1.461  -4.801  0.00  0.00    -0.457 OA
BRANCH  20  26
ATOM     25  N   UNL     1       2.873  -0.545  -2.413  0.00  0.00    -0.309 N 
ATOM     26  C   UNL     1       4.184  -0.286  -2.587  0.00  0.00    +0.279 C 
ATOM     27  O   UNL     1       4.798   0.340  -1.744  0.00  0.00    -0.267 OA
ATOM     28  H   UNL     1       2.384  -1.045  -3.085  0.00  0.00    +0.149 HD
BRANCH  25  29
ATOM     29  C   UNL     1       2.187  -0.073  -1.207  0.00  0.00    +0.105 C 
BRANCH  29  30
ATOM     30  C   UNL     1       0.718  -0.497  -1.257  0.00  0.00    +0.022 C 
BRANCH  30  32
ATOM     31  C   UNL     1      -0.019   1.526   0.010  0.00  0.00    +0.007 C 
ATOM     32  C   UNL     1       0.002  -0.004   0.002  0.00  0.00    -0.016 C 
ATOM     33  C   UNL     1      -1.433  -0.534   0.013  0.00  0.00    +0.007 C 
ENDBRANCH  30  32
ENDBRANCH  29  30
ENDBRANCH  25  29
ENDBRANCH  20  26
ENDBRANCH  19  23
ENDBRANCH   1  19
TORSDOF 7
