REMARK  Name = ZINC04094766
REMARK  5 active torsions:
REMARK  status: ('A' for Active; 'I' for Inactive)
REMARK    1  A    between atoms: C_1  and  S_2
REMARK    2  A    between atoms: S_2  and  C_3
REMARK    3  A    between atoms: C_4  and  C_17
REMARK    4  A    between atoms: C_11  and  C_15
REMARK    5  A    between atoms: C_12  and  N_14
REMARK                            x       y       z     vdW  Elec       q    Type
REMARK                         _______ _______ _______ _____ _____    ______ ____
ROOT
ATOM      1  C   UNL     1       2.382  -0.055  -0.321  0.00  0.00    +0.075 C 
ATOM      2  C   UNL     1       2.423   1.302  -0.409  0.00  0.00    +0.053 C 
ATOM      3  C   UNL     1       1.223   2.149  -0.085  0.00  0.00    +0.041 C 
ATOM      4  C   UNL     1       1.419   2.798   1.289  0.00  0.00    +0.017 C 
ATOM      5  C   UNL     1       0.204   3.668   1.619  0.00  0.00    +0.001 C 
ATOM      6  C   UNL     1       0.057   4.763   0.560  0.00  0.00    +0.000 C 
ATOM      7  C   UNL     1      -0.133   4.119  -0.814  0.00  0.00    +0.001 C 
ATOM      8  C   UNL     1       1.082   3.249  -1.143  0.00  0.00    +0.017 C 
ATOM      9  C   UNL     1      -0.026   1.313  -0.067  0.00  0.00    +0.075 C 
ATOM     10  C   UNL     1       0.023  -0.041   0.007  0.00  0.00    +0.100 C 
ATOM     11  N   UNL     1       1.230  -0.700   0.060  0.00  0.00    -0.297 N 
ATOM     12  H   UNL     1       1.272  -1.742   0.408  0.00  0.00    +0.154 HD
ENDROOT
BRANCH   2  13
ATOM     13  C   UNL     1       3.613   1.927  -0.811  0.00  0.00    +0.241 C 
ATOM     14  O   UNL     1       4.347   2.433   0.020  0.00  0.00    -0.271 OA
ATOM     15  N   UNL     1       3.945   1.966  -2.117  0.00  0.00    -0.326 N 
ATOM     16  H   UNL     1       4.878   2.456  -2.432  0.00  0.00    +0.145 HD
ATOM     17  H   UNL     1       3.283   1.509  -2.867  0.00  0.00    +0.145 HD
ENDBRANCH   2  13
BRANCH  10  18
ATOM     18  N   UNL     1      -1.146  -0.762   0.030  0.00  0.00    -0.346 N 
ATOM     19  H   UNL     1      -1.113  -1.860   0.091  0.00  0.00    +0.143 HD
ATOM     20  H   UNL     1      -2.114  -0.242  -0.012  0.00  0.00    +0.143 HD
ENDBRANCH  10  18
BRANCH   1  22
ATOM     21  C   UNL     1       3.189  -2.668  -0.419  0.00  0.00    +0.091 C 
ATOM     22  S   UNL     1       3.822  -0.996  -0.701  0.00  0.00    -0.113 S 
ENDBRANCH   1  22
BRANCH   9  23
ATOM     23  C   UNL     1      -1.301   1.962  -0.137  0.00  0.00    +0.099 C 
ATOM     24  N   UNL     1      -2.312   2.477  -0.192  0.00  0.00    -0.191 NA
ENDBRANCH   9  23
TORSDOF 4
