REMARK  Name = ZINC35048275
REMARK  13 active torsions:
REMARK  status: ('A' for Active; 'I' for Inactive)
REMARK    1  A    between atoms: N_9  and  C_10
REMARK    2  A    between atoms: C_10  and  C_11
REMARK    3  A    between atoms: C_11  and  C_13
REMARK    4  A    between atoms: C_11  and  O_36
REMARK    5  A    between atoms: C_13  and  N_14
REMARK    6  A    between atoms: N_14  and  C_15
REMARK    7  A    between atoms: N_14  and  C_18
REMARK    8  A    between atoms: C_15  and  C_16
REMARK    9  A    between atoms: C_16  and  O_17
REMARK   10  A    between atoms: C_18  and  C_19
REMARK   11  A    between atoms: C_19  and  C_21
REMARK   12  A    between atoms: C_19  and  O_35
REMARK   13  A    between atoms: C_21  and  N_22
REMARK                            x       y       z     vdW  Elec       q    Type
REMARK                         _______ _______ _______ _____ _____    ______ ____
ROOT
ATOM      1  N   UNL     1       7.309   0.250   2.763  0.00  0.00    +0.385 N 
ATOM      2  H   UNL     1       7.551  -0.448   3.450  0.00  0.00    -0.082 HD
ENDROOT
BRANCH   1   3
ATOM      3  C   UNL     1       6.653  -0.398   1.619  0.00  0.00    -0.045 C 
BRANCH   3   4
ATOM      4  C   UNL     1       5.423  -1.167   2.104  0.00  0.00    +0.118 C 
BRANCH   4   5
ATOM      5  O   UNL     1       5.833  -2.214   2.985  0.00  0.00    -0.392 OA
ATOM      6  H   UNL     1       6.430  -2.858   2.580  0.00  0.00    +0.210 HD
ENDBRANCH   4   5
BRANCH   4   7
ATOM      7  C   UNL     1       4.690  -1.768   0.903  0.00  0.00    +0.151 C 
BRANCH   7  16
ATOM      8  C   UNL     1      -0.374  -1.031   2.090  0.00  0.00    +0.001 A 
ATOM      9  C   UNL     1       0.541  -0.079   1.661  0.00  0.00    +0.002 A 
ATOM     10  C   UNL     1       1.844  -0.430   1.387  0.00  0.00    +0.026 A 
ATOM     11  C   UNL     1       2.251  -1.752   1.542  0.00  0.00    +0.049 A 
ATOM     12  C   UNL     1       1.320  -2.712   1.977  0.00  0.00    -0.000 A 
ATOM     13  C   UNL     1       0.004  -2.334   2.248  0.00  0.00    +0.010 A 
ATOM     14  C   UNL     1       2.048  -3.982   2.037  0.00  0.00    +0.027 A 
ATOM     15  C   UNL     1       3.310  -3.730   1.654  0.00  0.00    +0.087 A 
ATOM     16  N   UNL     1       3.450  -2.403   1.355  0.00  0.00    -0.344 N 
ENDBRANCH   7  16
ENDBRANCH   4   7
ENDBRANCH   3   4
ENDBRANCH   1   3
BRANCH   1  17
ATOM     17  C   UNL     1       6.393   1.230   3.362  0.00  0.00    -0.050 C 
BRANCH  17  18
ATOM     18  C   UNL     1       6.146   2.369   2.371  0.00  0.00    +0.137 C 
BRANCH  18  19
ATOM     19  O   UNL     1       5.393   1.879   1.260  0.00  0.00    -0.397 OA
ATOM     20  H   UNL     1       5.199   2.549   0.590  0.00  0.00    +0.209 HD
ENDBRANCH  18  19
ENDBRANCH  17  18
ENDBRANCH   1  17
BRANCH   1  21
ATOM     21  C   UNL     1       8.527   0.933   2.307  0.00  0.00    -0.045 C 
BRANCH  21  22
ATOM     22  C   UNL     1       9.284   1.486   3.516  0.00  0.00    +0.118 C 
BRANCH  22  23
ATOM     23  O   UNL     1       8.518   2.531   4.119  0.00  0.00    -0.392 OA
ATOM     24  H   UNL     1       8.337   3.277   3.530  0.00  0.00    +0.210 HD
ENDBRANCH  22  23
BRANCH  22  25
ATOM     25  C   UNL     1      10.635   2.041   3.061  0.00  0.00    +0.151 C 
BRANCH  25  26
ATOM     26  N   UNL     1      11.409   2.462   4.232  0.00  0.00    -0.337 N 
ATOM     27  C   UNL     1      11.370   3.727   4.792  0.00  0.00    +0.050 A 
ATOM     28  C   UNL     1      10.662   4.877   4.460  0.00  0.00    +0.026 A 
ATOM     29  C   UNL     1      10.819   6.024   5.209  0.00  0.00    +0.002 A 
ATOM     30  C   UNL     1      11.680   6.045   6.295  0.00  0.00    +0.001 A 
ATOM     31  C   UNL     1      12.390   4.915   6.640  0.00  0.00    +0.010 A 
ATOM     32  C   UNL     1      12.241   3.749   5.892  0.00  0.00    +0.008 A 
ATOM     33  C   UNL     1      12.833   2.402   5.985  0.00  0.00    +0.008 A 
ATOM     34  C   UNL     1      12.278   1.651   4.939  0.00  0.00    +0.050 A 
ATOM     35  C   UNL     1      12.656   0.321   4.781  0.00  0.00    +0.026 A 
ATOM     36  C   UNL     1      13.562  -0.247   5.650  0.00  0.00    +0.002 A 
ATOM     37  C   UNL     1      14.106   0.496   6.686  0.00  0.00    +0.001 A 
ATOM     38  C   UNL     1      13.752   1.818   6.853  0.00  0.00    +0.010 A 
ENDBRANCH  25  26
ENDBRANCH  22  25
ENDBRANCH  21  22
ENDBRANCH   1  21
TORSDOF 13
