REMARK  Name = ZINC20291777
REMARK  7 active torsions:
REMARK  status: ('A' for Active; 'I' for Inactive)
REMARK    1  A    between atoms: C_4  and  C_7
REMARK    2  A    between atoms: N_8  and  N_9
REMARK    3  A    between atoms: C_13  and  S_16
REMARK    4  A    between atoms: N_14  and  N_15
REMARK    5  A    between atoms: S_16  and  C_17
REMARK    6  A    between atoms: C_17  and  C_18
REMARK    7  A    between atoms: N_20  and  C_21
REMARK                            x       y       z     vdW  Elec       q    Type
REMARK                         _______ _______ _______ _____ _____    ______ ____
ROOT
ATOM      1  N   UNL     1       4.938  -2.661  -0.036  0.00  0.00    -0.204 N 
ATOM      2  C   UNL     1       4.961  -4.048  -0.047  0.00  0.00    +0.254 A 
ATOM      3  N   UNL     1       3.913  -4.836  -0.040  0.00  0.00    -0.109 NA
ATOM      4  N   UNL     1       4.368  -6.161  -0.057  0.00  0.00    -0.119 NA
ATOM      5  C   UNL     1       5.679  -6.139  -0.072  0.00  0.00    +0.210 A 
ATOM      6  N   UNL     1       6.080  -4.833  -0.072  0.00  0.00    -0.211 N 
ATOM      7  H   UNL     1       5.770  -2.162  -0.046  0.00  0.00    +0.177 HD
ENDROOT
BRANCH   6   8
ATOM      8  N   UNL     1       7.372  -4.390  -0.091  0.00  0.00    -0.294 N 
ATOM      9  H   UNL     1       7.730  -4.279   0.845  0.00  0.00    +0.163 HD
ATOM     10  H   UNL     1       7.958  -5.007  -0.633  0.00  0.00    +0.163 HD
ENDBRANCH   6   8
BRANCH   1  12
ATOM     11  C   UNL     1       3.692  -0.682   0.001  0.00  0.00    +0.138 C 
ATOM     12  N   UNL     1       3.713  -1.981  -0.009  0.00  0.00    -0.188 NA
BRANCH  11  16
ATOM     13  C   UNL     1      -0.017   1.378   0.081  0.00  0.00    +0.000 A 
ATOM     14  C   UNL     1       1.167   2.093   0.066  0.00  0.00    +0.001 A 
ATOM     15  C   UNL     1       2.377   1.430   0.041  0.00  0.00    +0.009 A 
ATOM     16  C   UNL     1       2.403   0.034   0.029  0.00  0.00    -0.005 A 
ATOM     17  C   UNL     1       1.203  -0.682   0.044  0.00  0.00    +0.009 A 
ATOM     18  C   UNL     1       0.002  -0.005   0.070  0.00  0.00    +0.001 A 
ENDBRANCH  11  16
ENDBRANCH   1  12
BRANCH   5  19
ATOM     19  S   UNL     1       6.738  -7.547  -0.097  0.00  0.00    -0.075 S 
BRANCH  19  20
ATOM     20  C   UNL     1       5.596  -8.956  -0.095  0.00  0.00    +0.173 C 
BRANCH  20  21
ATOM     21  C   UNL     1       6.383 -10.241  -0.115  0.00  0.00    +0.227 C 
ATOM     22  O   UNL     1       7.595 -10.210  -0.129  0.00  0.00    -0.275 OA
ATOM     23  N   UNL     1       5.739 -11.425  -0.117  0.00  0.00    -0.285 N 
ATOM     24  H   UNL     1       4.773 -11.452  -0.038  0.00  0.00    +0.155 HD
BRANCH  23  25
ATOM     25  C   UNL     1       6.465 -12.616  -0.234  0.00  0.00    +0.036 A 
ATOM     26  C   UNL     1       5.935 -13.688  -0.939  0.00  0.00    +0.043 A 
ATOM     27  C   UNL     1       6.654 -14.863  -1.052  0.00  0.00    +0.044 A 
ATOM     28  C   UNL     1       7.902 -14.971  -0.464  0.00  0.00    +0.040 A 
ATOM     29  C   UNL     1       8.433 -13.904   0.239  0.00  0.00    +0.044 A 
ATOM     30  C   UNL     1       7.720 -12.725   0.351  0.00  0.00    +0.043 A 
ATOM     31 CL   UNL     1       9.999 -14.044   0.976  0.00  0.00    -0.083 Cl
ATOM     32 CL   UNL     1       5.991 -16.204  -1.933  0.00  0.00    -0.083 Cl
ENDBRANCH  23  25
ENDBRANCH  20  21
ENDBRANCH  19  20
ENDBRANCH   5  19
TORSDOF 7
