REMARK  Name = ZINC13006236
REMARK  9 active torsions:
REMARK  status: ('A' for Active; 'I' for Inactive)
REMARK    1  A    between atoms: C_1  and  C_2
REMARK    2  A    between atoms: C_2  and  C_3
REMARK    3  A    between atoms: C_2  and  C_4
REMARK    4  A    between atoms: C_4  and  N_5
REMARK    5  A    between atoms: N_5  and  C_6
REMARK    6  A    between atoms: C_7  and  N_22
REMARK    7  A    between atoms: N_8  and  C_15
REMARK    8  A    between atoms: C_15  and  C_16
REMARK    9  A    between atoms: C_23  and  C_25
REMARK                            x       y       z     vdW  Elec       q    Type
REMARK                         _______ _______ _______ _____ _____    ______ ____
ROOT
ATOM      1  C   UNL     1       3.774   6.593  -0.010  0.00  0.00    +0.140 A 
ATOM      2  C   UNL     1       4.587   6.642  -1.124  0.00  0.00    +0.128 A 
ATOM      3  N   UNL     1       5.617   7.553  -1.163  0.00  0.00    -0.276 N 
ATOM      4  C   UNL     1       5.836   8.378  -0.124  0.00  0.00    +0.331 A 
ATOM      5  O   UNL     1       6.755   9.173  -0.176  0.00  0.00    -0.246 OA
ATOM      6  N   UNL     1       5.058   8.341   0.972  0.00  0.00    -0.273 N 
ATOM      7  H   UNL     1       5.242   8.966   1.731  0.00  0.00    +0.173 HD
ATOM      8  C   UNL     1       4.032   7.471   1.059  0.00  0.00    +0.277 A 
ATOM      9  O   UNL     1       3.332   7.446   2.058  0.00  0.00    -0.266 OA
ENDROOT
BRANCH   1  10
ATOM     10  N   UNL     1       2.706   5.674   0.059  0.00  0.00    -0.260 N 
ATOM     11  C   UNL     1       2.956   4.349   0.057  0.00  0.00    +0.254 C 
ATOM     12  O   UNL     1       2.036   3.557   0.133  0.00  0.00    -0.270 OA
BRANCH  11  13
ATOM     13  C   UNL     1       4.346   3.860  -0.038  0.00  0.00    +0.074 A 
ATOM     14  C   UNL     1       5.392   4.608   0.506  0.00  0.00    +0.036 A 
ATOM     15  C   UNL     1       6.688   4.146   0.413  0.00  0.00    +0.042 A 
ATOM     16  C   UNL     1       6.954   2.939  -0.213  0.00  0.00    +0.023 A 
ATOM     17  C   UNL     1       5.926   2.195  -0.759  0.00  0.00    +0.040 A 
ATOM     18  C   UNL     1       4.621   2.646  -0.674  0.00  0.00    +0.136 A 
ATOM     19  F   UNL     1       3.616   1.915  -1.204  0.00  0.00    -0.205 F 
ATOM     20 CL   UNL     1       7.989   5.075   1.090  0.00  0.00    -0.084 Cl
ENDBRANCH  11  13
BRANCH  10  21
ATOM     21  C   UNL     1       1.326   6.159   0.133  0.00  0.00    +0.117 C 
BRANCH  21  23
ATOM     22  C   UNL     1      -0.541   6.766   1.678  0.00  0.00    +0.009 C 
ATOM     23  C   UNL     1       0.871   6.184   1.593  0.00  0.00    +0.001 C 
ATOM     24  C   UNL     1       0.870   4.759   2.151  0.00  0.00    +0.009 C 
ENDBRANCH  21  23
ENDBRANCH  10  21
ENDBRANCH   1  10
BRANCH   2  25
ATOM     25  N   UNL     1       4.367   5.795  -2.183  0.00  0.00    -0.343 N 
ATOM     26  H   UNL     1       3.599   5.201  -2.179  0.00  0.00    +0.144 HD
ATOM     27  H   UNL     1       4.979   5.790  -2.936  0.00  0.00    +0.144 HD
ENDBRANCH   2  25
BRANCH   3  28
ATOM     28  C   UNL     1       6.485   7.619  -2.342  0.00  0.00    +0.163 C 
BRANCH  28  29
ATOM     29  C   UNL     1       7.611   6.629  -2.193  0.00  0.00    -0.028 A 
ATOM     30  C   UNL     1       8.745   6.973  -1.481  0.00  0.00    +0.005 A 
ATOM     31  C   UNL     1       9.776   6.063  -1.341  0.00  0.00    +0.000 A 
ATOM     32  C   UNL     1       9.677   4.812  -1.922  0.00  0.00    +0.000 A 
ATOM     33  C   UNL     1       8.545   4.470  -2.638  0.00  0.00    +0.000 A 
ATOM     34  C   UNL     1       7.512   5.378  -2.774  0.00  0.00    +0.005 A 
ENDBRANCH  28  29
ENDBRANCH   3  28
TORSDOF 7
