REMARK  Name = ZINC12151257
REMARK  9 active torsions:
REMARK  status: ('A' for Active; 'I' for Inactive)
REMARK    1  A    between atoms: C_1  and  O_2
REMARK    2  A    between atoms: O_2  and  C_3
REMARK    3  A    between atoms: C_6  and  S_9
REMARK    4  A    between atoms: S_9  and  C_10
REMARK    5  A    between atoms: C_13  and  C_24
REMARK    6  A    between atoms: C_16  and  C_17
REMARK    7  A    between atoms: C_16  and  N_62
REMARK    8  A    between atoms: N_26  and  C_27
REMARK    9  A    between atoms: C_27  and  C_28
REMARK                            x       y       z     vdW  Elec       q    Type
REMARK                         _______ _______ _______ _____ _____    ______ ____
ROOT
ATOM      1  C   UNL     1       1.364  -0.383  -0.615  0.00  0.00    +0.034 C 
ATOM      2  C   UNL     1       0.002  -0.004   0.002  0.00  0.00    +0.006 C 
ATOM      3  C   UNL     1      -0.019   1.540   0.011  0.00  0.00    +0.021 C 
ATOM      4  C   UNL     1       2.051   0.963  -0.928  0.00  0.00    -0.063 C 
ATOM      5  N   UNL     1       1.403   1.901  -0.014  0.00  0.00    +0.391 N 
ATOM      6  H   UNL     1       1.805   1.808   0.926  0.00  0.00    -0.080 HD
ENDROOT
BRANCH   3   7
ATOM      7  C   UNL     1      -0.694   2.049   1.258  0.00  0.00    +0.200 C 
ATOM      8  O   UNL     1      -0.076   2.735   2.044  0.00  0.00    -0.278 OA
ATOM      9  N   UNL     1      -1.984   1.743   1.499  0.00  0.00    -0.311 N 
ATOM     10  H   UNL     1      -2.478   1.194   0.870  0.00  0.00    +0.149 HD
BRANCH   9  11
ATOM     11  C   UNL     1      -2.640   2.238   2.711  0.00  0.00    +0.161 C 
BRANCH  11  12
ATOM     12  C   UNL     1      -4.068   1.757   2.742  0.00  0.00    +0.077 A 
ATOM     13  C   UNL     1      -4.515   0.652   3.378  0.00  0.00    +0.117 A 
ATOM     14  N   UNL     1      -5.863   0.576   3.159  0.00  0.00    -0.306 N 
ATOM     15  C   UNL     1      -6.814  -0.318   3.556  0.00  0.00    +0.092 A 
ATOM     16  C   UNL     1      -8.104  -0.157   3.193  0.00  0.00    +0.018 A 
ATOM     17  C   UNL     1      -8.485   0.937   2.398  0.00  0.00    +0.005 A 
ATOM     18  C   UNL     1      -7.547   1.836   1.995  0.00  0.00    +0.047 A 
ATOM     19  C   UNL     1      -6.204   1.654   2.383  0.00  0.00    +0.138 A 
ATOM     20  N   UNL     1      -5.104   2.356   2.149  0.00  0.00    -0.231 NA
ENDBRANCH  11  12
ENDBRANCH   9  11
ENDBRANCH   3   7
BRANCH   1  21
ATOM     21  S   UNL     1       1.121  -1.336  -2.140  0.00  0.00    -0.124 S 
BRANCH  21  25
ATOM     22  C   UNL     1       5.317  -2.531  -3.365  0.00  0.00    +0.120 A 
ATOM     23  C   UNL     1       4.232  -2.920  -4.137  0.00  0.00    +0.047 A 
ATOM     24  C   UNL     1       2.953  -2.556  -3.765  0.00  0.00    +0.018 A 
ATOM     25  C   UNL     1       2.753  -1.801  -2.616  0.00  0.00    +0.008 A 
ATOM     26  C   UNL     1       3.840  -1.408  -1.846  0.00  0.00    +0.018 A 
ATOM     27  C   UNL     1       5.118  -1.777  -2.218  0.00  0.00    +0.047 A 
BRANCH  22  29
ATOM     28  C   UNL     1       7.646  -2.456  -2.891  0.00  0.00    +0.277 C 
ATOM     29  O   UNL     1       6.576  -2.890  -3.733  0.00  0.00    -0.495 OA
ENDBRANCH  22  29
ENDBRANCH  21  25
ENDBRANCH   1  21
BRANCH   5  30
ATOM     30  C   UNL     1       1.577   3.311  -0.486  0.00  0.00    -0.042 C 
BRANCH  30  31
ATOM     31  C   UNL     1       2.997   3.759  -0.255  0.00  0.00    -0.063 A 
ATOM     32  C   UNL     1       3.340   4.387   0.928  0.00  0.00    +0.002 A 
ATOM     33  C   UNL     1       4.643   4.794   1.143  0.00  0.00    +0.002 A 
ATOM     34  C   UNL     1       5.602   4.584   0.170  0.00  0.00    +0.020 A 
ATOM     35  C   UNL     1       5.259   3.961  -1.016  0.00  0.00    +0.041 A 
ATOM     36  C   UNL     1       3.955   3.548  -1.228  0.00  0.00    +0.021 A 
ATOM     37 CL   UNL     1       6.463   3.697  -2.239  0.00  0.00    -0.084 Cl
ENDBRANCH  30  31
ENDBRANCH   5  30
TORSDOF 8
