REMARK  Name = ZINC36592021
REMARK  14 active torsions:
REMARK  status: ('A' for Active; 'I' for Inactive)
REMARK    1  A    between atoms: C_1  and  C_2
REMARK    2  A    between atoms: C_5  and  S_8
REMARK    3  A    between atoms: S_8  and  C_11
REMARK    4  A    between atoms: C_11  and  N_12
REMARK    5  A    between atoms: C_13  and  C_15
REMARK    6  A    between atoms: C_15  and  C_17
REMARK    7  A    between atoms: C_15  and  N_27
REMARK    8  A    between atoms: C_19  and  N_24
REMARK    9  A    between atoms: N_27  and  C_33
REMARK   10  A    between atoms: C_28  and  C_30
REMARK   11  A    between atoms: C_30  and  C_32
REMARK   12  A    between atoms: C_33  and  C_34
REMARK   13  A    between atoms: C_33  and  C_35
REMARK   14  A    between atoms: C_33  and  C_36
REMARK                            x       y       z     vdW  Elec       q    Type
REMARK                         _______ _______ _______ _____ _____    ______ ____
ROOT
ATOM      1  C   UNL     1       1.457  -7.621   2.980  0.00  0.00    +0.194 C 
ENDROOT
BRANCH   1   2
ATOM      2  C   UNL     1       0.146  -7.270   3.634  0.00  0.00    +0.002 A 
ATOM      3  C   UNL     1       0.131  -6.720   4.902  0.00  0.00    +0.040 A 
ATOM      4  C   UNL     1      -1.072  -6.399   5.503  0.00  0.00    +0.127 A 
ATOM      5  C   UNL     1      -2.261  -6.628   4.835  0.00  0.00    +0.034 A 
ATOM      6  C   UNL     1      -2.248  -7.178   3.567  0.00  0.00    +0.022 A 
ATOM      7  C   UNL     1      -1.043  -7.494   2.964  0.00  0.00    +0.047 A 
ATOM      8 CL   UNL     1      -1.025  -8.178   1.368  0.00  0.00    -0.083 Cl
BRANCH   4   9
ATOM      9  N   UNL     1      -1.088  -5.811   6.860  0.00  0.00    +0.056 N 
ATOM     10  O   UNL     1      -0.048  -5.610   7.444  0.00  0.00    -0.126 OA
ATOM     11  O   UNL     1      -2.140  -5.530   7.386  0.00  0.00    -0.126 OA
ENDBRANCH   4   9
ENDBRANCH   1   2
BRANCH   1  13
ATOM     12  N   UNL     1       1.075  -9.939   2.207  0.00  0.00    -0.294 N 
ATOM     13  C   UNL     1       1.685  -9.107   3.075  0.00  0.00    +0.239 C 
ATOM     14  O   UNL     1       2.416  -9.556   3.932  0.00  0.00    -0.273 OA
ATOM     15  H   UNL     1       0.490  -9.581   1.521  0.00  0.00    +0.150 HD
BRANCH  12  16
ATOM     16  C   UNL     1       1.296 -11.384   2.299  0.00  0.00    +0.278 C 
BRANCH  16  17
ATOM     17  S   UNL     1      -0.030 -12.137   3.281  0.00  0.00    +0.013 S 
ATOM     18  O   UNL     1      -0.238 -11.393   4.474  0.00  0.00    -0.168 OA
ATOM     19  O   UNL     1       0.136 -13.548   3.327  0.00  0.00    -0.168 OA
BRANCH  17  24
ATOM     20  C   UNL     1      -5.045 -11.281   0.038  0.00  0.00    +0.044 C 
ATOM     21  C   UNL     1      -3.792 -11.495   0.848  0.00  0.00    -0.050 A 
ATOM     22  C   UNL     1      -3.036 -12.637   0.663  0.00  0.00    +0.005 A 
ATOM     23  C   UNL     1      -1.887 -12.833   1.406  0.00  0.00    +0.027 A 
ATOM     24  C   UNL     1      -1.494 -11.887   2.334  0.00  0.00    +0.090 A 
ATOM     25  C   UNL     1      -2.250 -10.744   2.518  0.00  0.00    +0.027 A 
ATOM     26  C   UNL     1      -3.396 -10.546   1.772  0.00  0.00    +0.005 A 
ENDBRANCH  17  24
ENDBRANCH  16  17
ENDBRANCH  12  16
ENDBRANCH   1  13
BRANCH   1  27
ATOM     27  N   UNL     1       2.546  -6.916   3.661  0.00  0.00    -0.277 N 
ATOM     28  C   UNL     1       2.910  -5.684   3.254  0.00  0.00    +0.243 C 
ATOM     29  O   UNL     1       3.790  -5.084   3.841  0.00  0.00    -0.270 OA
BRANCH  27  30
ATOM     30  C   UNL     1       3.240  -7.550   4.785  0.00  0.00    +0.030 C 
ATOM     31  C   UNL     1       4.379  -8.422   4.254  0.00  0.00    +0.031 C 
ATOM     32  C   UNL     1       3.811  -6.471   5.707  0.00  0.00    +0.031 C 
ATOM     33  C   UNL     1       2.254  -8.420   5.567  0.00  0.00    +0.031 C 
ENDBRANCH  27  30
BRANCH  28  34
ATOM     34  C   UNL     1       2.242  -5.064   2.099  0.00  0.00    +0.004 C 
ATOM     35  C   UNL     1       2.026  -3.751   2.082  0.00  0.00    +0.017 C 
ATOM     36  C   UNL     1       1.802  -5.915   0.936  0.00  0.00    +0.048 C 
ENDBRANCH  28  34
ENDBRANCH   1  27
TORSDOF 9
