REMARK  Name = ZINC43198944
REMARK  2 active torsions:
REMARK  status: ('A' for Active; 'I' for Inactive)
REMARK    1  A    between atoms: C_3  and  O_22
REMARK    2  A    between atoms: C_5  and  O_21
REMARK                            x       y       z     vdW  Elec       q    Type
REMARK                         _______ _______ _______ _____ _____    ______ ____
ROOT
ATOM      1  C   UNL     1      -0.019   1.529   0.011  0.00  0.00    +0.003 C 
ATOM      2  C   UNL     1       1.413   2.057  -0.000  0.00  0.00    +0.034 C 
ATOM      3  C   UNL     1       1.701   2.930   1.217  0.00  0.00    +0.143 C 
ATOM      4  C   UNL     1       2.209   2.058   2.366  0.00  0.00    +0.143 C 
ATOM      5  C   UNL     1       2.208   2.868   3.663  0.00  0.00    +0.034 C 
ATOM      6  C   UNL     1       2.463   1.939   4.851  0.00  0.00    +0.003 C 
ATOM      7  C   UNL     1       1.428   2.190   5.938  0.00  0.00    +0.005 C 
ATOM      8  C   UNL     1       0.779   0.889   6.408  0.00  0.00    +0.035 C 
ATOM      9  C   UNL     1       0.479   0.007   5.202  0.00  0.00    -0.047 C 
ATOM     10  C   UNL     1      -0.156   0.623   4.292  0.00  0.00    +0.004 C 
ATOM     11  C   UNL     1      -0.629   0.266   2.983  0.00  0.00    +0.004 C 
ATOM     12  C   UNL     1      -0.595  -0.783   2.273  0.00  0.00    -0.047 C 
ATOM     13  C   UNL     1      -0.126  -2.124   2.477  0.00  0.00    +0.003 C 
ATOM     14  C   UNL     1       0.476  -2.789   3.383  0.00  0.00    +0.000 C 
ATOM     15  C   UNL     1       0.982  -2.425   4.691  0.00  0.00    +0.000 C 
ATOM     16  C   UNL     1       0.966  -1.336   5.352  0.00  0.00    +0.003 C 
ATOM     17  C   UNL     1      -1.143  -0.537   0.870  0.00  0.00    +0.035 C 
ATOM     18  C   UNL     1       0.002  -0.004   0.002  0.00  0.00    +0.005 C 
ENDROOT
BRANCH   4  19
ATOM     19  O   UNL     1       3.542   1.625   2.081  0.00  0.00    -0.389 OA
ATOM     20  H   UNL     1       3.931   1.067   2.768  0.00  0.00    +0.210 HD
ENDBRANCH   4  19
BRANCH   3  21
ATOM     21  O   UNL     1       0.524   3.635   1.616  0.00  0.00    -0.389 OA
ATOM     22  H   UNL     1       0.166   4.220   0.934  0.00  0.00    +0.210 HD
ENDBRANCH   3  21
TORSDOF 2
