REMARK  Name = ZINC08462425
REMARK  6 active torsions:
REMARK  status: ('A' for Active; 'I' for Inactive)
REMARK    1  A    between atoms: C_1  and  C_2
REMARK    2  A    between atoms: C_2  and  O_3
REMARK    3  A    between atoms: O_3  and  C_4
REMARK    4  A    between atoms: C_9  and  C_10
REMARK    5  A    between atoms: C_15  and  C_19
REMARK    6  A    between atoms: C_15  and  C_20
REMARK                            x       y       z     vdW  Elec       q    Type
REMARK                         _______ _______ _______ _____ _____    ______ ____
ROOT
ATOM      1  C   UNL     1      -3.981  -1.497   0.032  0.00  0.00    +0.093 C 
ATOM      2  C   UNL     1      -4.798  -1.774   1.274  0.00  0.00    +0.024 C 
ATOM      3  C   UNL     1      -5.967  -2.445   1.231  0.00  0.00    +0.016 C 
ATOM      4  C   UNL     1      -6.758  -2.701   2.494  0.00  0.00    +0.058 C 
ATOM      5  C   UNL     1      -5.804  -2.836   3.682  0.00  0.00    -0.023 C 
ATOM      6  C   UNL     1      -4.993  -1.540   3.797  0.00  0.00    +0.086 C 
ATOM      7  C   UNL     1      -4.282  -1.296   2.495  0.00  0.00    +0.162 C 
ATOM      8  O   UNL     1      -3.238  -0.674   2.496  0.00  0.00    -0.292 OA
ATOM      9  C   UNL     1      -4.860  -4.017   3.454  0.00  0.00    +0.011 C 
ATOM     10  C   UNL     1      -6.607  -3.057   4.965  0.00  0.00    +0.011 C 
ATOM     11  N   UNL     1      -6.497  -2.919   0.056  0.00  0.00    -0.317 N 
ATOM     12  C   UNL     1      -6.005  -2.442  -1.136  0.00  0.00    +0.047 C 
ATOM     13  C   UNL     1      -4.817  -1.760  -1.192  0.00  0.00    +0.034 C 
ATOM     14  C   UNL     1      -4.551  -1.380  -2.527  0.00  0.00    +0.193 C 
ATOM     15  O   UNL     1      -3.581  -0.761  -2.919  0.00  0.00    -0.287 OA
ATOM     16  C   UNL     1      -5.669  -1.875  -3.360  0.00  0.00    +0.031 A 
ATOM     17  C   UNL     1      -6.568  -2.533  -2.487  0.00  0.00    +0.007 A 
ATOM     18  C   UNL     1      -7.731  -3.113  -2.968  0.00  0.00    +0.010 A 
ATOM     19  C   UNL     1      -7.967  -3.014  -4.342  0.00  0.00    +0.001 A 
ATOM     20  C   UNL     1      -7.092  -2.374  -5.187  0.00  0.00    +0.001 A 
ATOM     21  C   UNL     1      -5.915  -1.787  -4.716  0.00  0.00    +0.012 A 
ATOM     22  H   UNL     1      -7.206  -3.581   0.067  0.00  0.00    +0.152 HD
ENDROOT
BRANCH   1  28
ATOM     23  C   UNL     1      -1.498  -1.848   0.006  0.00  0.00    +0.125 A 
ATOM     24  C   UNL     1      -0.387  -2.679  -0.003  0.00  0.00    +0.046 A 
ATOM     25  C   UNL     1      -0.552  -4.051  -0.008  0.00  0.00    +0.004 A 
ATOM     26  C   UNL     1      -1.823  -4.596  -0.004  0.00  0.00    +0.001 A 
ATOM     27  C   UNL     1      -2.932  -3.769   0.004  0.00  0.00    +0.008 A 
ATOM     28  C   UNL     1      -2.772  -2.397   0.016  0.00  0.00    +0.006 A 
BRANCH  23  29
ATOM     29  O   UNL     1      -1.339  -0.499   0.012  0.00  0.00    -0.492 OA
BRANCH  29  31
ATOM     30  C   UNL     1      -0.019   1.526   0.010  0.00  0.00    +0.048 C 
ATOM     31  C   UNL     1       0.002  -0.004   0.002  0.00  0.00    +0.225 C 
ENDBRANCH  29  31
ENDBRANCH  23  29
ENDBRANCH   1  28
TORSDOF 3
