REMARK  Name = ZINC39653058
REMARK  10 active torsions:
REMARK  status: ('A' for Active; 'I' for Inactive)
REMARK    1  A    between atoms: C_1  and  O_2
REMARK    2  A    between atoms: O_2  and  C_3
REMARK    3  A    between atoms: C_5  and  C_11
REMARK    4  A    between atoms: C_7  and  O_9
REMARK    5  A    between atoms: O_9  and  C_10
REMARK    6  A    between atoms: C_11  and  C_12
REMARK    7  A    between atoms: C_12  and  N_13
REMARK    8  A    between atoms: C_14  and  C_16
REMARK    9  A    between atoms: C_27  and  C_29
REMARK   10  A    between atoms: C_29  and  C_30
REMARK                            x       y       z     vdW  Elec       q    Type
REMARK                         _______ _______ _______ _____ _____    ______ ____
ROOT
ATOM      1  C   UNL     1      -2.670  -8.332   2.619  0.00  0.00    +0.100 C 
ATOM      2  C   UNL     1      -4.035  -8.818   2.085  0.00  0.00    +0.121 C 
ATOM      3  N   UNL     1      -4.358 -10.006   2.909  0.00  0.00    -0.300 N 
ATOM      4  C   UNL     1      -3.912  -9.640   4.275  0.00  0.00    +0.115 C 
ATOM      5  C   UNL     1      -2.593  -8.872   4.057  0.00  0.00    -0.004 C 
ATOM      6  C   UNL     1      -2.484  -7.719   5.050  0.00  0.00    -0.010 C 
ATOM      7  C   UNL     1      -2.351  -8.282   6.468  0.00  0.00    -0.082 C 
ATOM      8  N   UNL     1      -1.159  -9.136   6.546  0.00  0.00    +0.379 N 
ATOM      9  C   UNL     1      -1.313 -10.293   5.656  0.00  0.00    -0.082 C 
ATOM     10  C   UNL     1      -1.403  -9.815   4.204  0.00  0.00    -0.010 C 
ATOM     11  C   UNL     1      -4.928 -11.160   2.509  0.00  0.00    +0.220 C 
ATOM     12  O   UNL     1      -5.130 -12.047   3.310  0.00  0.00    -0.275 OA
ATOM     13  H   UNL     1      -0.347  -8.605   6.268  0.00  0.00    -0.086 HD
ATOM     14  H   UNL     1      -1.039  -9.457   7.495  0.00  0.00    -0.086 HD
ENDROOT
BRANCH   1  16
ATOM     15  N   UNL     1      -1.430  -6.195   2.482  0.00  0.00    -0.315 N 
ATOM     16  C   UNL     1      -2.614  -6.825   2.621  0.00  0.00    +0.218 C 
ATOM     17  O   UNL     1      -3.633  -6.181   2.748  0.00  0.00    -0.275 OA
ATOM     18  H   UNL     1      -0.615  -6.711   2.381  0.00  0.00    +0.149 HD
BRANCH  15  19
ATOM     19  C   UNL     1      -1.376  -4.731   2.484  0.00  0.00    +0.109 C 
BRANCH  19  20
ATOM     20  C   UNL     1       0.074  -4.275   2.312  0.00  0.00    +0.054 C 
BRANCH  20  23
ATOM     21  C   UNL     1       0.352  -0.700   3.507  0.00  0.00    +0.124 A 
ATOM     22  C   UNL     1       0.300  -2.086   3.503  0.00  0.00    +0.049 A 
ATOM     23  C   UNL     1       0.131  -2.769   2.314  0.00  0.00    -0.039 A 
ATOM     24  C   UNL     1       0.014  -2.073   1.126  0.00  0.00    +0.049 A 
ATOM     25  C   UNL     1       0.065  -0.686   1.125  0.00  0.00    +0.124 A 
ATOM     26  C   UNL     1       0.229   0.001   2.318  0.00  0.00    +0.091 A 
BRANCH  21  28
ATOM     27  C   UNL     1       0.558   1.398   4.608  0.00  0.00    +0.277 C 
ATOM     28  O   UNL     1       0.519  -0.029   4.678  0.00  0.00    -0.495 OA
ENDBRANCH  21  28
BRANCH  25  29
ATOM     29  O   UNL     1      -0.050  -0.002  -0.044  0.00  0.00    -0.495 OA
ATOM     30  C   UNL     1       0.012   1.424   0.030  0.00  0.00    +0.277 C 
ENDBRANCH  25  29
ENDBRANCH  20  23
ENDBRANCH  19  20
ENDBRANCH  15  19
ENDBRANCH   1  16
BRANCH  11  31
ATOM     31  C   UNL     1      -5.315 -11.347   1.064  0.00  0.00    +0.131 C 
BRANCH  31  32
ATOM     32  C   UNL     1      -5.927 -12.712   0.881  0.00  0.00    -0.039 A 
ATOM     33  C   UNL     1      -5.124 -13.794   0.572  0.00  0.00    +0.005 A 
ATOM     34  C   UNL     1      -5.686 -15.046   0.403  0.00  0.00    +0.020 A 
ATOM     35  C   UNL     1      -7.051 -15.216   0.545  0.00  0.00    +0.041 A 
ATOM     36  C   UNL     1      -7.854 -14.133   0.854  0.00  0.00    +0.020 A 
ATOM     37  C   UNL     1      -7.291 -12.882   1.028  0.00  0.00    +0.005 A 
ATOM     38 CL   UNL     1      -7.757 -16.788   0.333  0.00  0.00    -0.084 Cl
ENDBRANCH  31  32
ENDBRANCH  11  31
TORSDOF 8
