REMARK  Name = ZINC02650333
REMARK  11 active torsions:
REMARK  status: ('A' for Active; 'I' for Inactive)
REMARK    1  A    between atoms: C_1  and  C_2
REMARK    2  A    between atoms: C_2  and  O_3
REMARK    3  A    between atoms: O_3  and  C_4
REMARK    4  A    between atoms: C_9  and  C_10
REMARK    5  A    between atoms: N_12  and  C_13
REMARK    6  A    between atoms: C_13  and  C_15
REMARK    7  A    between atoms: C_13  and  C_18
REMARK    8  A    between atoms: C_15  and  C_16
REMARK    9  A    between atoms: C_15  and  C_17
REMARK   10  A    between atoms: N_20  and  N_21
REMARK   11  A    between atoms: C_22  and  C_24
REMARK                            x       y       z     vdW  Elec       q    Type
REMARK                         _______ _______ _______ _____ _____    ______ ____
ROOT
ATOM      1  C   UNL     1       3.719   9.772  -0.216  0.00  0.00    +0.250 C 
ATOM      2  O   UNL     1       2.516   9.893  -0.128  0.00  0.00    -0.272 OA
ATOM      3  N   UNL     1       4.255   8.570  -0.505  0.00  0.00    -0.233 N 
ATOM      4  H   UNL     1       5.211   8.487  -0.652  0.00  0.00    +0.173 HD
ENDROOT
BRANCH   3   5
ATOM      5  N   UNL     1       3.433   7.439  -0.594  0.00  0.00    -0.230 N 
ATOM      6  C   UNL     1       3.970   6.237  -0.882  0.00  0.00    +0.268 C 
ATOM      7  O   UNL     1       5.168   6.133  -1.066  0.00  0.00    -0.268 OA
ATOM      8  H   UNL     1       2.478   7.521  -0.448  0.00  0.00    +0.173 HD
BRANCH   6   9
ATOM      9  C   UNL     1       3.108   5.051  -0.975  0.00  0.00    +0.095 A 
ATOM     10  C   UNL     1       3.460   3.767  -1.254  0.00  0.00    +0.068 A 
ATOM     11  C   UNL     1       2.474   2.763  -1.296  0.00  0.00    +0.008 A 
ATOM     12  C   UNL     1       2.640   1.380  -1.566  0.00  0.00    +0.010 A 
ATOM     13  C   UNL     1       1.573   0.540  -1.568  0.00  0.00    +0.001 A 
ATOM     14  C   UNL     1       0.285   0.997  -1.314  0.00  0.00    +0.001 A 
ATOM     15  C   UNL     1       0.080   2.334  -1.041  0.00  0.00    +0.016 A 
ATOM     16  C   UNL     1       1.153   3.199  -1.036  0.00  0.00    +0.021 A 
ATOM     17  S   UNL     1       1.341   4.941  -0.751  0.00  0.00    -0.082 S 
ATOM     18 CL   UNL     1       5.122   3.366  -1.555  0.00  0.00    -0.082 Cl
ENDBRANCH   6   9
ENDBRANCH   3   5
BRANCH   1  19
ATOM     19  C   UNL     1       4.614  10.965  -0.004  0.00  0.00    +0.163 C 
BRANCH  19  22
ATOM     20  C   UNL     1       4.412  13.354  -0.438  0.00  0.00    +0.248 C 
ATOM     21  O   UNL     1       5.604  13.383  -0.676  0.00  0.00    -0.270 OA
ATOM     22  N   UNL     1       3.821  12.193  -0.092  0.00  0.00    -0.300 N 
ATOM     23  H   UNL     1       2.870  12.171   0.098  0.00  0.00    +0.150 HD
BRANCH  20  29
ATOM     24  C   UNL     1       4.223  15.801  -0.885  0.00  0.00    +0.133 A 
ATOM     25  C   UNL     1       3.461  16.957  -0.966  0.00  0.00    +0.046 A 
ATOM     26  C   UNL     1       2.108  16.916  -0.693  0.00  0.00    +0.004 A 
ATOM     27  C   UNL     1       1.501  15.722  -0.339  0.00  0.00    +0.001 A 
ATOM     28  C   UNL     1       2.241  14.562  -0.259  0.00  0.00    +0.017 A 
ATOM     29  C   UNL     1       3.612  14.591  -0.527  0.00  0.00    +0.078 A 
BRANCH  24  30
ATOM     30  O   UNL     1       5.552  15.840  -1.153  0.00  0.00    -0.491 OA
BRANCH  30  32
ATOM     31  C   UNL     1       7.604  16.955  -1.775  0.00  0.00    +0.048 C 
ATOM     32  C   UNL     1       6.104  17.108  -1.512  0.00  0.00    +0.226 C 
ENDBRANCH  30  32
ENDBRANCH  24  30
ENDBRANCH  20  29
ENDBRANCH  19  22
BRANCH  19  33
ATOM     33  C   UNL     1       5.264  10.876   1.378  0.00  0.00    +0.012 C 
ATOM     34  C   UNL     1       6.239  12.041   1.560  0.00  0.00    +0.009 C 
ATOM     35  C   UNL     1       4.181  10.945   2.456  0.00  0.00    +0.009 C 
ENDBRANCH  19  33
ENDBRANCH   1  19
TORSDOF 8
