REMARK  Name = ZINC27470341
REMARK  5 active torsions:
REMARK  status: ('A' for Active; 'I' for Inactive)
REMARK    1  A    between atoms: C_4  and  C_7
REMARK    2  A    between atoms: C_10  and  N_34
REMARK    3  A    between atoms: C_17  and  C_19
REMARK    4  A    between atoms: C_19  and  C_21
REMARK    5  A    between atoms: C_22  and  C_23
REMARK                            x       y       z     vdW  Elec       q    Type
REMARK                         _______ _______ _______ _____ _____    ______ ____
ROOT
ATOM      1  C   UNL     1       3.648  -0.649  -0.037  0.00  0.00    -0.012 C 
ATOM      2  C   UNL     1       4.861   0.036  -0.143  0.00  0.00    +0.003 A 
ATOM      3  C   UNL     1       4.888   1.444  -0.238  0.00  0.00    +0.042 A 
ATOM      4  C   UNL     1       6.083   2.086  -0.341  0.00  0.00    +0.127 A 
ATOM      5  C   UNL     1       7.285   1.382  -0.354  0.00  0.00    +0.034 A 
ATOM      6  C   UNL     1       7.323   0.023  -0.265  0.00  0.00    +0.026 A 
ATOM      7  C   UNL     1       6.126  -0.707  -0.156  0.00  0.00    +0.041 A 
ATOM      8  N   UNL     1       6.165  -2.041  -0.069  0.00  0.00    -0.284 N 
ATOM      9  C   UNL     1       5.089  -2.796   0.035  0.00  0.00    +0.232 C 
ATOM     10  O   UNL     1       5.200  -4.005   0.111  0.00  0.00    -0.274 OA
ATOM     11  C   UNL     1       3.718  -2.161   0.067  0.00  0.00    +0.177 C 
ATOM     12  H   UNL     1       7.032  -2.476  -0.082  0.00  0.00    +0.155 HD
ENDROOT
BRANCH   1  16
ATOM     13  C   UNL     1      -0.017   1.381   0.011  0.00  0.00    +0.000 A 
ATOM     14  C   UNL     1       0.271   0.505  -1.024  0.00  0.00    +0.001 A 
ATOM     15  C   UNL     1       1.473  -0.167  -1.049  0.00  0.00    +0.008 A 
ATOM     16  C   UNL     1       2.408   0.038  -0.021  0.00  0.00    -0.020 A 
ATOM     17  C   UNL     1       2.106   0.927   1.023  0.00  0.00    +0.008 A 
ATOM     18  C   UNL     1       0.898   1.589   1.030  0.00  0.00    +0.001 A 
ENDBRANCH   1  16
BRANCH   4  19
ATOM     19  N   UNL     1       6.107   3.562  -0.440  0.00  0.00    +0.056 N 
ATOM     20  O   UNL     1       5.071   4.185  -0.431  0.00  0.00    -0.126 OA
ATOM     21  O   UNL     1       7.162   4.145  -0.532  0.00  0.00    -0.126 OA
ENDBRANCH   4  19
BRANCH  11  22
ATOM     22  C   UNL     1       3.044  -2.568   1.352  0.00  0.00    +0.172 C 
ATOM     23  O   UNL     1       2.977  -1.784   2.278  0.00  0.00    -0.292 OA
BRANCH  22  24
ATOM     24  C   UNL     1       2.491  -3.858   1.480  0.00  0.00    +0.048 C 
ATOM     25  C   UNL     1       1.886  -4.223   2.636  0.00  0.00    +0.014 C 
BRANCH  25  26
ATOM     26  C   UNL     1       1.310  -5.568   2.769  0.00  0.00    +0.013 A 
ATOM     27  C   UNL     1       1.388  -6.475   1.713  0.00  0.00    +0.021 A 
ATOM     28  C   UNL     1       0.821  -7.747   1.895  0.00  0.00    +0.001 A 
ATOM     29  C   UNL     1       0.862  -8.713   0.875  0.00  0.00    +0.010 A 
ATOM     30  C   UNL     1       0.302  -9.937   1.084  0.00  0.00    +0.001 A 
ATOM     31  C   UNL     1      -0.311 -10.243   2.297  0.00  0.00    +0.002 A 
ATOM     32  C   UNL     1      -0.369  -9.331   3.306  0.00  0.00    +0.028 A 
ATOM     33  C   UNL     1       0.198  -8.057   3.130  0.00  0.00    +0.073 A 
ATOM     34  N   UNL     1       0.152  -7.146   4.110  0.00  0.00    -0.235 NA
ATOM     35  C   UNL     1       0.678  -5.956   3.969  0.00  0.00    +0.137 A 
ATOM     36 CL   UNL     1       0.589  -4.827   5.285  0.00  0.00    -0.061 Cl
ENDBRANCH  25  26
ENDBRANCH  22  24
ENDBRANCH  11  22
TORSDOF 5
