REMARK  Name = ZINC06764494
REMARK  4 active torsions:
REMARK  status: ('A' for Active; 'I' for Inactive)
REMARK    1  A    between atoms: C_3  and  C_6
REMARK    2  A    between atoms: C_9  and  C_28
REMARK    3  A    between atoms: C_13  and  C_16
REMARK    4  A    between atoms: C_21  and  C_24
REMARK                            x       y       z     vdW  Elec       q    Type
REMARK                         _______ _______ _______ _____ _____    ______ ____
ROOT
ATOM      1  C   UNL     1       4.080   1.254   0.406  0.00  0.00    +0.140 C 
ATOM      2  C   UNL     1       4.364   1.003  -1.080  0.00  0.00    +0.066 C 
ATOM      3  C   UNL     1       5.850   0.683  -1.277  0.00  0.00    +0.215 C 
ATOM      4  N   UNL     1       6.243  -0.355  -0.318  0.00  0.00    -0.238 N 
ATOM      5  C   UNL     1       5.540  -0.646   0.803  0.00  0.00    +0.130 A 
ATOM      6  C   UNL     1       6.200  -1.669   1.457  0.00  0.00    +0.096 A 
ATOM      7  C   UNL     1       7.342  -1.982   0.676  0.00  0.00    +0.149 A 
ATOM      8  N   UNL     1       7.352  -1.198  -0.367  0.00  0.00    -0.177 NA
ATOM      9  N   UNL     1       4.378   0.020   1.158  0.00  0.00    -0.319 N 
ATOM     10  H   UNL     1       3.792  -0.308   1.859  0.00  0.00    +0.148 HD
ENDROOT
BRANCH   6  11
ATOM     11  C   UNL     1       5.798  -2.307   2.716  0.00  0.00    +0.251 C 
ATOM     12  O   UNL     1       5.518  -1.623   3.682  0.00  0.00    -0.270 OA
ATOM     13  N   UNL     1       5.740  -3.650   2.802  0.00  0.00    -0.297 N 
ATOM     14  C   UNL     1       6.170  -4.492   1.677  0.00  0.00    +0.109 C 
ATOM     15  C   UNL     1       5.037  -5.460   1.323  0.00  0.00    +0.032 C 
ATOM     16  C   UNL     1       4.631  -6.242   2.574  0.00  0.00    +0.078 C 
ATOM     17  C   UNL     1       4.121  -5.272   3.642  0.00  0.00    +0.032 C 
ATOM     18  C   UNL     1       5.250  -4.302   4.024  0.00  0.00    +0.109 C 
BRANCH  16  19
ATOM     19  C   UNL     1       3.539  -7.220   2.223  0.00  0.00    +0.214 C 
ATOM     20  O   UNL     1       3.127  -7.285   1.084  0.00  0.00    -0.276 OA
ATOM     21  N   UNL     1       3.021  -8.023   3.173  0.00  0.00    -0.329 N 
ATOM     22  H   UNL     1       3.351  -7.971   4.084  0.00  0.00    +0.145 HD
ATOM     23  H   UNL     1       2.319  -8.652   2.947  0.00  0.00    +0.145 HD
ENDBRANCH  16  19
ENDBRANCH   6  11
BRANCH   1  26
ATOM     24  C   UNL     1       0.744   2.747   0.884  0.00  0.00    +0.041 A 
ATOM     25  C   UNL     1       2.147   2.865   0.750  0.00  0.00    +0.046 A 
ATOM     26  C   UNL     1       2.629   1.620   0.589  0.00  0.00    +0.125 A 
ATOM     27  O   UNL     1       1.599   0.759   0.617  0.00  0.00    -0.466 OA
ATOM     28  C   UNL     1       0.454   1.437   0.796  0.00  0.00    +0.195 A 
ENDBRANCH   1  26
BRANCH   3  29
ATOM     29  C   UNL     1       6.081   0.180  -2.703  0.00  0.00    +0.412 C 
ATOM     30  F   UNL     1       5.694   1.168  -3.615  0.00  0.00    -0.168 F 
ATOM     31  F   UNL     1       7.438  -0.112  -2.881  0.00  0.00    -0.168 F 
ATOM     32  F   UNL     1       5.324  -0.976  -2.918  0.00  0.00    -0.168 F 
ENDBRANCH   3  29
TORSDOF 4
