REMARK  Name = ZINC19639843
REMARK  8 active torsions:
REMARK  status: ('A' for Active; 'I' for Inactive)
REMARK    1  A    between atoms: C_1  and  O_2
REMARK    2  A    between atoms: O_2  and  C_3
REMARK    3  A    between atoms: C_3  and  C_5
REMARK    4  A    between atoms: C_9  and  N_10
REMARK    5  A    between atoms: N_10  and  C_11
REMARK    6  A    between atoms: C_11  and  N_13
REMARK    7  A    between atoms: N_13  and  N_14
REMARK    8  A    between atoms: C_15  and  C_17
REMARK                            x       y       z     vdW  Elec       q    Type
REMARK                         _______ _______ _______ _____ _____    ______ ____
ROOT
ATOM      1  N   UNL     1      -2.373  -0.388   0.011  0.00  0.00    -0.290 N 
ATOM      2  H   UNL     1      -1.413  -0.924   0.004  0.00  0.00    +0.154 HD
ENDROOT
BRANCH   1   7
ATOM      3  C   UNL     1      -3.748  -2.470   0.001  0.00  0.00    +0.091 A 
ATOM      4  C   UNL     1      -5.124  -2.967   0.009  0.00  0.00    -0.021 A 
ATOM      5  C   UNL     1      -6.075  -2.017   0.019  0.00  0.00    -0.004 A 
ATOM      6  S   UNL     1      -5.181  -0.482   0.023  0.00  0.00    -0.077 S 
ATOM      7  C   UNL     1      -3.563  -1.096   0.013  0.00  0.00    +0.086 A 
ATOM      8  C   UNL     1      -7.460  -2.605   0.025  0.00  0.00    +0.043 C 
ATOM      9  C   UNL     1      -7.257  -4.075   0.454  0.00  0.00    +0.010 C 
ATOM     10  C   UNL     1      -5.806  -4.336   0.003  0.00  0.00    +0.037 C 
BRANCH   3  11
ATOM     11  C   UNL     1      -2.609  -3.389  -0.016  0.00  0.00    +0.342 C 
ATOM     12  O   UNL     1      -2.128  -3.781   1.030  0.00  0.00    -0.245 OA
BRANCH  11  14
ATOM     13  C   UNL     1      -0.962  -4.711  -1.133  0.00  0.00    +0.280 C 
ATOM     14  O   UNL     1      -2.091  -3.800  -1.192  0.00  0.00    -0.464 OA
ENDBRANCH  11  14
ENDBRANCH   3  11
ENDBRANCH   1   7
BRANCH   1  15
ATOM     15  C   UNL     1      -2.392   0.960   0.019  0.00  0.00    +0.151 C 
ATOM     16  S   UNL     1      -3.886   1.796   0.030  0.00  0.00    -0.017 S 
BRANCH  15  17
ATOM     17  N   UNL     1      -1.234   1.650   0.017  0.00  0.00    -0.245 N 
ATOM     18  H   UNL     1      -1.249   2.750   0.023  0.00  0.00    +0.172 HD
BRANCH  17  19
ATOM     19  N   UNL     1      -0.011   0.966   0.007  0.00  0.00    -0.229 N 
ATOM     20  C   UNL     1       1.147   1.655   0.000  0.00  0.00    +0.295 C 
ATOM     21  O   UNL     1       1.130   2.873   0.007  0.00  0.00    -0.265 OA
ATOM     22  H   UNL     1       0.004  -0.134   0.006  0.00  0.00    +0.173 HD
BRANCH  20  23
ATOM     23  C   UNL     1       2.426   0.940  -0.016  0.00  0.00    +0.192 A 
ATOM     24  C   UNL     1       3.666   1.513  -0.030  0.00  0.00    +0.056 A 
ATOM     25  C   UNL     1       4.596   0.463  -0.040  0.00  0.00    +0.058 A 
ATOM     26  C   UNL     1       3.892  -0.693  -0.040  0.00  0.00    +0.171 A 
ATOM     27  O   UNL     1       2.585  -0.400  -0.025  0.00  0.00    -0.444 OA
ATOM     28 BR   UNL     1       4.631  -2.433  -0.056  0.00  0.00    -0.008 Br
ENDBRANCH  20  23
ENDBRANCH  17  19
ENDBRANCH  15  17
ENDBRANCH   1  15
TORSDOF 7
