REMARK  Name = ZINC53334263
REMARK  9 active torsions:
REMARK  status: ('A' for Active; 'I' for Inactive)
REMARK    1  A    between atoms: C_1  and  C_2
REMARK    2  A    between atoms: C_2  and  C_3
REMARK    3  A    between atoms: C_3  and  C_4
REMARK    4  A    between atoms: C_7  and  C_10
REMARK    5  A    between atoms: C_10  and  C_12
REMARK    6  A    between atoms: C_10  and  N_17
REMARK    7  A    between atoms: C_18  and  C_20
REMARK    8  A    between atoms: C_20  and  S_21
REMARK    9  A    between atoms: S_21  and  C_22
REMARK                            x       y       z     vdW  Elec       q    Type
REMARK                         _______ _______ _______ _____ _____    ______ ____
ROOT
ATOM      1  C   UNL     1      -1.355  -6.312  -0.019  0.00  0.00    +0.140 C 
ENDROOT
BRANCH   1   5
ATOM      2  C   UNL     1      -1.413  -2.041   0.005  0.00  0.00    -0.047 A 
ATOM      3  C   UNL     1      -1.409  -2.725  -1.196  0.00  0.00    +0.004 A 
ATOM      4  C   UNL     1      -1.391  -4.107  -1.204  0.00  0.00    +0.006 A 
ATOM      5  C   UNL     1      -1.375  -4.805  -0.011  0.00  0.00    -0.022 A 
ATOM      6  C   UNL     1      -1.378  -4.120   1.190  0.00  0.00    +0.006 A 
ATOM      7  C   UNL     1      -1.392  -2.738   1.198  0.00  0.00    +0.004 A 
BRANCH   2   8
ATOM      8  C   UNL     1      -1.433  -0.534   0.013  0.00  0.00    +0.035 C 
BRANCH   8  10
ATOM      9  C   UNL     1      -0.019   1.526   0.010  0.00  0.00    +0.004 C 
ATOM     10  C   UNL     1       0.002  -0.004   0.002  0.00  0.00    +0.001 C 
ENDBRANCH   8  10
ENDBRANCH   2   8
ENDBRANCH   1   5
BRANCH   1  11
ATOM     11  C   UNL     1       0.051  -6.797   0.217  0.00  0.00    +0.014 A 
ATOM     12  C   UNL     1       0.967  -7.232  -0.683  0.00  0.00    +0.013 A 
ATOM     13  C   UNL     1       2.211  -7.634  -0.233  0.00  0.00    +0.008 A 
ATOM     14  C   UNL     1       2.479  -7.580   1.095  0.00  0.00    +0.045 A 
ATOM     15  S   UNL     1       0.948  -6.941   1.755  0.00  0.00    -0.099 S 
ENDBRANCH   1  11
BRANCH   1  16
ATOM     16  N   UNL     1      -2.231  -6.817   1.041  0.00  0.00    -0.303 N 
ATOM     17  C   UNL     1      -2.775  -8.046   0.937  0.00  0.00    +0.224 C 
ATOM     18  O   UNL     1      -2.540  -8.733  -0.034  0.00  0.00    -0.275 OA
ATOM     19  H   UNL     1      -2.419  -6.268   1.818  0.00  0.00    +0.150 HD
BRANCH  17  20
ATOM     20  C   UNL     1      -3.676  -8.566   2.028  0.00  0.00    +0.173 C 
BRANCH  20  21
ATOM     21  S   UNL     1      -4.245 -10.234   1.598  0.00  0.00    -0.075 S 
BRANCH  21  22
ATOM     22  C   UNL     1      -5.273 -10.696   2.953  0.00  0.00    +0.210 A 
ATOM     23  N   UNL     1      -5.920 -11.860   3.076  0.00  0.00    -0.188 NA
ATOM     24  H   UNL     1      -6.751 -10.420   5.686  0.00  0.00    +0.192 HD
ATOM     25  C   UNL     1      -6.594 -11.874   4.206  0.00  0.00    +0.209 A 
ATOM     26  N   UNL     1      -6.383 -10.698   4.832  0.00  0.00    -0.246 N 
ATOM     27  N   UNL     1      -5.523  -9.956   4.006  0.00  0.00    -0.144 NA
ATOM     28  N   UNL     1      -7.381 -12.912   4.670  0.00  0.00    -0.328 N 
ATOM     29  H   UNL     1      -7.472 -13.724   4.147  0.00  0.00    +0.145 HD
ATOM     30  H   UNL     1      -7.842 -12.829   5.520  0.00  0.00    +0.145 HD
ENDBRANCH  21  22
ENDBRANCH  20  21
ENDBRANCH  17  20
ENDBRANCH   1  16
TORSDOF 8
