REMARK  Name = ZINC58636434
REMARK  7 active torsions:
REMARK  status: ('A' for Active; 'I' for Inactive)
REMARK    1  A    between atoms: C_4  and  C_7
REMARK    2  A    between atoms: C_7  and  C_8
REMARK    3  A    between atoms: C_8  and  C_10
REMARK    4  A    between atoms: C_8  and  N_21
REMARK    5  A    between atoms: N_12  and  N_13
REMARK    6  A    between atoms: N_13  and  C_14
REMARK    7  A    between atoms: C_22  and  C_24
REMARK                            x       y       z     vdW  Elec       q    Type
REMARK                         _______ _______ _______ _____ _____    ______ ____
ROOT
ATOM      1  C   UNL     1       4.171  -0.963   1.399  0.00  0.00    +0.165 C 
ENDROOT
BRANCH   1   2
ATOM      2  C   UNL     1       5.543  -1.588   1.383  0.00  0.00    +0.250 C 
ATOM      3  O   UNL     1       5.665  -2.786   1.529  0.00  0.00    -0.272 OA
ATOM      4  N   UNL     1       6.633  -0.816   1.207  0.00  0.00    -0.235 N 
ATOM      5  H   UNL     1       6.535   0.142   1.091  0.00  0.00    +0.173 HD
BRANCH   4   6
ATOM      6  N   UNL     1       7.908  -1.397   1.193  0.00  0.00    -0.264 N 
ATOM      7  H   UNL     1       8.005  -2.356   1.309  0.00  0.00    +0.170 HD
BRANCH   6   8
ATOM      8  C   UNL     1       9.039  -0.597   1.010  0.00  0.00    +0.044 A 
ATOM      9  C   UNL     1       8.901   0.776   0.849  0.00  0.00    +0.025 A 
ATOM     10  C   UNL     1      10.020   1.564   0.669  0.00  0.00    +0.017 A 
ATOM     11  C   UNL     1      11.278   0.988   0.648  0.00  0.00    +0.018 A 
ATOM     12  C   UNL     1      11.418  -0.379   0.809  0.00  0.00    +0.017 A 
ATOM     13  C   UNL     1      10.303  -1.172   0.996  0.00  0.00    +0.025 A 
ATOM     14 BR   UNL     1      12.808   2.071   0.400  0.00  0.00    -0.050 Br
ENDBRANCH   6   8
ENDBRANCH   4   6
ENDBRANCH   1   2
BRANCH   1  15
ATOM     15  N   UNL     1       3.229  -1.870   2.059  0.00  0.00    -0.299 N 
ATOM     16  C   UNL     1       3.018  -3.104   1.560  0.00  0.00    +0.251 C 
ATOM     17  O   UNL     1       3.611  -3.465   0.560  0.00  0.00    -0.270 OA
ATOM     18  H   UNL     1       2.756  -1.582   2.856  0.00  0.00    +0.150 HD
BRANCH  16  19
ATOM     19  C   UNL     1       2.075  -4.011   2.221  0.00  0.00    +0.074 A 
ATOM     20  C   UNL     1       1.723  -5.307   1.877  0.00  0.00    +0.021 A 
ATOM     21  C   UNL     1       0.801  -5.912   2.697  0.00  0.00    +0.008 A 
ATOM     22  C   UNL     1       0.310  -5.224   3.757  0.00  0.00    +0.046 A 
ATOM     23  S   UNL     1       1.089  -3.738   3.680  0.00  0.00    -0.092 S 
ENDBRANCH  16  19
ENDBRANCH   1  15
BRANCH   1  24
ATOM     24  C   UNL     1       3.711  -0.707  -0.038  0.00  0.00    +0.067 C 
BRANCH  24  28
ATOM     25  C   UNL     1      -0.017   1.378   0.010  0.00  0.00    +0.000 A 
ATOM     26  C   UNL     1       1.171   2.086   0.002  0.00  0.00    +0.000 A 
ATOM     27  C   UNL     1       2.377   1.411  -0.013  0.00  0.00    +0.004 A 
ATOM     28  C   UNL     1       2.396   0.029  -0.020  0.00  0.00    -0.045 A 
ATOM     29  C   UNL     1       1.208  -0.679  -0.012  0.00  0.00    +0.004 A 
ATOM     30  C   UNL     1       0.002  -0.004   0.002  0.00  0.00    +0.000 A 
ENDBRANCH  24  28
ENDBRANCH   1  24
TORSDOF 7
