REMARK  Name = ZINC39741253
REMARK  9 active torsions:
REMARK  status: ('A' for Active; 'I' for Inactive)
REMARK    1  A    between atoms: C_1  and  O_2
REMARK    2  A    between atoms: O_2  and  C_3
REMARK    3  A    between atoms: C_3  and  C_5
REMARK    4  A    between atoms: C_5  and  N_6
REMARK    5  A    between atoms: C_7  and  C_9
REMARK    6  A    between atoms: C_9  and  S_10
REMARK    7  A    between atoms: S_10  and  C_11
REMARK    8  A    between atoms: C_15  and  C_24
REMARK    9  A    between atoms: N_16  and  C_17
REMARK                            x       y       z     vdW  Elec       q    Type
REMARK                         _______ _______ _______ _____ _____    ______ ____
ROOT
ATOM      1  C   UNL     1       3.213  -5.975   5.139  0.00  0.00    +0.241 C 
ATOM      2  N   UNL     1       2.561  -5.380   6.317  0.00  0.00    -0.237 N 
ATOM      3  N   UNL     1       3.583  -5.065   7.220  0.00  0.00    -0.169 NA
ATOM      4  C   UNL     1       4.755  -5.390   6.743  0.00  0.00    +0.151 C 
ATOM      5  N   UNL     1       4.647  -5.960   5.468  0.00  0.00    -0.254 N 
ATOM      6  H   UNL     1       1.610  -5.235   6.443  0.00  0.00    +0.171 HD
ENDROOT
BRANCH   4   7
ATOM      7  C   UNL     1       5.968  -5.194   7.421  0.00  0.00    +0.022 C 
ATOM      8  C   UNL     1       6.139  -4.731   8.726  0.00  0.00    +0.006 A 
ATOM      9  C   UNL     1       5.224  -4.334   9.724  0.00  0.00    +0.010 A 
ATOM     10  C   UNL     1       5.684  -3.918  10.932  0.00  0.00    +0.001 A 
ATOM     11  C   UNL     1       7.050  -3.870  11.218  0.00  0.00    +0.002 A 
ATOM     12  C   UNL     1       7.984  -4.236  10.307  0.00  0.00    +0.026 A 
ATOM     13  C   UNL     1       7.580  -4.683   9.022  0.00  0.00    +0.043 A 
ATOM     14  N   UNL     1       8.279  -5.087   7.979  0.00  0.00    -0.380 N 
ATOM     15  C   UNL     1       7.363  -5.447   6.893  0.00  0.00    +0.152 C 
ATOM     16  H   UNL     1       9.246  -5.141   7.939  0.00  0.00    +0.160 HD
ENDBRANCH   4   7
BRANCH   5  17
ATOM     17  C   UNL     1       5.694  -6.423   4.665  0.00  0.00    +0.038 A 
ATOM     18  C   UNL     1       6.077  -7.757   4.723  0.00  0.00    +0.025 A 
ATOM     19  C   UNL     1       7.112  -8.211   3.929  0.00  0.00    +0.022 A 
ATOM     20  C   UNL     1       7.766  -7.339   3.077  0.00  0.00    +0.041 A 
ATOM     21  C   UNL     1       7.387  -6.010   3.018  0.00  0.00    +0.022 A 
ATOM     22  C   UNL     1       6.349  -5.551   3.805  0.00  0.00    +0.025 A 
ATOM     23 CL   UNL     1       9.066  -7.914   2.080  0.00  0.00    -0.084 Cl
ENDBRANCH   5  17
BRANCH   1  24
ATOM     24  S   UNL     1       2.890  -4.973   3.662  0.00  0.00    -0.108 S 
BRANCH  24  25
ATOM     25  C   UNL     1       3.505  -3.325   4.106  0.00  0.00    +0.168 C 
BRANCH  25  27
ATOM     26  N   UNL     1       3.678  -1.094   3.054  0.00  0.00    -0.304 N 
ATOM     27  C   UNL     1       3.295  -2.382   2.950  0.00  0.00    +0.223 C 
ATOM     28  O   UNL     1       2.781  -2.781   1.927  0.00  0.00    -0.275 OA
ATOM     29  H   UNL     1       4.088  -0.774   3.872  0.00  0.00    +0.149 HD
BRANCH  26  30
ATOM     30  C   UNL     1       3.473  -0.176   1.930  0.00  0.00    +0.224 C 
BRANCH  30  31
ATOM     31  C   UNL     1       3.984   1.192   2.299  0.00  0.00    +0.324 C 
ATOM     32  O   UNL     1       4.469   1.382   3.390  0.00  0.00    -0.249 OA
BRANCH  31  34
ATOM     33  C   UNL     1       4.404   3.471   1.835  0.00  0.00    +0.280 C 
ATOM     34  O   UNL     1       3.900   2.201   1.417  0.00  0.00    -0.467 OA
ENDBRANCH  31  34
ENDBRANCH  30  31
ENDBRANCH  26  30
ENDBRANCH  25  27
ENDBRANCH  24  25
ENDBRANCH   1  24
TORSDOF 8
