REMARK  Name = ZINC38488189
REMARK  4 active torsions:
REMARK  status: ('A' for Active; 'I' for Inactive)
REMARK    1  A    between atoms: C_3  and  C_9
REMARK    2  A    between atoms: C_14  and  C_17
REMARK    3  A    between atoms: C_17  and  C_18
REMARK    4  A    between atoms: C_18  and  C_19
REMARK                            x       y       z     vdW  Elec       q    Type
REMARK                         _______ _______ _______ _____ _____    ______ ____
ROOT
ATOM      1  C   UNL     1       3.668   2.090  -0.022  0.00  0.00    +0.255 C 
ATOM      2  O   UNL     1       3.684   3.303  -0.113  0.00  0.00    -0.270 OA
ATOM      3  N   UNL     1       4.825   1.405   0.065  0.00  0.00    -0.261 N 
ATOM      4  C   UNL     1       6.031   2.087   0.161  0.00  0.00    +0.165 A 
ATOM      5  N   UNL     1       7.247   1.592   0.248  0.00  0.00    -0.230 NA
ATOM      6  C   UNL     1       8.301   2.382   0.333  0.00  0.00    +0.051 A 
ATOM      7  C   UNL     1       8.072   3.718   0.327  0.00  0.00    +0.071 A 
ATOM      8  S   UNL     1       6.292   3.750   0.188  0.00  0.00    -0.060 S 
ATOM      9  H   UNL     1       4.816   0.435   0.060  0.00  0.00    +0.157 HD
ENDROOT
BRANCH   1  12
ATOM     10  C   UNL     1      -0.016   1.354   0.035  0.00  0.00    +0.018 A 
ATOM     11  C   UNL     1       1.181   2.071   0.023  0.00  0.00    +0.020 A 
ATOM     12  C   UNL     1       2.385   1.371  -0.008  0.00  0.00    +0.101 A 
ATOM     13  C   UNL     1       2.352  -0.048  -0.026  0.00  0.00    +0.261 A 
ATOM     14  O   UNL     1       3.392  -0.683  -0.053  0.00  0.00    -0.267 OA
ATOM     15  N   UNL     1       1.169  -0.690  -0.014  0.00  0.00    -0.328 N 
ATOM     16  H   UNL     1       1.151  -1.659  -0.026  0.00  0.00    +0.168 HD
ATOM     17  C   UNL     1       0.002  -0.003   0.017  0.00  0.00    +0.086 A 
ENDBRANCH   1  12
BRANCH   6  18
ATOM     18  C   UNL     1       9.697   1.823   0.433  0.00  0.00    +0.065 C 
BRANCH  18  19
ATOM     19  C   UNL     1       9.775   0.856   1.617  0.00  0.00    +0.102 C 
BRANCH  19  20
ATOM     20  C   UNL     1      11.171   0.297   1.717  0.00  0.00    +0.219 C 
ATOM     21  O   UNL     1      12.020   0.639   0.921  0.00  0.00    -0.275 OA
ATOM     22  N   UNL     1      11.477  -0.582   2.692  0.00  0.00    -0.265 N 
ATOM     23  C   UNL     1      12.765  -1.097   2.784  0.00  0.00    +0.165 A 
ATOM     24  N   UNL     1      13.804  -0.840   2.022  0.00  0.00    -0.229 NA
ATOM     25  C   UNL     1      14.987  -1.412   2.229  0.00  0.00    +0.054 A 
ATOM     26  C   UNL     1      15.030  -2.271   3.280  0.00  0.00    +0.014 A 
ATOM     27  S   UNL     1      13.374  -2.198   3.905  0.00  0.00    -0.057 S 
ATOM     28  C   UNL     1      16.197  -3.062   3.763  0.00  0.00    +0.044 C 
ATOM     29  C   UNL     1      17.276  -3.044   2.668  0.00  0.00    +0.006 C 
ATOM     30  C   UNL     1      17.459  -1.605   2.179  0.00  0.00    +0.006 C 
ATOM     31  C   UNL     1      16.229  -1.157   1.387  0.00  0.00    +0.056 C 
ATOM     32  H   UNL     1      10.798  -0.855   3.328  0.00  0.00    +0.157 HD
ENDBRANCH  19  20
ENDBRANCH  18  19
ENDBRANCH   6  18
TORSDOF 4
