REMARK  Name = ZINC39545291
REMARK  4 active torsions:
REMARK  status: ('A' for Active; 'I' for Inactive)
REMARK    1  A    between atoms: C_4  and  N_7
REMARK    2  A    between atoms: C_8  and  C_10
REMARK    3  A    between atoms: C_13  and  C_24
REMARK    4  A    between atoms: C_29  and  O_30
REMARK                            x       y       z     vdW  Elec       q    Type
REMARK                         _______ _______ _______ _____ _____    ______ ____
ROOT
ATOM      1  C   UNL     1       4.962  -2.721   0.153  0.00  0.00    +0.150 C 
ATOM      2  C   UNL     1       5.793  -2.501  -1.125  0.00  0.00    +0.069 C 
ATOM      3  C   UNL     1       5.999  -3.892  -1.679  0.00  0.00    -0.000 C 
ATOM      4  C   UNL     1       5.399  -4.769  -0.887  0.00  0.00    +0.079 C 
ATOM      5  N   UNL     1       5.395  -6.162  -1.048  0.00  0.00    -0.303 N 
ATOM      6  C   UNL     1       5.454  -6.895   0.149  0.00  0.00    +0.037 A 
ATOM      7  C   UNL     1       5.573  -8.277   0.107  0.00  0.00    +0.023 A 
ATOM      8  C   UNL     1       5.621  -8.999   1.284  0.00  0.00    +0.002 A 
ATOM      9  C   UNL     1       5.550  -8.340   2.498  0.00  0.00    +0.000 A 
ATOM     10  C   UNL     1       5.436  -6.964   2.540  0.00  0.00    +0.007 A 
ATOM     11  C   UNL     1       5.392  -6.231   1.366  0.00  0.00    -0.010 A 
ATOM     12  C   UNL     1       5.293  -4.730   1.443  0.00  0.00    +0.124 C 
ATOM     13  N   UNL     1       4.745  -4.175   0.204  0.00  0.00    -0.370 NA
ATOM     14  H   UNL     1       5.355  -6.587  -1.919  0.00  0.00    +0.153 HD
ATOM     15  H   UNL     1       3.756  -4.373   0.157  0.00  0.00    +0.128 HD
ENDROOT
BRANCH   3  16
ATOM     16  C   UNL     1       6.750  -4.222  -2.905  0.00  0.00    +0.023 A 
ATOM     17  C   UNL     1       6.069  -4.572  -4.072  0.00  0.00    +0.012 A 
ATOM     18  C   UNL     1       6.777  -4.879  -5.216  0.00  0.00    +0.001 A 
ATOM     19  C   UNL     1       8.160  -4.841  -5.211  0.00  0.00    +0.004 A 
ATOM     20  C   UNL     1       8.846  -4.496  -4.061  0.00  0.00    +0.046 A 
ATOM     21  C   UNL     1       8.150  -4.179  -2.907  0.00  0.00    +0.124 A 
BRANCH  21  22
ATOM     22  O   UNL     1       8.823  -3.834  -1.778  0.00  0.00    -0.506 OA
ATOM     23  H   UNL     1       9.044  -4.583  -1.207  0.00  0.00    +0.292 HD
ENDBRANCH  21  22
ENDBRANCH   3  16
BRANCH   1  25
ATOM     24  N   UNL     1       3.622  -0.651  -0.037  0.00  0.00    -0.204 N 
ATOM     25  C   UNL     1       3.645  -1.995   0.057  0.00  0.00    +0.249 C 
ATOM     26  O   UNL     1       2.606  -2.620   0.064  0.00  0.00    -0.272 OA
ATOM     27 BR   UNL     1       5.206   0.295  -0.171  0.00  0.00    +0.044 Br
BRANCH  24  31
ATOM     28  C   UNL     1      -0.018   1.377  -0.028  0.00  0.00    +0.000 A 
ATOM     29  C   UNL     1       0.282   0.493   0.993  0.00  0.00    +0.002 A 
ATOM     30  C   UNL     1       1.488  -0.180   0.992  0.00  0.00    +0.024 A 
ATOM     31  C   UNL     1       2.399   0.030  -0.035  0.00  0.00    +0.048 A 
ATOM     32  C   UNL     1       2.094   0.917  -1.058  0.00  0.00    +0.024 A 
ATOM     33  C   UNL     1       0.887   1.588  -1.052  0.00  0.00    +0.002 A 
ENDBRANCH  24  31
ENDBRANCH   1  25
TORSDOF 4
