REMARK  Name = ZINC05635232
REMARK  5 active torsions:
REMARK  status: ('A' for Active; 'I' for Inactive)
REMARK    1  A    between atoms: C_6  and  C_7
REMARK    2  A    between atoms: C_8  and  C_17
REMARK    3  A    between atoms: C_12  and  C_13
REMARK    4  A    between atoms: C_20  and  O_24
REMARK    5  A    between atoms: C_22  and  O_23
REMARK                            x       y       z     vdW  Elec       q    Type
REMARK                         _______ _______ _______ _____ _____    ______ ____
ROOT
ATOM      1  C   UNL     1      -1.297  -0.724   0.040  0.00  0.00    +0.039 A 
ATOM      2  C   UNL     1      -1.690  -1.688   1.003  0.00  0.00    +0.104 A 
ATOM      3  N   UNL     1      -2.847  -2.187   0.624  0.00  0.00    -0.173 NA
ATOM      4  N   UNL     1      -3.224  -1.569  -0.574  0.00  0.00    -0.272 N 
ATOM      5  H   UNL     1      -4.036  -1.748  -1.073  0.00  0.00    +0.189 HD
ATOM      6  C   UNL     1      -2.271  -0.677  -0.913  0.00  0.00    +0.147 A 
ENDROOT
BRANCH   1  12
ATOM      7  C   UNL     1      -0.126   1.465   0.266  0.00  0.00    +0.011 A 
ATOM      8  C   UNL     1       1.031   2.217   0.291  0.00  0.00    +0.039 A 
ATOM      9  C   UNL     1       2.261   1.604   0.118  0.00  0.00    +0.123 A 
ATOM     10  C   UNL     1       2.336   0.235  -0.081  0.00  0.00    +0.039 A 
ATOM     11  C   UNL     1       1.184  -0.524  -0.107  0.00  0.00    +0.011 A 
ATOM     12  C   UNL     1      -0.056   0.088   0.067  0.00  0.00    -0.014 A 
ATOM     13  F   UNL     1       3.391   2.344   0.142  0.00  0.00    -0.205 F 
ENDBRANCH   1  12
BRANCH   2  14
ATOM     14  C   UNL     1      -0.933  -2.065   2.220  0.00  0.00    +0.044 A 
ATOM     15  C   UNL     1      -0.414  -1.077   3.055  0.00  0.00    +0.017 A 
ATOM     16  C   UNL     1       0.290  -1.431   4.186  0.00  0.00    +0.046 A 
ATOM     17  C   UNL     1       0.485  -2.771   4.497  0.00  0.00    +0.120 A 
ATOM     18  C   UNL     1      -0.027  -3.760   3.671  0.00  0.00    +0.091 A 
ATOM     19  C   UNL     1      -0.741  -3.414   2.536  0.00  0.00    +0.130 A 
BRANCH  19  20
ATOM     20  O   UNL     1      -1.248  -4.382   1.728  0.00  0.00    -0.506 OA
ATOM     21  H   UNL     1      -0.645  -4.665   1.027  0.00  0.00    +0.292 HD
ENDBRANCH  19  20
BRANCH  17  22
ATOM     22  O   UNL     1       1.180  -3.114   5.613  0.00  0.00    -0.507 OA
ATOM     23  H   UNL     1       0.631  -3.214   6.403  0.00  0.00    +0.292 HD
ENDBRANCH  17  22
ENDBRANCH   2  14
BRANCH   6  24
ATOM     24  C   UNL     1      -2.279   0.212  -2.130  0.00  0.00    +0.434 C 
ATOM     25  F   UNL     1      -3.442  -0.023  -2.871  0.00  0.00    -0.164 F 
ATOM     26  F   UNL     1      -2.244   1.552  -1.729  0.00  0.00    -0.164 F 
ATOM     27  F   UNL     1      -1.159  -0.069  -2.920  0.00  0.00    -0.164 F 
ENDBRANCH   6  24
TORSDOF 5
