REMARK  Name = ZINC11818816
REMARK  8 active torsions:
REMARK  status: ('A' for Active; 'I' for Inactive)
REMARK    1  A    between atoms: C_1  and  C_2
REMARK    2  A    between atoms: C_5  and  C_9
REMARK    3  A    between atoms: C_9  and  N_56
REMARK    4  A    between atoms: C_10  and  C_11
REMARK    5  A    between atoms: C_10  and  N_56
REMARK    6  A    between atoms: C_12  and  C_21
REMARK    7  A    between atoms: C_25  and  C_32
REMARK    8  A    between atoms: C_28  and  C_31
REMARK                            x       y       z     vdW  Elec       q    Type
REMARK                         _______ _______ _______ _____ _____    ______ ____
ROOT
ATOM      1  C   UNL     1      -0.813   1.632  -3.619  0.00  0.00    +0.039 A 
ATOM      2  C   UNL     1      -1.831   0.996  -4.271  0.00  0.00    +0.146 A 
ATOM      3  N   UNL     1      -2.204   1.760  -5.313  0.00  0.00    -0.223 NA
ATOM      4  C   UNL     1      -1.457   2.851  -5.337  0.00  0.00    +0.139 A 
ATOM      5  N   UNL     1      -0.580   2.798  -4.282  0.00  0.00    -0.303 N 
ATOM      6  C   UNL     1       0.318   3.809  -4.079  0.00  0.00    +0.113 A 
ATOM      7  C   UNL     1       0.349   4.877  -4.902  0.00  0.00    +0.058 A 
ATOM      8  C   UNL     1      -0.540   4.962  -5.989  0.00  0.00    +0.025 A 
ATOM      9  C   UNL     1      -1.435   3.963  -6.207  0.00  0.00    +0.048 A 
ATOM     10 CL   UNL     1       1.493   6.152  -4.620  0.00  0.00    -0.082 Cl
ENDROOT
BRANCH   2  11
ATOM     11  C   UNL     1      -2.420  -0.304  -3.896  0.00  0.00    +0.267 C 
ATOM     12  O   UNL     1      -1.928  -0.958  -2.996  0.00  0.00    -0.268 OA
ATOM     13  N   UNL     1      -3.503  -0.768  -4.551  0.00  0.00    -0.291 N 
ATOM     14  C   UNL     1      -4.158  -2.020  -4.141  0.00  0.00    +0.139 C 
ATOM     15  C   UNL     1      -5.660  -1.754  -3.989  0.00  0.00    +0.133 C 
ATOM     16  O   UNL     1      -6.152  -1.141  -5.183  0.00  0.00    -0.371 OA
ATOM     17  C   UNL     1      -5.573   0.135  -5.468  0.00  0.00    +0.133 C 
ATOM     18  C   UNL     1      -4.070  -0.032  -5.692  0.00  0.00    +0.139 C 
ATOM     19  C   UNL     1      -6.218   0.720  -6.726  0.00  0.00    +0.039 C 
ATOM     20  C   UNL     1      -6.392  -3.076  -3.753  0.00  0.00    +0.039 C 
ENDBRANCH   2  11
BRANCH   1  21
ATOM     21  C   UNL     1      -0.088   1.139  -2.393  0.00  0.00    -0.025 C 
BRANCH  21  22
ATOM     22  N   UNL     1      -0.783   1.633  -1.189  0.00  0.00    +0.385 N 
ATOM     23  H   UNL     1      -0.791   2.660  -1.200  0.00  0.00    -0.085 HD
ATOM     24  H   UNL     1      -1.748   1.284  -1.188  0.00  0.00    -0.085 HD
BRANCH  22  25
ATOM     25  C   UNL     1      -0.094   1.165   0.028  0.00  0.00    -0.046 C 
BRANCH  25  30
ATOM     26  C   UNL     1      -2.894   3.162   4.674  0.00  0.00    +0.047 C 
ATOM     27  C   UNL     1      -2.164   2.641   3.463  0.00  0.00    -0.015 A 
ATOM     28  C   UNL     1      -1.145   3.384   2.897  0.00  0.00    +0.006 A 
ATOM     29  C   UNL     1      -0.472   2.904   1.790  0.00  0.00    +0.002 A 
ATOM     30  C   UNL     1      -0.825   1.685   1.240  0.00  0.00    -0.062 A 
ATOM     31  C   UNL     1      -1.843   0.940   1.804  0.00  0.00    +0.040 A 
ATOM     32  C   UNL     1      -2.514   1.418   2.917  0.00  0.00    +0.126 A 
ATOM     33  F   UNL     1      -3.510   0.691   3.469  0.00  0.00    -0.205 F 
ENDBRANCH  25  30
ENDBRANCH  22  25
ENDBRANCH  21  22
ENDBRANCH   1  21
TORSDOF 5
