REMARK  Name = ZINC63315474
REMARK  7 active torsions:
REMARK  status: ('A' for Active; 'I' for Inactive)
REMARK    1  A    between atoms: C_1  and  S_2
REMARK    2  A    between atoms: S_2  and  N_5
REMARK    3  A    between atoms: N_5  and  C_6
REMARK    4  A    between atoms: C_11  and  C_15
REMARK    5  A    between atoms: N_17  and  C_18
REMARK    6  A    between atoms: C_18  and  C_19
REMARK    7  A    between atoms: C_19  and  C_20
REMARK                            x       y       z     vdW  Elec       q    Type
REMARK                         _______ _______ _______ _____ _____    ______ ____
ROOT
ATOM      1  C   UNL     1       1.918  -7.836  -3.238  0.00  0.00    +0.244 C 
ATOM      2  O   UNL     1       2.522  -7.879  -4.293  0.00  0.00    -0.270 OA
ATOM      3  N   UNL     1       1.572  -8.979  -2.613  0.00  0.00    -0.311 N 
ATOM      4  H   UNL     1       1.090  -8.945  -1.772  0.00  0.00    +0.149 HD
ENDROOT
BRANCH   1  10
ATOM      5  C   UNL     1       0.989  -1.737  -1.714  0.00  0.00    +0.202 A 
ATOM      6  N   UNL     1       0.618  -2.810  -1.049  0.00  0.00    -0.222 NA
ATOM      7  C   UNL     1       0.878  -4.059  -1.483  0.00  0.00    +0.080 A 
ATOM      8  C   UNL     1       0.534  -5.286  -0.863  0.00  0.00    +0.030 A 
ATOM      9  C   UNL     1       0.869  -6.472  -1.428  0.00  0.00    +0.015 A 
ATOM     10  C   UNL     1       1.564  -6.534  -2.643  0.00  0.00    +0.038 A 
ATOM     11  C   UNL     1       1.919  -5.341  -3.283  0.00  0.00    +0.030 A 
ATOM     12  C   UNL     1       1.580  -4.147  -2.710  0.00  0.00    +0.042 A 
ATOM     13  S   UNL     1       1.804  -2.438  -3.142  0.00  0.00    -0.049 S 
BRANCH   5  14
ATOM     14  N   UNL     1       0.795  -0.411  -1.394  0.00  0.00    -0.075 NA
BRANCH  14  16
ATOM     15  C   UNL     1      -0.022   1.810   0.012  0.00  0.00    +0.220 C 
ATOM     16  S   UNL     1       0.002  -0.004   0.002  0.00  0.00    +0.061 S 
ATOM     17  O   UNL     1       0.835  -0.488   1.046  0.00  0.00    -0.154 OA
ATOM     18  O   UNL     1      -1.315  -0.510  -0.168  0.00  0.00    -0.154 OA
ENDBRANCH  14  16
ENDBRANCH   5  14
ENDBRANCH   1  10
BRANCH   3  19
ATOM     19  C   UNL     1       1.923 -10.272  -3.204  0.00  0.00    +0.109 C 
BRANCH  19  20
ATOM     20  C   UNL     1       1.417 -11.400  -2.301  0.00  0.00    +0.052 C 
BRANCH  20  21
ATOM     21  C   UNL     1       1.779 -12.730  -2.909  0.00  0.00    -0.040 C 
ATOM     22  C   UNL     1       2.864 -13.486  -2.626  0.00  0.00    +0.000 A 
ATOM     23  C   UNL     1       3.991 -13.301  -1.704  0.00  0.00    +0.030 A 
ATOM     24  C   UNL     1       4.950 -14.254  -1.640  0.00  0.00    +0.042 A 
ATOM     25  C   UNL     1       4.894 -15.410  -2.433  0.00  0.00    +0.022 A 
ATOM     26  C   UNL     1       3.891 -15.649  -3.303  0.00  0.00    +0.027 A 
ATOM     27  C   UNL     1       2.829 -14.715  -3.451  0.00  0.00    +0.043 A 
ATOM     28  N   UNL     1       1.763 -14.719  -4.214  0.00  0.00    -0.380 N 
ATOM     29  C   UNL     1       0.997 -13.495  -3.954  0.00  0.00    +0.144 C 
ATOM     30 CL   UNL     1       6.284 -14.039  -0.551  0.00  0.00    -0.084 Cl
ATOM     31  H   UNL     1       1.519 -15.417  -4.842  0.00  0.00    +0.160 HD
ENDBRANCH  20  21
ENDBRANCH  19  20
ENDBRANCH   3  19
TORSDOF 6
