REMARK  Name = ZINC00885820
REMARK  12 active torsions:
REMARK  status: ('A' for Active; 'I' for Inactive)
REMARK    1  A    between atoms: C_1  and  C_2
REMARK    2  A    between atoms: C_5  and  C_7
REMARK    3  A    between atoms: C_7  and  C_9
REMARK    4  A    between atoms: C_7  and  N_19
REMARK    5  A    between atoms: N_11  and  C_12
REMARK    6  A    between atoms: C_12  and  C_13
REMARK    7  A    between atoms: N_19  and  C_20
REMARK    8  A    between atoms: C_20  and  C_21
REMARK    9  A    between atoms: C_24  and  O_27
REMARK   10  A    between atoms: O_27  and  C_28
REMARK   11  A    between atoms: C_29  and  C_31
REMARK   12  A    between atoms: C_34  and  C_37
REMARK                            x       y       z     vdW  Elec       q    Type
REMARK                         _______ _______ _______ _____ _____    ______ ____
ROOT
ATOM      1  N   UNL     1       2.922  -3.051   1.607  0.00  0.00    -0.274 N 
ATOM      2  C   UNL     1       3.829  -3.270   2.580  0.00  0.00    +0.264 C 
ATOM      3  O   UNL     1       3.881  -4.354   3.131  0.00  0.00    -0.268 OA
ENDROOT
BRANCH   2   4
ATOM      4  C   UNL     1       4.753  -2.202   2.974  0.00  0.00    +0.102 A 
ATOM      5  C   UNL     1       5.474  -2.145   4.150  0.00  0.00    +0.033 A 
ATOM      6  C   UNL     1       6.224  -0.971   4.124  0.00  0.00    +0.028 A 
ATOM      7  C   UNL     1       5.952  -0.328   2.935  0.00  0.00    +0.047 A 
ATOM      8  N   UNL     1       5.059  -1.083   2.232  0.00  0.00    -0.351 N 
ATOM      9  H   UNL     1       4.699  -0.867   1.358  0.00  0.00    +0.166 HD
BRANCH   7  10
ATOM     10  C   UNL     1       6.533   0.958   2.495  0.00  0.00    -0.002 A 
ATOM     11  C   UNL     1       6.168   1.508   1.265  0.00  0.00    +0.010 A 
ATOM     12  C   UNL     1       6.714   2.708   0.860  0.00  0.00    +0.001 A 
ATOM     13  C   UNL     1       7.622   3.367   1.670  0.00  0.00    +0.000 A 
ATOM     14  C   UNL     1       7.989   2.827   2.890  0.00  0.00    +0.001 A 
ATOM     15  C   UNL     1       7.446   1.631   3.309  0.00  0.00    +0.010 A 
ENDBRANCH   7  10
ENDBRANCH   2   4
BRANCH   1  16
ATOM     16  C   UNL     1       1.948  -4.092   1.267  0.00  0.00    +0.229 C 
BRANCH  16  21
ATOM     17  C   UNL     1      -2.056  -1.033   1.041  0.00  0.00    +0.086 C 
ATOM     18  C   UNL     1      -1.188  -2.224   1.357  0.00  0.00    +0.102 A 
ATOM     19  C   UNL     1      -1.573  -3.320   2.036  0.00  0.00    +0.045 A 
ATOM     20  C   UNL     1      -0.450  -4.177   2.099  0.00  0.00    +0.047 A 
ATOM     21  C   UNL     1       0.553  -3.554   1.454  0.00  0.00    +0.135 A 
ATOM     22  O   UNL     1       0.098  -2.374   1.002  0.00  0.00    -0.462 OA
ENDBRANCH  16  21
BRANCH  16  23
ATOM     23  C   UNL     1       2.138  -4.507  -0.169  0.00  0.00    +0.241 C 
ATOM     24  O   UNL     1       3.101  -4.113  -0.792  0.00  0.00    -0.273 OA
ATOM     25  N   UNL     1       1.237  -5.316  -0.762  0.00  0.00    -0.311 N 
ATOM     26  H   UNL     1       0.467  -5.630  -0.264  0.00  0.00    +0.149 HD
BRANCH  25  27
ATOM     27  C   UNL     1       1.422  -5.719  -2.158  0.00  0.00    +0.135 C 
BRANCH  27  28
ATOM     28  C   UNL     1       0.268  -6.630  -2.582  0.00  0.00    +0.135 C 
ATOM     29  C   UNL     1       0.515  -7.157  -4.012  0.00  0.00    +0.035 C 
ATOM     30  C   UNL     1      -0.908  -7.113  -4.631  0.00  0.00    +0.031 C 
ATOM     31  C   UNL     1      -1.494  -5.859  -3.933  0.00  0.00    +0.160 C 
ATOM     32  O   UNL     1      -0.957  -5.887  -2.599  0.00  0.00    -0.375 OA
ENDBRANCH  27  28
ENDBRANCH  25  27
ENDBRANCH  16  23
ENDBRANCH   1  16
BRANCH   1  33
ATOM     33  C   UNL     1       2.909  -1.774   0.891  0.00  0.00    +0.144 C 
BRANCH  33  34
ATOM     34  C   UNL     1       3.799  -1.870  -0.322  0.00  0.00    -0.030 A 
ATOM     35  C   UNL     1       5.099  -2.319  -0.191  0.00  0.00    +0.009 A 
ATOM     36  C   UNL     1       5.917  -2.408  -1.301  0.00  0.00    +0.046 A 
ATOM     37  C   UNL     1       5.431  -2.045  -2.549  0.00  0.00    +0.120 A 
ATOM     38  C   UNL     1       4.125  -1.595  -2.678  0.00  0.00    +0.046 A 
ATOM     39  C   UNL     1       3.310  -1.513  -1.566  0.00  0.00    +0.009 A 
BRANCH  37  40
ATOM     40  O   UNL     1       6.233  -2.131  -3.643  0.00  0.00    -0.495 OA
ATOM     41  C   UNL     1       5.666  -1.741  -4.895  0.00  0.00    +0.277 C 
ENDBRANCH  37  40
ENDBRANCH  33  34
ENDBRANCH   1  33
TORSDOF 10
