REMARK  Name = ZINC64220424
REMARK  10 active torsions:
REMARK  status: ('A' for Active; 'I' for Inactive)
REMARK    1  A    between atoms: C_1  and  C_2
REMARK    2  A    between atoms: N_5  and  C_8
REMARK    3  A    between atoms: C_8  and  C_10
REMARK    4  A    between atoms: C_8  and  C_30
REMARK    5  A    between atoms: C_10  and  N_11
REMARK    6  A    between atoms: C_12  and  C_14
REMARK    7  A    between atoms: C_14  and  C_16
REMARK    8  A    between atoms: C_14  and  N_26
REMARK    9  A    between atoms: C_16  and  C_17
REMARK   10  A    between atoms: C_27  and  C_29
REMARK                            x       y       z     vdW  Elec       q    Type
REMARK                         _______ _______ _______ _____ _____    ______ ____
ROOT
ATOM      1  N   UNL     1      -2.866  -4.098   0.201  0.00  0.00    -0.315 N 
ATOM      2  C   UNL     1      -4.169  -4.399   0.030  0.00  0.00    +0.234 C 
ATOM      3  O   UNL     1      -4.765  -5.020   0.884  0.00  0.00    -0.274 OA
ATOM      4  H   UNL     1      -2.389  -3.602  -0.482  0.00  0.00    +0.149 HD
ENDROOT
BRANCH   1   5
ATOM      5  C   UNL     1      -2.170  -4.522   1.418  0.00  0.00    +0.094 C 
BRANCH   5   6
ATOM      6  C   UNL     1      -0.745  -3.965   1.411  0.00  0.00    -0.013 C 
BRANCH   6  11
ATOM      7  C   UNL     1       1.997  -4.154   6.408  0.00  0.00    +0.007 C 
ATOM      8  C   UNL     1       1.328  -3.665   5.122  0.00  0.00    -0.018 C 
ATOM      9  C   UNL     1      -0.141  -4.097   5.113  0.00  0.00    -0.015 C 
ATOM     10  C   UNL     1      -0.784  -3.674   3.790  0.00  0.00    -0.078 C 
ATOM     11  N   UNL     1      -0.077  -4.312   2.673  0.00  0.00    +0.386 N 
ATOM     12  C   UNL     1       1.314  -3.846   2.632  0.00  0.00    -0.078 C 
ATOM     13  C   UNL     1       2.037  -4.276   3.911  0.00  0.00    -0.015 C 
ATOM     14  H   UNL     1      -0.093  -5.313   2.795  0.00  0.00    -0.081 HD
ENDBRANCH   6  11
BRANCH   6  15
ATOM     15  C   UNL     1       0.021  -4.558   0.258  0.00  0.00    -0.022 A 
ATOM     16  C   UNL     1       0.299  -4.014  -0.953  0.00  0.00    +0.009 A 
ATOM     17  C   UNL     1       1.027  -4.751  -1.867  0.00  0.00    +0.008 A 
ATOM     18  C   UNL     1       1.442  -5.996  -1.527  0.00  0.00    +0.045 A 
ATOM     19  S   UNL     1       0.805  -6.157   0.133  0.00  0.00    -0.103 S 
ENDBRANCH   6  15
ENDBRANCH   5   6
ENDBRANCH   1   5
BRANCH   2  20
ATOM     20  C   UNL     1      -4.885  -3.963  -1.222  0.00  0.00    +0.163 C 
BRANCH  20  21
ATOM     21  N   UNL     1      -6.330  -3.967  -0.985  0.00  0.00    -0.304 N 
ATOM     22  C   UNL     1      -6.952  -5.111  -0.635  0.00  0.00    +0.211 C 
ATOM     23  O   UNL     1      -6.316  -6.136  -0.517  0.00  0.00    -0.276 OA
ATOM     24  C   UNL     1      -8.440  -5.115  -0.391  0.00  0.00    +0.109 C 
ATOM     25  H   UNL     1      -6.840  -3.147  -1.079  0.00  0.00    +0.149 HD
ENDBRANCH  20  21
BRANCH  20  26
ATOM     26  C   UNL     1      -4.552  -4.928  -2.362  0.00  0.00    +0.065 C 
BRANCH  26  27
ATOM     27  C   UNL     1      -5.168  -4.425  -3.642  0.00  0.00    -0.039 C 
ATOM     28  C   UNL     1      -4.567  -3.673  -4.593  0.00  0.00    -0.001 A 
ATOM     29  C   UNL     1      -3.213  -3.120  -4.715  0.00  0.00    +0.010 A 
ATOM     30  C   UNL     1      -2.899  -2.389  -5.809  0.00  0.00    +0.001 A 
ATOM     31  C   UNL     1      -3.832  -2.148  -6.826  0.00  0.00    +0.002 A 
ATOM     32  C   UNL     1      -5.095  -2.623  -6.786  0.00  0.00    +0.026 A 
ATOM     33  C   UNL     1      -5.534  -3.404  -5.681  0.00  0.00    +0.043 A 
ATOM     34  N   UNL     1      -6.687  -3.967  -5.414  0.00  0.00    -0.380 N 
ATOM     35  C   UNL     1      -6.581  -4.663  -4.127  0.00  0.00    +0.144 C 
ATOM     36  H   UNL     1      -7.478  -3.933  -5.975  0.00  0.00    +0.160 HD
ENDBRANCH  26  27
ENDBRANCH  20  26
ENDBRANCH   2  20
TORSDOF 8
