REMARK  Name = ZINC58141755
REMARK  5 active torsions:
REMARK  status: ('A' for Active; 'I' for Inactive)
REMARK    1  A    between atoms: C_8  and  C_29
REMARK    2  A    between atoms: N_10  and  S_11
REMARK    3  A    between atoms: S_11  and  C_14
REMARK    4  A    between atoms: C_17  and  S_20
REMARK    5  A    between atoms: S_20  and  N_23
REMARK                            x       y       z     vdW  Elec       q    Type
REMARK                         _______ _______ _______ _____ _____    ______ ____
ROOT
ATOM      1  S   UNL     1       5.086  -0.369  -0.050  0.00  0.00    +0.075 S 
ATOM      2  O   UNL     1       5.830  -1.440  -0.613  0.00  0.00    -0.150 OA
ATOM      3  O   UNL     1       5.108   0.944  -0.595  0.00  0.00    -0.150 OA
ENDROOT
BRANCH   1  12
ATOM      4  C   UNL     1      -0.017   1.378   0.010  0.00  0.00    +0.000 A 
ATOM      5  C   UNL     1       1.174   2.082   0.002  0.00  0.00    +0.002 A 
ATOM      6  C   UNL     1       2.377   1.411  -0.013  0.00  0.00    +0.025 A 
ATOM      7  C   UNL     1       2.405   0.014  -0.021  0.00  0.00    +0.055 A 
ATOM      8  C   UNL     1       1.206  -0.682  -0.013  0.00  0.00    -0.022 A 
ATOM      9  C   UNL     1       0.002  -0.004   0.002  0.00  0.00    +0.005 A 
ATOM     10  C   UNL     1       1.510  -2.163  -0.023  0.00  0.00    +0.070 C 
ATOM     11  C   UNL     1       3.046  -2.241  -0.038  0.00  0.00    +0.187 C 
ATOM     12  N   UNL     1       3.501  -0.849  -0.036  0.00  0.00    -0.191 N 
BRANCH  11  13
ATOM     13  C   UNL     1       3.521  -2.947  -1.282  0.00  0.00    +0.233 C 
ATOM     14  O   UNL     1       4.225  -2.363  -2.079  0.00  0.00    -0.274 OA
ATOM     15  N   UNL     1       3.164  -4.226  -1.510  0.00  0.00    -0.328 N 
ATOM     16  H   UNL     1       2.601  -4.693  -0.872  0.00  0.00    +0.145 HD
ATOM     17  H   UNL     1       3.470  -4.681  -2.310  0.00  0.00    +0.145 HD
ENDBRANCH  11  13
ENDBRANCH   1  12
BRANCH   1  18
ATOM     18  C   UNL     1       5.602  -0.226   1.629  0.00  0.00    +0.109 A 
ATOM     19  C   UNL     1       5.452   0.975   2.298  0.00  0.00    +0.031 A 
ATOM     20  C   UNL     1       5.857   1.087   3.615  0.00  0.00    +0.030 A 
ATOM     21  C   UNL     1       6.410  -0.002   4.263  0.00  0.00    +0.106 A 
ATOM     22  C   UNL     1       6.559  -1.202   3.594  0.00  0.00    +0.030 A 
ATOM     23  C   UNL     1       6.151  -1.315   2.279  0.00  0.00    +0.031 A 
BRANCH  21  24
ATOM     24  S   UNL     1       6.927   0.142   5.942  0.00  0.00    +0.061 S 
ATOM     25  O   UNL     1       7.913  -0.860   6.150  0.00  0.00    -0.153 OA
ATOM     26  O   UNL     1       7.182   1.521   6.172  0.00  0.00    -0.153 OA
BRANCH  24  27
ATOM     27  N   UNL     1       5.631  -0.265   6.889  0.00  0.00    -0.177 NA
ATOM     28  C   UNL     1       4.671   0.759   7.324  0.00  0.00    +0.109 C 
ATOM     29  C   UNL     1       3.260   0.309   6.934  0.00  0.00    +0.017 C 
ATOM     30  C   UNL     1       2.996  -1.085   7.509  0.00  0.00    +0.003 C 
ATOM     31  C   UNL     1       4.000  -2.079   6.922  0.00  0.00    +0.017 C 
ATOM     32  C   UNL     1       5.417  -1.657   7.307  0.00  0.00    +0.109 C 
ENDBRANCH  24  27
ENDBRANCH  21  24
ENDBRANCH   1  18
TORSDOF 5
