REMARK  Name = ZINC13516069
REMARK  12 active torsions:
REMARK  status: ('A' for Active; 'I' for Inactive)
REMARK    1  A    between atoms: C_1  and  C_2
REMARK    2  A    between atoms: N_9  and  C_10
REMARK    3  A    between atoms: C_15  and  O_16
REMARK    4  A    between atoms: O_16  and  C_17
REMARK    5  A    between atoms: N_18  and  C_39
REMARK    6  A    between atoms: N_21  and  C_24
REMARK    7  A    between atoms: C_24  and  C_25
REMARK    8  A    between atoms: C_25  and  C_27
REMARK    9  A    between atoms: C_25  and  C_28
REMARK   10  A    between atoms: C_28  and  N_29
REMARK   11  A    between atoms: C_31  and  C_38
REMARK   12  A    between atoms: C_34  and  C_37
REMARK                            x       y       z     vdW  Elec       q    Type
REMARK                         _______ _______ _______ _____ _____    ______ ____
ROOT
ATOM      1  C   UNL     1       0.969   1.595  -0.376  0.00  0.00    +0.065 C 
ATOM      2  C   UNL     1       0.835   0.095  -0.323  0.00  0.00    +0.041 A 
ATOM      3  C   UNL     1       0.722  -0.716  -1.371  0.00  0.00    +0.116 A 
ATOM      4  N   UNL     1       0.621  -2.017  -0.907  0.00  0.00    -0.277 N 
ATOM      5  C   UNL     1       0.486  -3.345  -1.280  0.00  0.00    +0.157 A 
ATOM      6  C   UNL     1       0.463  -4.083  -0.097  0.00  0.00    +0.170 A 
ATOM      7  N   UNL     1       0.578  -3.225   0.912  0.00  0.00    -0.193 NA
ATOM      8  C   UNL     1       0.673  -1.988   0.445  0.00  0.00    +0.223 A 
ATOM      9  N   UNL     1       0.813  -0.678   0.824  0.00  0.00    -0.279 N 
ATOM     10  N   UNL     1       0.335  -5.462  -0.173  0.00  0.00    -0.279 N 
ATOM     11  C   UNL     1       0.236  -6.064  -1.374  0.00  0.00    +0.333 A 
ATOM     12  O   UNL     1       0.124  -7.274  -1.423  0.00  0.00    -0.246 OA
ATOM     13  N   UNL     1       0.257  -5.361  -2.519  0.00  0.00    -0.259 N 
ATOM     14  C   UNL     1       0.380  -4.017  -2.509  0.00  0.00    +0.283 A 
ATOM     15  O   UNL     1       0.397  -3.393  -3.555  0.00  0.00    -0.265 OA
ATOM     16  C   UNL     1       0.307  -6.264   1.052  0.00  0.00    +0.155 C 
ENDROOT
BRANCH   9  17
ATOM     17  C   UNL     1       0.912  -0.205   2.140  0.00  0.00    +0.091 A 
ATOM     18  C   UNL     1      -0.233   0.134   2.847  0.00  0.00    +0.030 A 
ATOM     19  C   UNL     1      -0.132   0.600   4.144  0.00  0.00    +0.002 A 
ATOM     20  C   UNL     1       1.109   0.730   4.741  0.00  0.00    +0.004 A 
ATOM     21  C   UNL     1       2.254   0.395   4.043  0.00  0.00    +0.048 A 
ATOM     22  C   UNL     1       2.161  -0.079   2.745  0.00  0.00    +0.144 A 
BRANCH  22  23
ATOM     23  O   UNL     1       3.287  -0.415   2.060  0.00  0.00    -0.493 OA
ATOM     24  C   UNL     1       4.532  -0.260   2.742  0.00  0.00    +0.277 C 
ENDBRANCH  22  23
ENDBRANCH   9  17
BRANCH  13  25
ATOM     25  C   UNL     1       0.146  -6.064  -3.799  0.00  0.00    +0.131 C 
BRANCH  25  26
ATOM     26  C   UNL     1      -1.328  -6.180  -4.192  0.00  0.00    -0.011 C 
ATOM     27  C   UNL     1      -2.058  -7.065  -3.179  0.00  0.00    +0.007 C 
BRANCH  26  28
ATOM     28  C   UNL     1      -1.438  -6.802  -5.585  0.00  0.00    -0.074 C 
BRANCH  28  29
ATOM     29  N   UNL     1      -2.842  -6.795  -6.016  0.00  0.00    +0.380 N 
ATOM     30  C   UNL     1      -2.965  -7.513  -7.290  0.00  0.00    -0.076 C 
ATOM     31  C   UNL     1      -4.437  -7.578  -7.703  0.00  0.00    -0.031 C 
ATOM     32  C   UNL     1      -4.981  -6.155  -7.862  0.00  0.00    +0.003 C 
ATOM     33  C   UNL     1      -4.779  -5.393  -6.549  0.00  0.00    -0.031 C 
ATOM     34  C   UNL     1      -3.295  -5.408  -6.179  0.00  0.00    -0.076 C 
ATOM     35  C   UNL     1      -5.249  -3.946  -6.721  0.00  0.00    +0.005 C 
ATOM     36  C   UNL     1      -4.563  -8.325  -9.032  0.00  0.00    +0.005 C 
ATOM     37  H   UNL     1      -3.409  -7.253  -5.318  0.00  0.00    -0.082 HD
ENDBRANCH  28  29
ENDBRANCH  26  28
ENDBRANCH  25  26
ENDBRANCH  13  25
TORSDOF 6
