REMARK  Name = ZINC08569295
REMARK  10 active torsions:
REMARK  status: ('A' for Active; 'I' for Inactive)
REMARK    1  A    between atoms: C_1  and  C_2
REMARK    2  A    between atoms: C_2  and  O_3
REMARK    3  A    between atoms: O_3  and  C_4
REMARK    4  A    between atoms: C_7  and  C_10
REMARK    5  A    between atoms: C_13  and  C_24
REMARK    6  A    between atoms: C_19  and  N_23
REMARK    7  A    between atoms: C_20  and  C_21
REMARK    8  A    between atoms: C_27  and  O_30
REMARK    9  A    between atoms: O_30  and  C_31
REMARK   10  A    between atoms: C_31  and  C_32
REMARK                            x       y       z     vdW  Elec       q    Type
REMARK                         _______ _______ _______ _____ _____    ______ ____
ROOT
ATOM      1  C   UNL     1      -1.960  -6.213  -0.004  0.00  0.00    +0.102 C 
ATOM      2  C   UNL     1      -2.869  -6.546  -1.159  0.00  0.00    +0.054 A 
ATOM      3  C   UNL     1      -2.621  -6.513  -2.490  0.00  0.00    +0.074 A 
ATOM      4  N   UNL     1      -3.767  -6.903  -3.125  0.00  0.00    -0.273 N 
ATOM      5  H   UNL     1      -3.891  -6.976  -4.085  0.00  0.00    +0.189 HD
ATOM      6  N   UNL     1      -4.731  -7.179  -2.144  0.00  0.00    -0.135 NA
ATOM      7  C   UNL     1      -4.200  -6.969  -0.973  0.00  0.00    +0.245 A 
ATOM      8  O   UNL     1      -4.747  -7.105   0.266  0.00  0.00    -0.421 OA
ATOM      9  C   UNL     1      -3.908  -7.088   1.320  0.00  0.00    +0.201 C 
ATOM     10  C   UNL     1      -2.617  -6.694   1.266  0.00  0.00    +0.098 C 
ENDROOT
BRANCH   1  14
ATOM     11  C   UNL     1      -1.364  -1.986   0.189  0.00  0.00    +0.121 A 
ATOM     12  C   UNL     1      -0.274  -2.838   0.082  0.00  0.00    +0.046 A 
ATOM     13  C   UNL     1      -0.469  -4.204   0.020  0.00  0.00    +0.008 A 
ATOM     14  C   UNL     1      -1.750  -4.723   0.064  0.00  0.00    -0.034 A 
ATOM     15  C   UNL     1      -2.838  -3.876   0.171  0.00  0.00    +0.008 A 
ATOM     16  C   UNL     1      -2.647  -2.510   0.239  0.00  0.00    +0.046 A 
BRANCH  11  17
ATOM     17  O   UNL     1      -1.174  -0.642   0.251  0.00  0.00    -0.492 OA
BRANCH  17  19
ATOM     18  C   UNL     1       0.189   1.354   0.277  0.00  0.00    +0.048 C 
ATOM     19  C   UNL     1       0.175  -0.174   0.194  0.00  0.00    +0.225 C 
ENDBRANCH  17  19
ENDBRANCH  11  17
ENDBRANCH   1  14
BRANCH   3  20
ATOM     20  C   UNL     1      -1.348  -6.125  -3.136  0.00  0.00    +0.000 A 
ATOM     21  C   UNL     1      -0.141  -6.655  -2.678  0.00  0.00    +0.013 A 
ATOM     22  C   UNL     1       1.043  -6.292  -3.282  0.00  0.00    +0.046 A 
ATOM     23  C   UNL     1       1.037  -5.401  -4.347  0.00  0.00    +0.121 A 
ATOM     24  C   UNL     1      -0.162  -4.871  -4.806  0.00  0.00    +0.046 A 
ATOM     25  C   UNL     1      -1.351  -5.234  -4.210  0.00  0.00    +0.013 A 
BRANCH  23  26
ATOM     26  O   UNL     1       2.206  -5.045  -4.940  0.00  0.00    -0.487 OA
BRANCH  26  27
ATOM     27  C   UNL     1       2.127  -4.123  -6.029  0.00  0.00    +0.264 C 
BRANCH  27  28
ATOM     28  C   UNL     1       3.512  -3.849  -6.557  0.00  0.00    -0.010 A 
ATOM     29  C   UNL     1       4.259  -2.812  -6.029  0.00  0.00    +0.007 A 
ATOM     30  C   UNL     1       5.529  -2.560  -6.513  0.00  0.00    +0.000 A 
ATOM     31  C   UNL     1       6.053  -3.345  -7.524  0.00  0.00    +0.000 A 
ATOM     32  C   UNL     1       5.305  -4.382  -8.050  0.00  0.00    +0.000 A 
ATOM     33  C   UNL     1       4.037  -4.637  -7.564  0.00  0.00    +0.007 A 
ENDBRANCH  27  28
ENDBRANCH  26  27
ENDBRANCH  23  26
ENDBRANCH   3  20
BRANCH   9  34
ATOM     34  N   UNL     1      -4.398  -7.500   2.534  0.00  0.00    -0.328 N 
ATOM     35  H   UNL     1      -5.320  -7.791   2.611  0.00  0.00    +0.145 HD
ATOM     36  H   UNL     1      -3.822  -7.501   3.315  0.00  0.00    +0.145 HD
ENDBRANCH   9  34
BRANCH  10  37
ATOM     37  C   UNL     1      -1.837  -6.733   2.466  0.00  0.00    +0.101 C 
ATOM     38  N   UNL     1      -1.219  -6.764   3.418  0.00  0.00    -0.191 NA
ENDBRANCH  10  37
TORSDOF 9
