REMARK  Name = ZINC16812678
REMARK  8 active torsions:
REMARK  status: ('A' for Active; 'I' for Inactive)
REMARK    1  A    between atoms: C_1  and  C_2
REMARK    2  A    between atoms: N_4  and  C_5
REMARK    3  A    between atoms: C_14  and  C_17
REMARK    4  A    between atoms: C_17  and  O_19
REMARK    5  A    between atoms: O_19  and  C_20
REMARK    6  A    between atoms: C_20  and  C_21
REMARK    7  A    between atoms: C_24  and  C_30
REMARK    8  A    between atoms: C_26  and  N_27
REMARK                            x       y       z     vdW  Elec       q    Type
REMARK                         _______ _______ _______ _____ _____    ______ ____
ROOT
ATOM      1  C   UNL     1       0.027  -4.663  -4.054  0.00  0.00    +0.314 C 
ATOM      2  O   UNL     1       0.008  -3.873  -4.968  0.00  0.00    -0.250 OA
ENDROOT
BRANCH   1  10
ATOM      3  C   UNL     1       0.020  -2.136  -1.177  0.00  0.00    +0.036 C 
ATOM      4  C   UNL     1      -1.215  -2.667  -0.447  0.00  0.00    +0.029 C 
ATOM      5  C   UNL     1      -1.195  -4.197  -0.455  0.00  0.00    -0.008 C 
ATOM      6  C   UNL     1       0.068  -4.694   0.252  0.00  0.00    +0.007 C 
ATOM      7  C   UNL     1       1.304  -4.163  -0.479  0.00  0.00    -0.008 C 
ATOM      8  C   UNL     1       1.283  -2.633  -0.470  0.00  0.00    +0.029 C 
ATOM      9  C   UNL     1       1.297  -4.665  -1.924  0.00  0.00    +0.021 C 
ATOM     10  C   UNL     1       0.034  -4.168  -2.631  0.00  0.00    +0.070 C 
ATOM     11  C   UNL     1      -1.201  -4.699  -1.900  0.00  0.00    +0.021 C 
ATOM     12  C   UNL     1       0.013  -2.639  -2.622  0.00  0.00    +0.043 C 
BRANCH   3  16
ATOM     13  C   UNL     1      -0.018   1.503   0.010  0.00  0.00    +0.109 C 
ATOM     14  C   UNL     1       0.002  -0.004   0.002  0.00  0.00    +0.210 C 
ATOM     15  O   UNL     1       0.020  -0.616   1.049  0.00  0.00    -0.276 OA
ATOM     16  N   UNL     1       0.000  -0.672  -1.169  0.00  0.00    -0.310 N 
ATOM     17  H   UNL     1      -0.015  -0.182  -2.006  0.00  0.00    +0.149 HD
ENDBRANCH   3  16
ENDBRANCH   1  10
BRANCH   1  18
ATOM     18  O   UNL     1       0.043  -5.981  -4.306  0.00  0.00    -0.459 OA
BRANCH  18  19
ATOM     19  C   UNL     1       0.035  -6.379  -5.679  0.00  0.00    +0.269 C 
BRANCH  19  20
ATOM     20  C   UNL     1       0.055  -7.883  -5.766  0.00  0.00    +0.020 A 
ATOM     21  C   UNL     1       0.070  -8.640  -4.608  0.00  0.00    +0.010 A 
ATOM     22  C   UNL     1       0.089 -10.018  -4.681  0.00  0.00    +0.013 A 
ATOM     23  C   UNL     1       0.091 -10.648  -5.926  0.00  0.00    +0.039 A 
ATOM     24  C   UNL     1       0.075  -9.879  -7.090  0.00  0.00    +0.046 A 
ATOM     25  C   UNL     1       0.051  -8.502  -7.004  0.00  0.00    +0.133 A 
BRANCH  23  26
ATOM     26  C   UNL     1       0.112 -12.124  -6.012  0.00  0.00    +0.242 C 
ATOM     27  O   UNL     1       0.114 -12.670  -7.098  0.00  0.00    -0.270 OA
ATOM     28  N   UNL     1       0.128 -12.864  -4.886  0.00  0.00    -0.325 N 
ATOM     29  H   UNL     1       0.126 -12.428  -4.019  0.00  0.00    +0.145 HD
ATOM     30  H   UNL     1       0.141 -13.832  -4.941  0.00  0.00    +0.145 HD
ENDBRANCH  23  26
BRANCH  25  31
ATOM     31  N   UNL     1       0.028  -7.684  -8.237  0.00  0.00    +0.057 N 
ATOM     32  O   UNL     1       0.025  -8.223  -9.320  0.00  0.00    -0.126 OA
ATOM     33  O   UNL     1       0.012  -6.478  -8.163  0.00  0.00    -0.126 OA
ENDBRANCH  25  31
ENDBRANCH  19  20
ENDBRANCH  18  19
ENDBRANCH   1  18
TORSDOF 7
