REMARK  Name = ZINC14540426
REMARK  10 active torsions:
REMARK  status: ('A' for Active; 'I' for Inactive)
REMARK    1  A    between atoms: C_1  and  O_2
REMARK    2  A    between atoms: O_2  and  C_3
REMARK    3  A    between atoms: C_3  and  C_4
REMARK    4  A    between atoms: C_4  and  C_5
REMARK    5  A    between atoms: C_5  and  N_6
REMARK    6  A    between atoms: N_9  and  C_30
REMARK    7  A    between atoms: C_17  and  N_72
REMARK    8  A    between atoms: C_24  and  O_28
REMARK    9  A    between atoms: O_28  and  C_29
REMARK   10  A    between atoms: C_30  and  C_31
REMARK                            x       y       z     vdW  Elec       q    Type
REMARK                         _______ _______ _______ _____ _____    ______ ____
ROOT
ATOM      1  N   UNL     1      -1.170   2.009   0.065  0.00  0.00    -0.271 N 
ATOM      2  C   UNL     1      -0.008   1.345  -0.092  0.00  0.00    +0.312 C 
ATOM      3  O   UNL     1       0.064   0.149  -0.298  0.00  0.00    -0.252 OA
ATOM      4  N   UNL     1       1.057   2.151  -0.002  0.00  0.00    -0.218 N 
ATOM      5  C   UNL     1       0.694   3.430   0.229  0.00  0.00    +0.247 C 
ATOM      6  O   UNL     1       1.425   4.388   0.359  0.00  0.00    -0.273 OA
ATOM      7  C   UNL     1      -0.815   3.415   0.292  0.00  0.00    +0.112 C 
ATOM      8  C   UNL     1      -1.405   4.295  -0.806  0.00  0.00    +0.017 C 
ATOM      9  C   UNL     1      -2.932   4.282  -0.700  0.00  0.00    -0.076 C 
ATOM     10  C   UNL     1      -2.829   3.878   1.689  0.00  0.00    -0.076 C 
ATOM     11  C   UNL     1      -1.297   3.878   1.664  0.00  0.00    +0.017 C 
ATOM     12  N   UNL     1      -3.324   4.788   0.633  0.00  0.00    +0.382 N 
ATOM     13  H   UNL     1      -2.908   5.716   0.772  0.00  0.00    -0.081 HD
ENDROOT
BRANCH  12  14
ATOM     14  C   UNL     1      -4.794   4.904   0.717  0.00  0.00    -0.064 C 
ATOM     15  C   UNL     1      -5.279   5.904  -0.340  0.00  0.00    -0.010 C 
ATOM     16  C   UNL     1      -6.750   6.214  -0.070  0.00  0.00    +0.034 C 
ATOM     17  C   UNL     1      -7.544   4.941   0.065  0.00  0.00    -0.044 A 
ATOM     18  C   UNL     1      -8.925   5.025  -0.059  0.00  0.00    +0.007 A 
ATOM     19  C   UNL     1      -9.712   3.900   0.067  0.00  0.00    +0.046 A 
ATOM     20  C   UNL     1      -9.118   2.671   0.318  0.00  0.00    +0.120 A 
ATOM     21  C   UNL     1      -7.742   2.587   0.438  0.00  0.00    +0.049 A 
ATOM     22  C   UNL     1      -6.953   3.721   0.310  0.00  0.00    -0.042 A 
ATOM     23  C   UNL     1      -5.462   3.557   0.446  0.00  0.00    +0.020 C 
BRANCH  20  24
ATOM     24  O   UNL     1      -9.885   1.556   0.446  0.00  0.00    -0.495 OA
ATOM     25  C   UNL     1     -11.298   1.721   0.310  0.00  0.00    +0.277 C 
ENDBRANCH  20  24
ENDBRANCH  12  14
BRANCH   1  26
ATOM     26  C   UNL     1      -2.519   1.439   0.021  0.00  0.00    +0.112 C 
BRANCH  26  27
ATOM     27  C   UNL     1      -2.707   0.481   1.199  0.00  0.00    +0.047 C 
BRANCH  27  28
ATOM     28  C   UNL     1      -4.102  -0.142   1.132  0.00  0.00    +0.161 C 
BRANCH  28  30
ATOM     29  C   UNL     1      -5.555  -1.677   2.263  0.00  0.00    +0.193 C 
ATOM     30  O   UNL     1      -4.277  -1.038   2.232  0.00  0.00    -0.383 OA
ENDBRANCH  28  30
ENDBRANCH  27  28
ENDBRANCH  26  27
ENDBRANCH   1  26
BRANCH   4  31
ATOM     31  C   UNL     1       2.444   1.700  -0.139  0.00  0.00    +0.173 C 
BRANCH  31  32
ATOM     32  C   UNL     1       2.859   1.782  -1.585  0.00  0.00    +0.059 A 
ATOM     33  C   UNL     1       3.523   2.904  -2.043  0.00  0.00    +0.025 A 
ATOM     34  C   UNL     1       3.900   2.968  -3.376  0.00  0.00    +0.003 A 
ATOM     35  C   UNL     1       3.594   1.897  -4.201  0.00  0.00    +0.020 A 
ATOM     36  C   UNL     1       2.928   0.808  -3.672  0.00  0.00    +0.111 A 
ATOM     37  N   UNL     1       2.589   0.779  -2.398  0.00  0.00    -0.258 NA
ENDBRANCH  31  32
ENDBRANCH   4  31
TORSDOF 8
