REMARK  Name = ZINC39843506
REMARK  6 active torsions:
REMARK  status: ('A' for Active; 'I' for Inactive)
REMARK    1  A    between atoms: C_7  and  C_10
REMARK    2  A    between atoms: N_11  and  N_12
REMARK    3  A    between atoms: C_17  and  C_20
REMARK    4  A    between atoms: C_20  and  C_21
REMARK    5  A    between atoms: N_23  and  C_24
REMARK    6  A    between atoms: C_27  and  N_30
REMARK                            x       y       z     vdW  Elec       q    Type
REMARK                         _______ _______ _______ _____ _____    ______ ____
ROOT
ATOM      1  N   UNL     1       0.351  -5.349  -0.044  0.00  0.00    -0.127 NA
ATOM      2  C   UNL     1       0.817  -6.596  -0.051  0.00  0.00    +0.183 C 
ATOM      3  N   UNL     1       0.085  -7.747  -0.049  0.00  0.00    -0.263 N 
ATOM      4  C   UNL     1       0.647  -8.948  -0.057  0.00  0.00    +0.233 C 
ATOM      5  O   UNL     1       0.015  -9.982  -0.056  0.00  0.00    -0.274 OA
ATOM      6  C   UNL     1       2.168  -8.896  -0.068  0.00  0.00    +0.149 C 
ATOM      7  S   UNL     1       2.428  -7.076  -0.071  0.00  0.00    -0.075 S 
ATOM      8  H   UNL     1      -0.883  -7.686  -0.041  0.00  0.00    +0.157 HD
ENDROOT
BRANCH   1  10
ATOM      9  C   UNL     1       0.710  -3.115  -0.046  0.00  0.00    +0.141 C 
ATOM     10  N   UNL     1       1.172  -4.354  -0.053  0.00  0.00    -0.155 NA
BRANCH   9  17
ATOM     11  C   UNL     1       0.032   1.368  -0.035  0.00  0.00    +0.001 A 
ATOM     12  C   UNL     1       1.214   2.108  -0.050  0.00  0.00    +0.002 A 
ATOM     13  C   UNL     1       2.432   1.510  -0.065  0.00  0.00    +0.026 A 
ATOM     14  C   UNL     1       2.522   0.095  -0.067  0.00  0.00    +0.043 A 
ATOM     15  N   UNL     1       3.567  -0.713  -0.081  0.00  0.00    -0.380 N 
ATOM     16  C   UNL     1       3.105  -2.104  -0.076  0.00  0.00    +0.150 C 
ATOM     17  C   UNL     1       1.594  -2.044  -0.056  0.00  0.00    +0.000 C 
ATOM     18  C   UNL     1       1.273  -0.679  -0.051  0.00  0.00    +0.004 A 
ATOM     19  C   UNL     1       0.044   0.009  -0.036  0.00  0.00    +0.010 A 
ATOM     20  H   UNL     1       4.494  -0.430  -0.093  0.00  0.00    +0.160 HD
ENDBRANCH   9  17
ENDBRANCH   1  10
BRANCH   6  21
ATOM     21  C   UNL     1       2.755  -9.545   1.187  0.00  0.00    +0.120 C 
BRANCH  21  22
ATOM     22  C   UNL     1       4.258  -9.582   1.077  0.00  0.00    +0.219 C 
ATOM     23  O   UNL     1       4.805  -9.134   0.092  0.00  0.00    -0.275 OA
ATOM     24  N   UNL     1       4.994 -10.113   2.074  0.00  0.00    -0.285 N 
ATOM     25  H   UNL     1       4.562 -10.411   2.890  0.00  0.00    +0.155 HD
BRANCH  24  26
ATOM     26  C   UNL     1       6.380 -10.236   1.931  0.00  0.00    +0.034 A 
ATOM     27  C   UNL     1       7.042 -11.327   2.479  0.00  0.00    +0.025 A 
ATOM     28  C   UNL     1       8.411 -11.445   2.337  0.00  0.00    +0.034 A 
ATOM     29  C   UNL     1       9.122 -10.479   1.649  0.00  0.00    +0.126 A 
ATOM     30  C   UNL     1       8.466  -9.392   1.102  0.00  0.00    +0.034 A 
ATOM     31  C   UNL     1       7.096  -9.271   1.236  0.00  0.00    +0.025 A 
BRANCH  29  32
ATOM     32  N   UNL     1      10.589 -10.609   1.498  0.00  0.00    +0.056 N 
ATOM     33  O   UNL     1      11.164 -11.559   1.976  0.00  0.00    -0.126 OA
ATOM     34  O   UNL     1      11.211  -9.765   0.896  0.00  0.00    -0.126 OA
ENDBRANCH  29  32
ENDBRANCH  24  26
ENDBRANCH  21  22
ENDBRANCH   6  21
TORSDOF 6
