REMARK  Name = ZINC08790320
REMARK  5 active torsions:
REMARK  status: ('A' for Active; 'I' for Inactive)
REMARK    1  A    between atoms: C_4  and  C_7
REMARK    2  A    between atoms: C_7  and  C_8
REMARK    3  A    between atoms: C_8  and  N_9
REMARK    4  A    between atoms: C_14  and  C_31
REMARK    5  A    between atoms: C_31  and  C_32
REMARK                            x       y       z     vdW  Elec       q    Type
REMARK                         _______ _______ _______ _____ _____    ______ ____
ROOT
ATOM      1  N   UNL     1      -1.117   1.966   0.017  0.00  0.00    -0.241 N 
ATOM      2  C   UNL     1      -0.014   1.208   0.009  0.00  0.00    +0.224 C 
ATOM      3  O   UNL     1       0.002  -0.004   0.002  0.00  0.00    -0.275 OA
ATOM      4  C   UNL     1       1.208   2.098   0.002  0.00  0.00    +0.073 C 
ATOM      5  C   UNL     1       1.936   1.968   1.357  0.00  0.00    -0.049 C 
ATOM      6  C   UNL     1       1.047   4.129   1.351  0.00  0.00    +0.050 C 
ATOM      7  C   UNL     1       0.606   3.531   0.009  0.00  0.00    +0.088 C 
ATOM      8  C   UNL     1      -0.885   3.284   0.025  0.00  0.00    +0.225 C 
ATOM      9  O   UNL     1      -1.738   4.145   0.037  0.00  0.00    -0.275 OA
ATOM     10  C   UNL     1      -0.044   4.042   2.380  0.00  0.00    -0.026 A 
ATOM     11  C   UNL     1      -0.747   2.994   2.930  0.00  0.00    +0.024 A 
ATOM     12  C   UNL     1      -1.719   3.237   3.885  0.00  0.00    +0.041 A 
ATOM     13  C   UNL     1      -1.983   4.535   4.283  0.00  0.00    +0.022 A 
ATOM     14  C   UNL     1      -1.282   5.588   3.733  0.00  0.00    +0.025 A 
ATOM     15  C   UNL     1      -0.302   5.352   2.772  0.00  0.00    +0.036 A 
ATOM     16  N   UNL     1       0.528   6.237   2.079  0.00  0.00    -0.286 N 
ATOM     17  C   UNL     1       1.351   5.597   1.225  0.00  0.00    +0.211 C 
ATOM     18  O   UNL     1       2.176   6.106   0.496  0.00  0.00    -0.277 OA
ATOM     19 CL   UNL     1      -2.605   1.916   4.581  0.00  0.00    -0.084 Cl
ATOM     20  H   UNL     1       0.514   7.199   2.199  0.00  0.00    +0.155 HD
ATOM     21  N   UNL     1       2.210   3.354   1.745  0.00  0.00    +0.394 N 
ATOM     22  H   UNL     1       3.048   3.699   1.262  0.00  0.00    -0.083 HD
ATOM     23  H   UNL     1       2.351   3.416   2.760  0.00  0.00    -0.083 HD
ENDROOT
BRANCH   1  24
ATOM     24  C   UNL     1      -2.468   1.399   0.022  0.00  0.00    +0.121 C 
BRANCH  24  25
ATOM     25  C   UNL     1      -2.931   1.197   1.466  0.00  0.00    +0.054 C 
BRANCH  25  29
ATOM     26  C   UNL     1      -6.870  -0.455   1.481  0.00  0.00    +0.000 A 
ATOM     27  C   UNL     1      -5.770  -1.292   1.472  0.00  0.00    +0.000 A 
ATOM     28  C   UNL     1      -4.495  -0.757   1.468  0.00  0.00    +0.004 A 
ATOM     29  C   UNL     1      -4.321   0.614   1.472  0.00  0.00    -0.046 A 
ATOM     30  C   UNL     1      -5.421   1.451   1.486  0.00  0.00    +0.004 A 
ATOM     31  C   UNL     1      -6.696   0.916   1.485  0.00  0.00    +0.000 A 
ENDBRANCH  25  29
ENDBRANCH  24  25
ENDBRANCH   1  24
BRANCH   5  32
ATOM     32  C   UNL     1       3.230   1.168   1.191  0.00  0.00    +0.080 C 
BRANCH  32  33
ATOM     33  C   UNL     1       3.861   0.949   2.542  0.00  0.00    +0.209 C 
ATOM     34  O   UNL     1       3.329   1.388   3.539  0.00  0.00    -0.276 OA
ATOM     35  N   UNL     1       5.017   0.263   2.642  0.00  0.00    -0.329 N 
ATOM     36  H   UNL     1       5.443  -0.088   1.844  0.00  0.00    +0.145 HD
ATOM     37  H   UNL     1       5.423   0.122   3.511  0.00  0.00    +0.145 HD
ENDBRANCH  32  33
ENDBRANCH   5  32
TORSDOF 5
