REMARK  Name = ZINC33033211
REMARK  12 active torsions:
REMARK  status: ('A' for Active; 'I' for Inactive)
REMARK    1  A    between atoms: C_1  and  C_2
REMARK    2  A    between atoms: C_2  and  C_3
REMARK    3  A    between atoms: C_3  and  C_4
REMARK    4  A    between atoms: C_4  and  N_5
REMARK    5  A    between atoms: N_5  and  C_6
REMARK    6  A    between atoms: C_7  and  C_9
REMARK    7  A    between atoms: C_12  and  N_27
REMARK    8  A    between atoms: C_13  and  N_15
REMARK    9  A    between atoms: N_15  and  S_16
REMARK   10  A    between atoms: S_16  and  C_19
REMARK   11  A    between atoms: C_21  and  C_26
REMARK   12  A    between atoms: C_24  and  C_25
REMARK                            x       y       z     vdW  Elec       q    Type
REMARK                         _______ _______ _______ _____ _____    ______ ____
ROOT
ATOM      1  C   UNL     1      -4.093   2.976   1.279  0.00  0.00    +0.039 A 
ATOM      2  C   UNL     1      -4.206   3.392   2.608  0.00  0.00    +0.015 A 
ATOM      3  C   UNL     1      -3.595   2.672   3.611  0.00  0.00    +0.026 A 
ATOM      4  C   UNL     1      -2.865   1.529   3.305  0.00  0.00    +0.052 A 
ATOM      5  C   UNL     1      -2.748   1.107   1.977  0.00  0.00    +0.070 A 
ATOM      6  C   UNL     1      -3.354   1.830   0.968  0.00  0.00    +0.039 A 
ENDROOT
BRANCH   4   7
ATOM      7  N   UNL     1      -2.250   0.803   4.322  0.00  0.00    -0.332 N 
ATOM      8  C   UNL     1      -2.295   1.538   5.594  0.00  0.00    +0.086 C 
ATOM      9  C   UNL     1      -1.541   0.745   6.665  0.00  0.00    -0.063 C 
ATOM     10  N   UNL     1      -2.150  -0.585   6.806  0.00  0.00    +0.381 N 
ATOM     11  C   UNL     1      -2.106  -1.319   5.534  0.00  0.00    -0.063 C 
ATOM     12  C   UNL     1      -2.860  -0.527   4.463  0.00  0.00    +0.086 C 
ATOM     13  H   UNL     1      -1.602  -1.161   7.566  0.00  0.00    -0.086 HD
ATOM     14  H   UNL     1      -3.200  -0.476   7.115  0.00  0.00    -0.086 HD
ENDBRANCH   4   7
BRANCH   1  17
ATOM     15  N   UNL     1      -5.949   4.318   0.421  0.00  0.00    -0.301 N 
ATOM     16  C   UNL     1      -6.553   4.270   1.755  0.00  0.00    +0.132 C 
ATOM     17  C   UNL     1      -4.747   3.748   0.205  0.00  0.00    +0.246 C 
ATOM     18  O   UNL     1      -4.202   3.869  -0.875  0.00  0.00    -0.270 OA
BRANCH  15  19
ATOM     19  C   UNL     1      -6.650   4.987  -0.677  0.00  0.00    +0.108 C 
BRANCH  19  20
ATOM     20  C   UNL     1      -7.545   3.977  -1.400  0.00  0.00    +0.019 C 
BRANCH  20  22
ATOM     21  C   UNL     1      -9.173   3.666  -3.270  0.00  0.00    +0.004 C 
ATOM     22  C   UNL     1      -8.278   4.675  -2.547  0.00  0.00    -0.002 C 
ENDBRANCH  20  22
ENDBRANCH  19  20
ENDBRANCH  15  19
ENDBRANCH   1  17
BRANCH   5  23
ATOM     23  N   UNL     1      -2.013  -0.044   1.670  0.00  0.00    -0.214 N 
ATOM     24  H   UNL     1      -1.103  -0.284   2.241  0.00  0.00    +0.174 HD
BRANCH  23  25
ATOM     25  S   UNL     1      -2.511  -1.044   0.448  0.00  0.00    +0.073 S 
ATOM     26  O   UNL     1      -3.906  -1.245   0.632  0.00  0.00    -0.150 OA
ATOM     27  O   UNL     1      -1.586  -2.122   0.402  0.00  0.00    -0.150 OA
BRANCH  25  28
ATOM     28  C   UNL     1      -2.325  -0.155  -1.061  0.00  0.00    +0.112 A 
ATOM     29  C   UNL     1      -3.434   0.137  -1.833  0.00  0.00    +0.032 A 
ATOM     30  C   UNL     1      -3.288   0.835  -3.017  0.00  0.00    -0.049 A 
ATOM     31  C   UNL     1      -2.033   1.242  -3.430  0.00  0.00    +0.004 A 
ATOM     32  C   UNL     1      -0.924   0.948  -2.659  0.00  0.00    +0.005 A 
ATOM     33  C   UNL     1      -1.070   0.251  -1.474  0.00  0.00    -0.024 A 
ATOM     34  C   UNL     1       0.138  -0.061  -0.629  0.00  0.00    +0.046 C 
ATOM     35  C   UNL     1      -4.497   1.153  -3.859  0.00  0.00    +0.044 C 
ENDBRANCH  25  28
ENDBRANCH  23  25
ENDBRANCH   5  23
TORSDOF 8
