REMARK  Name = ZINC24952644
REMARK  7 active torsions:
REMARK  status: ('A' for Active; 'I' for Inactive)
REMARK    1  A    between atoms: C_6  and  C_7
REMARK    2  A    between atoms: C_7  and  C_9
REMARK    3  A    between atoms: C_7  and  N_15
REMARK    4  A    between atoms: N_11  and  C_12
REMARK    5  A    between atoms: N_18  and  C_21
REMARK    6  A    between atoms: C_24  and  C_30
REMARK    7  A    between atoms: C_26  and  N_27
REMARK                            x       y       z     vdW  Elec       q    Type
REMARK                         _______ _______ _______ _____ _____    ______ ____
ROOT
ATOM      1  N   UNL     1      -1.402  -0.225  -0.117  0.00  0.00    +0.392 N 
ATOM      2  C   UNL     1      -2.190   0.241   1.032  0.00  0.00    -0.058 C 
ATOM      3  C   UNL     1      -3.679   0.031   0.745  0.00  0.00    +0.086 C 
ATOM      4  N   UNL     1      -3.928  -1.393   0.482  0.00  0.00    -0.332 N 
ATOM      5  C   UNL     1      -3.139  -1.860  -0.666  0.00  0.00    +0.086 C 
ATOM      6  C   UNL     1      -1.651  -1.649  -0.379  0.00  0.00    -0.058 C 
ATOM      7  H   UNL     1      -1.721   0.345  -1.002  0.00  0.00    -0.080 HD
ENDROOT
BRANCH   4   8
ATOM      8  C   UNL     1      -5.290  -1.635   0.286  0.00  0.00    +0.060 A 
ATOM      9  C   UNL     1      -5.976  -0.975  -0.725  0.00  0.00    +0.026 A 
ATOM     10  C   UNL     1      -7.322  -1.216  -0.916  0.00  0.00    +0.014 A 
ATOM     11  C   UNL     1      -7.987  -2.115  -0.102  0.00  0.00    +0.057 A 
ATOM     12  C   UNL     1      -7.307  -2.774   0.906  0.00  0.00    +0.047 A 
ATOM     13  C   UNL     1      -5.960  -2.541   1.099  0.00  0.00    +0.148 A 
BRANCH  11  14
ATOM     14  C   UNL     1      -9.456  -2.376  -0.314  0.00  0.00    +0.417 C 
ATOM     15  F   UNL     1      -9.918  -1.601  -1.382  0.00  0.00    -0.166 F 
ATOM     16  F   UNL     1      -9.652  -3.731  -0.602  0.00  0.00    -0.166 F 
ATOM     17  F   UNL     1     -10.162  -2.040   0.847  0.00  0.00    -0.166 F 
ENDBRANCH  11  14
BRANCH  13  18
ATOM     18  N   UNL     1      -5.232  -3.251   2.174  0.00  0.00    +0.058 N 
ATOM     19  O   UNL     1      -5.796  -4.112   2.826  0.00  0.00    -0.126 OA
ATOM     20  O   UNL     1      -4.068  -2.975   2.407  0.00  0.00    -0.126 OA
ENDBRANCH  13  18
ENDBRANCH   4   8
BRANCH   1  21
ATOM     21  C   UNL     1       0.030   0.029   0.090  0.00  0.00    +0.050 C 
BRANCH  21  27
ATOM     22  C   UNL     1       0.319  -0.121  -2.392  0.00  0.00    +0.005 A 
ATOM     23  C   UNL     1       1.027  -0.521  -3.510  0.00  0.00    +0.038 A 
ATOM     24  C   UNL     1       2.211  -1.224  -3.364  0.00  0.00    +0.123 A 
ATOM     25  C   UNL     1       2.688  -1.520  -2.098  0.00  0.00    +0.038 A 
ATOM     26  C   UNL     1       1.982  -1.114  -0.982  0.00  0.00    +0.005 A 
ATOM     27  C   UNL     1       0.799  -0.412  -1.128  0.00  0.00    -0.052 A 
ATOM     28  F   UNL     1       2.900  -1.621  -4.456  0.00  0.00    -0.205 F 
ENDBRANCH  21  27
BRANCH  21  29
ATOM     29  C   UNL     1       0.251   1.503   0.316  0.00  0.00    +0.204 C 
ATOM     30  O   UNL     1      -0.528   2.311  -0.144  0.00  0.00    -0.277 OA
ATOM     31  N   UNL     1       1.314   1.923   1.030  0.00  0.00    -0.314 N 
ATOM     32  H   UNL     1       2.020   1.191   1.448  0.00  0.00    +0.149 HD
BRANCH  31  33
ATOM     33  C   UNL     1       1.528   3.356   1.251  0.00  0.00    +0.073 C 
ATOM     34  C   UNL     1       2.952   3.890   1.086  0.00  0.00    +0.024 C 
ATOM     35  C   UNL     1       2.337   3.768   2.482  0.00  0.00    +0.024 C 
ENDBRANCH  31  33
ENDBRANCH  21  29
ENDBRANCH   1  21
TORSDOF 7
