REMARK  Name = ZINC39448865
REMARK  7 active torsions:
REMARK  status: ('A' for Active; 'I' for Inactive)
REMARK    1  A    between atoms: C_1  and  C_2
REMARK    2  A    between atoms: C_2  and  O_3
REMARK    3  A    between atoms: O_3  and  C_4
REMARK    4  A    between atoms: C_7  and  C_10
REMARK    5  A    between atoms: C_15  and  S_17
REMARK    6  A    between atoms: S_17  and  C_18
REMARK    7  A    between atoms: C_18  and  C_19
REMARK                            x       y       z     vdW  Elec       q    Type
REMARK                         _______ _______ _______ _____ _____    ______ ____
ROOT
ATOM      1  C   UNL     1      -2.001  -6.092  -0.011  0.00  0.00    +0.200 C 
ATOM      2  N   UNL     1      -0.874  -6.726   0.683  0.00  0.00    -0.336 N 
ATOM      3  C   UNL     1      -0.952  -6.996   1.959  0.00  0.00    +0.190 C 
ATOM      4  N   UNL     1      -2.063  -6.751   2.672  0.00  0.00    -0.195 NA
ATOM      5  C   UNL     1      -3.205  -6.464   2.073  0.00  0.00    +0.159 C 
ATOM      6  N   UNL     1      -3.240  -6.448   0.697  0.00  0.00    -0.300 N 
ATOM      7  N   UNL     1       0.142  -7.551   2.594  0.00  0.00    -0.329 N 
ATOM      8  H   UNL     1       0.952  -7.735   2.092  0.00  0.00    +0.145 HD
ATOM      9  H   UNL     1       0.100  -7.758   3.540  0.00  0.00    +0.145 HD
ATOM     10  H   UNL     1      -4.052  -6.663   0.212  0.00  0.00    +0.150 HD
ATOM     11  H   UNL     1      -0.067  -6.947   0.192  0.00  0.00    +0.164 HD
ENDROOT
BRANCH   1  15
ATOM     12  C   UNL     1      -1.498  -1.848   0.006  0.00  0.00    +0.121 A 
ATOM     13  C   UNL     1      -0.388  -2.679  -0.003  0.00  0.00    +0.046 A 
ATOM     14  C   UNL     1      -0.553  -4.051  -0.008  0.00  0.00    +0.011 A 
ATOM     15  C   UNL     1      -1.823  -4.596  -0.005  0.00  0.00    -0.007 A 
ATOM     16  C   UNL     1      -2.932  -3.769   0.004  0.00  0.00    +0.011 A 
ATOM     17  C   UNL     1      -2.772  -2.397   0.016  0.00  0.00    +0.046 A 
BRANCH  12  18
ATOM     18  O   UNL     1      -1.339  -0.499   0.012  0.00  0.00    -0.492 OA
BRANCH  18  20
ATOM     19  C   UNL     1      -0.019   1.526   0.010  0.00  0.00    +0.048 C 
ATOM     20  C   UNL     1       0.002  -0.004   0.002  0.00  0.00    +0.225 C 
ENDBRANCH  18  20
ENDBRANCH  12  18
ENDBRANCH   1  15
BRANCH   5  21
ATOM     21  S   UNL     1      -4.652  -6.110   3.014  0.00  0.00    -0.081 S 
BRANCH  21  22
ATOM     22  C   UNL     1      -4.102  -6.257   4.737  0.00  0.00    +0.173 C 
BRANCH  22  23
ATOM     23  C   UNL     1      -5.260  -5.975   5.659  0.00  0.00    +0.234 C 
ATOM     24  O   UNL     1      -6.348  -5.702   5.200  0.00  0.00    -0.274 OA
ATOM     25  N   UNL     1      -5.085  -6.026   6.995  0.00  0.00    -0.239 N 
ATOM     26  C   UNL     1      -3.834  -6.334   7.550  0.00  0.00    +0.044 A 
ATOM     27  C   UNL     1      -2.750  -5.541   7.190  0.00  0.00    +0.024 A 
ATOM     28  C   UNL     1      -1.503  -5.773   7.731  0.00  0.00    +0.002 A 
ATOM     29  C   UNL     1      -1.344  -6.803   8.641  0.00  0.00    +0.000 A 
ATOM     30  C   UNL     1      -2.414  -7.596   8.985  0.00  0.00    +0.005 A 
ATOM     31  C   UNL     1      -3.681  -7.391   8.434  0.00  0.00    -0.025 A 
ATOM     32  C   UNL     1      -4.723  -8.402   8.851  0.00  0.00    +0.042 C 
ATOM     33  C   UNL     1      -6.066  -8.196   8.173  0.00  0.00    +0.042 C 
ATOM     34  C   UNL     1      -6.664  -6.859   8.531  0.00  0.00    -0.025 A 
ATOM     35  C   UNL     1      -6.146  -5.768   7.873  0.00  0.00    +0.044 A 
ATOM     36  C   UNL     1      -6.651  -4.498   8.090  0.00  0.00    +0.024 A 
ATOM     37  C   UNL     1      -7.677  -4.339   9.007  0.00  0.00    +0.002 A 
ATOM     38  C   UNL     1      -8.182  -5.431   9.690  0.00  0.00    +0.000 A 
ATOM     39  C   UNL     1      -7.675  -6.715   9.452  0.00  0.00    +0.005 A 
ENDBRANCH  22  23
ENDBRANCH  21  22
ENDBRANCH   5  21
TORSDOF 6
