REMARK  Name = ZINC58367958
REMARK  8 active torsions:
REMARK  status: ('A' for Active; 'I' for Inactive)
REMARK    1  A    between atoms: C_1  and  C_2
REMARK    2  A    between atoms: C_2  and  C_3
REMARK    3  A    between atoms: C_6  and  C_9
REMARK    4  A    between atoms: C_11  and  C_14
REMARK    5  A    between atoms: C_14  and  N_15
REMARK    6  A    between atoms: C_19  and  S_26
REMARK    7  A    between atoms: C_23  and  C_25
REMARK    8  A    between atoms: S_26  and  N_29
REMARK                            x       y       z     vdW  Elec       q    Type
REMARK                         _______ _______ _______ _____ _____    ______ ____
ROOT
ATOM      1  N   UNL     1       2.434  -1.756   8.984  0.00  0.00    -0.321 N 
ATOM      2  C   UNL     1       3.442  -1.273   9.820  0.00  0.00    +0.034 A 
ATOM      3  C   UNL     1       4.709  -1.803  10.075  0.00  0.00    +0.025 A 
ATOM      4  C   UNL     1       5.566  -1.165  10.946  0.00  0.00    +0.030 A 
ATOM      5  C   UNL     1       5.178   0.005  11.573  0.00  0.00    +0.105 A 
ATOM      6  C   UNL     1       3.926   0.536  11.326  0.00  0.00    +0.034 A 
ATOM      7  C   UNL     1       3.063  -0.100  10.454  0.00  0.00    -0.023 A 
ATOM      8  C   UNL     1       1.662   0.255  10.009  0.00  0.00    +0.059 C 
ATOM      9  C   UNL     1       1.274  -0.862   9.027  0.00  0.00    +0.075 C 
ATOM     10  C   UNL     1       0.044  -1.614   9.542  0.00  0.00    +0.028 C 
ENDROOT
BRANCH   5  11
ATOM     11  S   UNL     1       6.277   0.817  12.686  0.00  0.00    +0.056 S 
ATOM     12  O   UNL     1       5.469   1.596  13.558  0.00  0.00    -0.153 OA
ATOM     13  O   UNL     1       7.177  -0.173  13.163  0.00  0.00    -0.153 OA
BRANCH  11  14
ATOM     14  N   UNL     1       7.176   1.884  11.795  0.00  0.00    -0.204 NA
ATOM     15  H   UNL     1       7.033   1.959  10.838  0.00  0.00    +0.144 HD
ATOM     16  H   UNL     1       7.847   2.434  12.229  0.00  0.00    +0.144 HD
ENDBRANCH  11  14
ENDBRANCH   5  11
BRANCH   1  17
ATOM     17  C   UNL     1       2.525  -2.974   8.176  0.00  0.00    +0.161 C 
BRANCH  17  20
ATOM     18  C   UNL     1       2.786  -1.910   4.665  0.00  0.00    +0.109 A 
ATOM     19  N   UNL     1       2.309  -2.212   5.864  0.00  0.00    -0.242 NA
ATOM     20  C   UNL     1       3.097  -2.638   6.823  0.00  0.00    +0.066 A 
ATOM     21  C   UNL     1       4.430  -2.776   6.593  0.00  0.00    +0.072 A 
ATOM     22  S   UNL     1       4.525  -2.260   4.883  0.00  0.00    -0.075 S 
BRANCH  18  26
ATOM     23  C   UNL     1       0.731  -0.503   1.223  0.00  0.00    -0.048 A 
ATOM     24  C   UNL     1       2.098  -0.709   1.173  0.00  0.00    +0.004 A 
ATOM     25  C   UNL     1       2.772  -1.165   2.287  0.00  0.00    +0.011 A 
ATOM     26  C   UNL     1       2.070  -1.420   3.467  0.00  0.00    +0.007 A 
ATOM     27  C   UNL     1       0.691  -1.211   3.510  0.00  0.00    +0.011 A 
ATOM     28  C   UNL     1       0.031  -0.749   2.391  0.00  0.00    +0.004 A 
BRANCH  23  30
ATOM     29  C   UNL     1      -0.019   1.526   0.010  0.00  0.00    +0.009 C 
ATOM     30  C   UNL     1       0.002  -0.004   0.002  0.00  0.00    +0.032 C 
ENDBRANCH  23  30
ENDBRANCH  18  26
ENDBRANCH  17  20
ENDBRANCH   1  17
TORSDOF 6
