REMARK  Name = ZINC32998287
REMARK  6 active torsions:
REMARK  status: ('A' for Active; 'I' for Inactive)
REMARK    1  A    between atoms: C_1  and  C_2
REMARK    2  A    between atoms: C_4  and  C_25
REMARK    3  A    between atoms: C_5  and  S_9
REMARK    4  A    between atoms: C_7  and  C_8
REMARK    5  A    between atoms: S_9  and  N_12
REMARK    6  A    between atoms: N_12  and  C_13
REMARK                            x       y       z     vdW  Elec       q    Type
REMARK                         _______ _______ _______ _____ _____    ______ ____
ROOT
ATOM      1  N   UNL     1      -0.168   0.804  -2.507  0.00  0.00    -0.183 NA
ATOM      2  H   UNL     1       0.291  -0.196  -2.515  0.00  0.00    +0.148 HD
ENDROOT
BRANCH   1   3
ATOM      3  C   UNL     1      -0.490   1.452  -1.234  0.00  0.00    +0.118 C 
ATOM      4  C   UNL     1       0.421   0.906  -0.131  0.00  0.00    +0.062 C 
ATOM      5  C   UNL     1      -0.097   1.342   1.216  0.00  0.00    -0.003 A 
ATOM      6  C   UNL     1       0.754   1.284   2.307  0.00  0.00    +0.022 A 
ATOM      7  C   UNL     1       0.313   1.673   3.557  0.00  0.00    +0.018 A 
ATOM      8  C   UNL     1      -0.985   2.123   3.723  0.00  0.00    +0.019 A 
ATOM      9  C   UNL     1      -1.834   2.184   2.640  0.00  0.00    +0.047 A 
ATOM     10  C   UNL     1      -1.393   1.795   1.379  0.00  0.00    +0.124 A 
ATOM     11  O   UNL     1      -2.260   1.874   0.336  0.00  0.00    -0.490 OA
ATOM     12  C   UNL     1      -1.944   1.147  -0.852  0.00  0.00    +0.249 C 
ATOM     13 BR   UNL     1       1.482   1.591   5.041  0.00  0.00    -0.050 Br
ENDBRANCH   1   3
BRANCH   1  14
ATOM     14  S   UNL     1      -0.260   1.662  -3.920  0.00  0.00    +0.059 S 
ATOM     15  O   UNL     1       0.140   0.779  -4.959  0.00  0.00    -0.153 OA
ATOM     16  O   UNL     1      -1.523   2.313  -3.918  0.00  0.00    -0.153 OA
BRANCH  14  21
ATOM     17  C   UNL     1       3.919   6.006  -3.645  0.00  0.00    +0.044 C 
ATOM     18  C   UNL     1       2.875   4.921  -3.713  0.00  0.00    -0.047 A 
ATOM     19  C   UNL     1       3.259   3.593  -3.739  0.00  0.00    +0.009 A 
ATOM     20  C   UNL     1       2.302   2.598  -3.803  0.00  0.00    -0.024 A 
ATOM     21  C   UNL     1       0.960   2.931  -3.839  0.00  0.00    +0.108 A 
ATOM     22  C   UNL     1       0.577   4.258  -3.818  0.00  0.00    +0.032 A 
ATOM     23  C   UNL     1       1.534   5.254  -3.751  0.00  0.00    -0.046 A 
ATOM     24  C   UNL     1       1.115   6.701  -3.723  0.00  0.00    +0.044 C 
ATOM     25  C   UNL     1       2.720   1.151  -3.832  0.00  0.00    +0.046 C 
ENDBRANCH  14  21
ENDBRANCH   1  14
TORSDOF 3
