REMARK  Name = ZINC35990793
REMARK  13 active torsions:
REMARK  status: ('A' for Active; 'I' for Inactive)
REMARK    1  A    between atoms: C_1  and  C_2
REMARK    2  A    between atoms: C_2  and  O_3
REMARK    3  A    between atoms: O_3  and  C_4
REMARK    4  A    between atoms: C_4  and  C_6
REMARK    5  A    between atoms: C_7  and  C_25
REMARK    6  A    between atoms: N_8  and  C_24
REMARK    7  A    between atoms: C_12  and  C_14
REMARK    8  A    between atoms: C_17  and  C_20
REMARK    9  A    between atoms: C_20  and  C_21
REMARK   10  A    between atoms: C_20  and  C_22
REMARK   11  A    between atoms: C_20  and  C_23
REMARK   12  A    between atoms: C_25  and  N_26
REMARK   13  A    between atoms: C_30  and  C_33
REMARK                            x       y       z     vdW  Elec       q    Type
REMARK                         _______ _______ _______ _____ _____    ______ ____
ROOT
ATOM      1  C   UNL     1       1.339  -2.338  -2.525  0.00  0.00    +0.080 C 
ATOM      2  C   UNL     1       1.628  -3.654  -2.615  0.00  0.00    +0.041 C 
ATOM      3  N   UNL     1       2.343  -4.148  -3.668  0.00  0.00    -0.260 N 
ATOM      4  C   UNL     1       2.806  -3.392  -4.671  0.00  0.00    +0.307 C 
ATOM      5  O   UNL     1       3.434  -3.923  -5.566  0.00  0.00    -0.252 OA
ATOM      6  N   UNL     1       2.598  -2.061  -4.721  0.00  0.00    -0.288 N 
ATOM      7  C   UNL     1       1.831  -1.431  -3.634  0.00  0.00    +0.144 C 
ATOM      8  C   UNL     1       2.620  -5.587  -3.702  0.00  0.00    +0.139 C 
ATOM      9  H   UNL     1       2.943  -1.532  -5.457  0.00  0.00    +0.151 HD
ENDROOT
BRANCH   7  10
ATOM     10  C   UNL     1       0.632  -0.747  -4.241  0.00  0.00    -0.022 A 
ATOM     11  C   UNL     1      -0.158  -1.419  -5.155  0.00  0.00    +0.006 A 
ATOM     12  C   UNL     1      -1.257  -0.793  -5.711  0.00  0.00    +0.004 A 
ATOM     13  C   UNL     1      -1.566   0.506  -5.354  0.00  0.00    -0.042 A 
ATOM     14  C   UNL     1      -0.777   1.178  -4.439  0.00  0.00    +0.004 A 
ATOM     15  C   UNL     1       0.320   0.550  -3.879  0.00  0.00    +0.006 A 
BRANCH  13  16
ATOM     16  C   UNL     1      -2.764   1.190  -5.961  0.00  0.00    -0.013 C 
ATOM     17  C   UNL     1      -4.030   0.401  -5.619  0.00  0.00    +0.015 C 
ATOM     18  C   UNL     1      -2.881   2.609  -5.400  0.00  0.00    +0.015 C 
ATOM     19  C   UNL     1      -2.598   1.254  -7.481  0.00  0.00    +0.015 C 
ENDBRANCH  13  16
ENDBRANCH   7  10
BRANCH   1  20
ATOM     20  C   UNL     1       0.597  -1.825  -1.435  0.00  0.00    +0.339 C 
ATOM     21  O   UNL     1      -0.591  -1.596  -1.562  0.00  0.00    -0.245 OA
BRANCH  20  22
ATOM     22  O   UNL     1       1.208  -1.590  -0.255  0.00  0.00    -0.462 OA
BRANCH  22  24
ATOM     23  C   UNL     1       1.258  -0.872   2.052  0.00  0.00    +0.048 C 
ATOM     24  C   UNL     1       0.398  -1.072   0.803  0.00  0.00    +0.229 C 
ENDBRANCH  22  24
ENDBRANCH  20  22
ENDBRANCH   1  20
BRANCH   2  25
ATOM     25  C   UNL     1       1.153  -4.593  -1.536  0.00  0.00    +0.136 C 
BRANCH  25  26
ATOM     26  N   UNL     1       0.182  -5.539  -2.102  0.00  0.00    -0.300 NA
ATOM     27  C   UNL     1      -1.045  -4.847  -2.521  0.00  0.00    +0.066 C 
ATOM     28  C   UNL     1      -2.004  -5.856  -3.157  0.00  0.00    -0.067 C 
ATOM     29  N   UNL     1      -2.323  -6.910  -2.185  0.00  0.00    +0.382 N 
ATOM     30  C   UNL     1      -1.091  -7.607  -1.795  0.00  0.00    -0.061 C 
ATOM     31  C   UNL     1      -0.124  -6.614  -1.147  0.00  0.00    +0.069 C 
ATOM     32  C   UNL     1      -1.427  -8.717  -0.796  0.00  0.00    -0.012 C 
ATOM     33  H   UNL     1      -2.748  -6.496  -1.369  0.00  0.00    -0.085 HD
ATOM     34  H   UNL     1      -2.965  -7.567  -2.601  0.00  0.00    -0.085 HD
ENDBRANCH  25  26
ENDBRANCH   2  25
TORSDOF 7
