REMARK  Name = ZINC09365446
REMARK  5 active torsions:
REMARK  status: ('A' for Active; 'I' for Inactive)
REMARK    1  A    between atoms: C_4  and  C_7
REMARK    2  A    between atoms: C_10  and  C_13
REMARK    3  A    between atoms: C_13  and  S_14
REMARK    4  A    between atoms: S_14  and  C_15
REMARK    5  A    between atoms: C_15  and  C_16
REMARK                            x       y       z     vdW  Elec       q    Type
REMARK                         _______ _______ _______ _____ _____    ______ ____
ROOT
ATOM      1  S   UNL     1       6.762  -1.306   1.648  0.00  0.00    -0.148 S 
ENDROOT
BRANCH   1   2
ATOM      2  C   UNL     1       6.219  -1.005  -0.056  0.00  0.00    +0.104 C 
BRANCH   2   6
ATOM      3  C   UNL     1       2.481   1.070  -0.015  0.00  0.00    -0.018 A 
ATOM      4  C   UNL     1       2.507  -0.323  -0.016  0.00  0.00    +0.009 A 
ATOM      5  C   UNL     1       3.717  -0.988  -0.034  0.00  0.00    +0.005 A 
ATOM      6  C   UNL     1       4.901  -0.274  -0.042  0.00  0.00    -0.038 A 
ATOM      7  C   UNL     1       4.881   1.109  -0.036  0.00  0.00    +0.005 A 
ATOM      8  C   UNL     1       3.677   1.784  -0.022  0.00  0.00    +0.009 A 
BRANCH   3  12
ATOM      9  C   UNL     1      -1.236   3.134   0.030  0.00  0.00    +0.000 A 
ATOM     10  C   UNL     1      -1.216   1.751   0.017  0.00  0.00    +0.001 A 
ATOM     11  C   UNL     1      -0.013   1.076   0.008  0.00  0.00    +0.008 A 
ATOM     12  C   UNL     1       1.184   1.790   0.000  0.00  0.00    -0.018 A 
ATOM     13  C   UNL     1       1.157   3.183   0.008  0.00  0.00    +0.008 A 
ATOM     14  C   UNL     1      -0.052   3.848   0.022  0.00  0.00    +0.001 A 
ENDBRANCH   3  12
ENDBRANCH   2   6
ENDBRANCH   1   2
BRANCH   1  15
ATOM     15  C   UNL     1       8.339  -2.182   1.458  0.00  0.00    +0.145 C 
BRANCH  15  16
ATOM     16  C   UNL     1       8.907  -2.496   2.818  0.00  0.00    +0.146 A 
ATOM     17  N   UNL     1       9.716  -1.634   3.410  0.00  0.00    -0.199 NA
ATOM     18  C   UNL     1      10.215  -1.906   4.613  0.00  0.00    +0.217 A 
ATOM     19  N   UNL     1       9.908  -3.049   5.215  0.00  0.00    -0.181 NA
ATOM     20  C   UNL     1       9.099  -3.915   4.615  0.00  0.00    +0.217 A 
ATOM     21  N   UNL     1       8.599  -3.634   3.414  0.00  0.00    -0.199 NA
ATOM     22  N   UNL     1       8.777  -5.105   5.236  0.00  0.00    -0.327 N 
ATOM     23  N   UNL     1      11.055  -1.003   5.232  0.00  0.00    -0.327 N 
ATOM     24  H   UNL     1       8.187  -5.737   4.797  0.00  0.00    +0.145 HD
ATOM     25  H   UNL     1       9.142  -5.309   6.111  0.00  0.00    +0.145 HD
ATOM     26  H   UNL     1      11.422  -1.203   6.108  0.00  0.00    +0.145 HD
ATOM     27  H   UNL     1      11.279  -0.168   4.792  0.00  0.00    +0.145 HD
ENDBRANCH  15  16
ENDBRANCH   1  15
TORSDOF 5
