REMARK  Name = ZINC39655231
REMARK  6 active torsions:
REMARK  status: ('A' for Active; 'I' for Inactive)
REMARK    1  A    between atoms: C_4  and  N_7
REMARK    2  A    between atoms: N_7  and  C_8
REMARK    3  A    between atoms: C_8  and  C_9
REMARK    4  A    between atoms: C_9  and  N_10
REMARK    5  A    between atoms: C_11  and  C_13
REMARK    6  A    between atoms: C_24  and  C_26
REMARK                            x       y       z     vdW  Elec       q    Type
REMARK                         _______ _______ _______ _____ _____    ______ ____
ROOT
ATOM      1  C   UNL     1       6.312  -6.230  -0.093  0.00  0.00    +0.100 C 
ATOM      2  C   UNL     1       5.540  -6.773  -1.316  0.00  0.00    +0.121 C 
ATOM      3  N   UNL     1       6.581  -7.000  -2.345  0.00  0.00    -0.296 N 
ATOM      4  C   UNL     1       7.734  -7.547  -1.590  0.00  0.00    +0.115 C 
ATOM      5  C   UNL     1       7.751  -6.744  -0.274  0.00  0.00    -0.004 C 
ATOM      6  C   UNL     1       8.141  -7.647   0.891  0.00  0.00    -0.010 C 
ATOM      7  C   UNL     1       9.594  -8.098   0.718  0.00  0.00    -0.082 C 
ATOM      8  N   UNL     1      10.471  -6.921   0.670  0.00  0.00    +0.379 N 
ATOM      9  C   UNL     1      10.150  -6.105  -0.507  0.00  0.00    -0.082 C 
ATOM     10  C   UNL     1       8.720  -5.571  -0.386  0.00  0.00    -0.010 C 
ATOM     11  C   UNL     1       6.499  -6.764  -3.670  0.00  0.00    +0.252 C 
ATOM     12  O   UNL     1       7.448  -7.005  -4.391  0.00  0.00    -0.270 OA
ATOM     13  H   UNL     1      10.338  -6.370   1.505  0.00  0.00    -0.086 HD
ATOM     14  H   UNL     1      11.432  -7.222   0.618  0.00  0.00    -0.086 HD
ENDROOT
BRANCH  11  15
ATOM     15  C   UNL     1       5.257  -6.212  -4.245  0.00  0.00    +0.107 A 
ATOM     16  C   UNL     1       5.085  -4.828  -4.350  0.00  0.00    +0.138 A 
ATOM     17  C   UNL     1       3.919  -4.320  -4.891  0.00  0.00    +0.039 A 
ATOM     18  C   UNL     1       2.924  -5.175  -5.326  0.00  0.00    +0.006 A 
ATOM     19  C   UNL     1       3.085  -6.545  -5.226  0.00  0.00    +0.039 A 
ATOM     20  C   UNL     1       4.248  -7.071  -4.693  0.00  0.00    +0.138 A 
ATOM     21  F   UNL     1       4.406  -8.409  -4.601  0.00  0.00    -0.205 F 
ATOM     22  F   UNL     1       6.056  -3.990  -3.925  0.00  0.00    -0.205 F 
ENDBRANCH  11  15
BRANCH   1  24
ATOM     23  N   UNL     1       6.369  -4.055   1.083  0.00  0.00    -0.314 N 
ATOM     24  C   UNL     1       6.290  -4.724  -0.085  0.00  0.00    +0.218 C 
ATOM     25  O   UNL     1       6.201  -4.113  -1.128  0.00  0.00    -0.275 OA
ATOM     26  H   UNL     1       6.440  -4.543   1.918  0.00  0.00    +0.149 HD
BRANCH  23  27
ATOM     27  C   UNL     1       6.347  -2.590   1.091  0.00  0.00    +0.123 C 
BRANCH  27  28
ATOM     28  C   UNL     1       6.450  -2.086   2.532  0.00  0.00    +0.120 C 
BRANCH  28  29
ATOM     29  N   UNL     1       6.428  -0.622   2.540  0.00  0.00    -0.342 N 
ATOM     30  H   UNL     1       6.357  -0.133   1.705  0.00  0.00    +0.146 HD
BRANCH  29  34
ATOM     31  C   UNL     1       6.671   1.444   6.147  0.00  0.00    +0.000 A 
ATOM     32  C   UNL     1       6.570   2.143   4.958  0.00  0.00    +0.002 A 
ATOM     33  C   UNL     1       6.489   1.460   3.759  0.00  0.00    +0.023 A 
ATOM     34  C   UNL     1       6.510   0.071   3.750  0.00  0.00    +0.027 A 
ATOM     35  C   UNL     1       6.611  -0.627   4.947  0.00  0.00    +0.023 A 
ATOM     36  C   UNL     1       6.691   0.062   6.141  0.00  0.00    +0.002 A 
ENDBRANCH  29  34
ENDBRANCH  28  29
ENDBRANCH  27  28
ENDBRANCH  23  27
ENDBRANCH   1  24
TORSDOF 6
