REMARK  Name = ZINC11999643
REMARK  7 active torsions:
REMARK  status: ('A' for Active; 'I' for Inactive)
REMARK    1  A    between atoms: C_4  and  C_19
REMARK    2  A    between atoms: C_19  and  N_20
REMARK    3  A    between atoms: N_20  and  C_21
REMARK    4  A    between atoms: C_21  and  C_22
REMARK    5  A    between atoms: C_22  and  C_23
REMARK    6  A    between atoms: C_23  and  N_24
REMARK    7  A    between atoms: C_30  and  C_32
REMARK                            x       y       z     vdW  Elec       q    Type
REMARK                         _______ _______ _______ _____ _____    ______ ____
ROOT
ATOM      1  C   UNL     1      -6.068   0.468  -0.301  0.00  0.00    +0.014 A 
ATOM      2  C   UNL     1      -5.686   1.411  -1.265  0.00  0.00    -0.001 A 
ATOM      3  C   UNL     1      -4.329   1.651  -1.561  0.00  0.00    +0.018 A 
ATOM      4  C   UNL     1      -4.029   2.583  -2.507  0.00  0.00    +0.008 A 
ATOM      5  C   UNL     1      -5.061   3.278  -3.155  0.00  0.00    +0.104 A 
ATOM      6  C   UNL     1      -6.682   2.141  -1.959  0.00  0.00    +0.048 A 
ATOM      7  C   UNL     1      -8.033   1.899  -1.663  0.00  0.00    +0.030 A 
ATOM      8  C   UNL     1      -8.373   0.975  -0.719  0.00  0.00    -0.042 A 
ATOM      9  C   UNL     1      -7.391   0.259  -0.037  0.00  0.00    -0.043 A 
ATOM     10  C   UNL     1      -8.045  -0.690   0.946  0.00  0.00    +0.036 C 
ATOM     11  C   UNL     1      -9.489  -0.170   1.111  0.00  0.00    +0.009 C 
ATOM     12  C   UNL     1      -9.742   0.546  -0.232  0.00  0.00    +0.036 C 
ATOM     13  N   UNL     1      -4.740   4.228  -4.113  0.00  0.00    -0.312 N 
ATOM     14  C   UNL     1      -5.522   5.458  -3.918  0.00  0.00    +0.134 C 
ATOM     15  C   UNL     1      -5.095   6.498  -4.956  0.00  0.00    +0.178 C 
ATOM     16  O   UNL     1      -5.263   5.952  -6.268  0.00  0.00    -0.377 OA
ATOM     17  C   UNL     1      -4.514   4.754  -6.493  0.00  0.00    +0.178 C 
ATOM     18  C   UNL     1      -4.936   3.696  -5.470  0.00  0.00    +0.134 C 
ATOM     19  N   UNL     1      -6.381   3.083  -2.918  0.00  0.00    -0.343 N 
ATOM     20  H   UNL     1      -7.110   3.605  -3.419  0.00  0.00    +0.167 HD
ENDROOT
BRANCH   4  21
ATOM     21  C   UNL     1      -2.591   2.872  -2.854  0.00  0.00    +0.146 C 
BRANCH  21  22
ATOM     22  N   UNL     1      -2.133   4.043  -2.103  0.00  0.00    -0.295 N 
ATOM     23  C   UNL     1      -1.515   3.883  -0.915  0.00  0.00    +0.245 C 
ATOM     24  O   UNL     1      -1.226   4.852  -0.247  0.00  0.00    -0.273 OA
BRANCH  23  25
ATOM     25  C   UNL     1      -1.184   2.499  -0.419  0.00  0.00    +0.204 C 
ATOM     26  C   UNL     1      -0.052   1.879  -1.268  0.00  0.00    +0.043 C 
ATOM     27  C   UNL     1       0.793   1.087  -0.245  0.00  0.00    +0.031 C 
ATOM     28  C   UNL     1       0.075   1.321   1.102  0.00  0.00    +0.161 C 
ATOM     29  O   UNL     1      -0.650   2.560   0.921  0.00  0.00    -0.367 OA
ENDBRANCH  23  25
BRANCH  22  30
ATOM     30  C   UNL     1      -2.346   5.388  -2.642  0.00  0.00    +0.110 C 
BRANCH  30  31
ATOM     31  C   UNL     1      -1.093   5.841  -3.394  0.00  0.00    +0.038 C 
BRANCH  31  32
ATOM     32  C   UNL     1      -1.300   7.263  -3.919  0.00  0.00    +0.109 C 
BRANCH  32  33
ATOM     33  N   UNL     1      -0.126   7.673  -4.694  0.00  0.00    -0.301 N 
ATOM     34  C   UNL     1       1.043   8.355  -4.127  0.00  0.00    +0.108 C 
ATOM     35  C   UNL     1       2.166   8.187  -5.177  0.00  0.00    +0.028 C 
ATOM     36  C   UNL     1       1.352   8.016  -6.480  0.00  0.00    +0.097 C 
ATOM     37  C   UNL     1       0.017   7.478  -6.016  0.00  0.00    +0.216 C 
ATOM     38  O   UNL     1      -0.806   6.948  -6.732  0.00  0.00    -0.276 OA
ENDBRANCH  32  33
ENDBRANCH  31  32
ENDBRANCH  30  31
ENDBRANCH  22  30
ENDBRANCH  21  22
ENDBRANCH   4  21
TORSDOF 7
