REMARK  Name = ZINC33033044
REMARK  11 active torsions:
REMARK  status: ('A' for Active; 'I' for Inactive)
REMARK    1  A    between atoms: C_1  and  C_2
REMARK    2  A    between atoms: C_2  and  C_3
REMARK    3  A    between atoms: C_3  and  N_4
REMARK    4  A    between atoms: C_5  and  C_7
REMARK    5  A    between atoms: C_7  and  N_8
REMARK    6  A    between atoms: N_8  and  C_9
REMARK    7  A    between atoms: C_10  and  C_12
REMARK    8  A    between atoms: C_15  and  N_28
REMARK    9  A    between atoms: C_16  and  N_18
REMARK   10  A    between atoms: N_18  and  S_19
REMARK   11  A    between atoms: S_19  and  C_22
REMARK                            x       y       z     vdW  Elec       q    Type
REMARK                         _______ _______ _______ _____ _____    ______ ____
ROOT
ATOM      1  C   UNL     1       5.529   2.116  -2.922  0.00  0.00    +0.039 A 
ATOM      2  C   UNL     1       4.729   2.072  -4.067  0.00  0.00    +0.015 A 
ATOM      3  C   UNL     1       4.088   0.903  -4.416  0.00  0.00    +0.026 A 
ATOM      4  C   UNL     1       4.239  -0.236  -3.635  0.00  0.00    +0.052 A 
ATOM      5  C   UNL     1       5.034  -0.198  -2.486  0.00  0.00    +0.070 A 
ATOM      6  C   UNL     1       5.679   0.972  -2.132  0.00  0.00    +0.039 A 
ENDROOT
BRANCH   4   7
ATOM      7  N   UNL     1       3.594  -1.418  -3.995  0.00  0.00    -0.332 N 
ATOM      8  C   UNL     1       2.608  -1.176  -5.058  0.00  0.00    +0.086 C 
ATOM      9  C   UNL     1       1.868  -2.479  -5.369  0.00  0.00    -0.063 C 
ATOM     10  N   UNL     1       2.837  -3.505  -5.777  0.00  0.00    +0.381 N 
ATOM     11  C   UNL     1       3.823  -3.747  -4.714  0.00  0.00    -0.063 C 
ATOM     12  C   UNL     1       4.564  -2.444  -4.404  0.00  0.00    +0.086 C 
ATOM     13  H   UNL     1       2.308  -4.446  -5.989  0.00  0.00    -0.086 HD
ATOM     14  H   UNL     1       3.367  -3.171  -6.681  0.00  0.00    -0.086 HD
ENDBRANCH   4   7
BRANCH   1  17
ATOM     15  N   UNL     1       6.513   4.280  -3.494  0.00  0.00    -0.292 N 
ATOM     16  C   UNL     1       6.247   3.988  -4.904  0.00  0.00    +0.133 C 
ATOM     17  C   UNL     1       6.216   3.367  -2.549  0.00  0.00    +0.247 C 
ATOM     18  O   UNL     1       6.514   3.573  -1.388  0.00  0.00    -0.270 OA
BRANCH  15  19
ATOM     19  C   UNL     1       7.101   5.566  -3.110  0.00  0.00    +0.203 C 
BRANCH  19  21
ATOM     20  N   UNL     1       9.362   6.517  -2.784  0.00  0.00    -0.314 N 
ATOM     21  C   UNL     1       8.604   5.450  -3.108  0.00  0.00    +0.230 C 
ATOM     22  O   UNL     1       9.132   4.397  -3.399  0.00  0.00    -0.274 OA
ATOM     23  H   UNL     1       8.883   7.472  -2.521  0.00  0.00    +0.149 HD
BRANCH  20  24
ATOM     24  C   UNL     1      10.822   6.404  -2.782  0.00  0.00    +0.104 C 
BRANCH  24  26
ATOM     25  C   UNL     1      12.962   7.629  -2.380  0.00  0.00    +0.005 C 
ATOM     26  C   UNL     1      11.437   7.747  -2.382  0.00  0.00    +0.015 C 
ENDBRANCH  24  26
ENDBRANCH  20  24
ENDBRANCH  19  21
ENDBRANCH  15  19
ENDBRANCH   1  17
BRANCH   5  27
ATOM     27  N   UNL     1       5.181  -1.345  -1.697  0.00  0.00    -0.214 N 
ATOM     28  H   UNL     1       5.650  -2.247  -2.119  0.00  0.00    +0.174 HD
BRANCH  27  29
ATOM     29  S   UNL     1       4.649  -1.346  -0.129  0.00  0.00    +0.072 S 
ATOM     30  O   UNL     1       5.207  -0.195   0.490  0.00  0.00    -0.150 OA
ATOM     31  O   UNL     1       4.861  -2.659   0.372  0.00  0.00    -0.150 OA
BRANCH  29  32
ATOM     32  C   UNL     1       2.904  -1.099  -0.171  0.00  0.00    +0.108 A 
ATOM     33  C   UNL     1       2.054  -2.187  -0.244  0.00  0.00    +0.029 A 
ATOM     34  C   UNL     1       0.686  -1.994  -0.277  0.00  0.00    +0.002 A 
ATOM     35  C   UNL     1       0.168  -0.713  -0.236  0.00  0.00    +0.000 A 
ATOM     36  C   UNL     1       1.018   0.375  -0.163  0.00  0.00    +0.002 A 
ATOM     37  C   UNL     1       2.386   0.181  -0.130  0.00  0.00    +0.029 A 
ENDBRANCH  29  32
ENDBRANCH  27  29
ENDBRANCH   5  27
TORSDOF 9
