REMARK  Name = ZINC35868072
REMARK  6 active torsions:
REMARK  status: ('A' for Active; 'I' for Inactive)
REMARK    1  A    between atoms: C_1  and  C_2
REMARK    2  A    between atoms: C_5  and  N_9
REMARK    3  A    between atoms: C_6  and  C_8
REMARK    4  A    between atoms: C_10  and  N_21
REMARK    5  A    between atoms: C_11  and  N_20
REMARK    6  A    between atoms: C_12  and  C_14
REMARK                            x       y       z     vdW  Elec       q    Type
REMARK                         _______ _______ _______ _____ _____    ______ ____
ROOT
ATOM      1  N   UNL     1       0.993  -3.731   0.213  0.00  0.00    -0.216 N 
ATOM      2  C   UNL     1       1.034  -4.667  -0.779  0.00  0.00    +0.141 A 
ATOM      3  C   UNL     1       0.934  -5.893  -0.195  0.00  0.00    +0.093 A 
ATOM      4  C   UNL     1       0.829  -5.698   1.197  0.00  0.00    +0.116 A 
ATOM      5  N   UNL     1       0.870  -4.402   1.436  0.00  0.00    -0.163 NA
ENDROOT
BRANCH   1  10
ATOM      6  C   UNL     1       1.294   1.891  -0.491  0.00  0.00    +0.044 C 
ATOM      7  C   UNL     1       1.214   0.398  -0.304  0.00  0.00    -0.050 A 
ATOM      8  C   UNL     1       2.121  -0.427  -0.944  0.00  0.00    +0.005 A 
ATOM      9  C   UNL     1       2.051  -1.795  -0.774  0.00  0.00    +0.028 A 
ATOM     10  C   UNL     1       1.068  -2.343   0.039  0.00  0.00    +0.070 A 
ATOM     11  C   UNL     1       0.158  -1.512   0.680  0.00  0.00    -0.025 A 
ATOM     12  C   UNL     1       0.237  -0.144   0.510  0.00  0.00    +0.008 A 
ATOM     13  C   UNL     1      -0.910  -2.103   1.563  0.00  0.00    +0.046 C 
ENDBRANCH   1  10
BRANCH   4  14
ATOM     14  C   UNL     1       0.700  -6.766   2.218  0.00  0.00    +0.004 A 
ATOM     15  C   UNL     1      -0.016  -7.927   1.929  0.00  0.00    +0.010 A 
ATOM     16  C   UNL     1      -0.132  -8.918   2.882  0.00  0.00    +0.001 A 
ATOM     17  C   UNL     1       0.459  -8.761   4.123  0.00  0.00    +0.000 A 
ATOM     18  C   UNL     1       1.171  -7.611   4.415  0.00  0.00    +0.001 A 
ATOM     19  C   UNL     1       1.299  -6.616   3.467  0.00  0.00    +0.010 A 
ENDBRANCH   4  14
BRANCH   3  20
ATOM     20  N   UNL     1       0.935  -7.136  -0.864  0.00  0.00    -0.354 N 
ATOM     21  H   UNL     1       1.012  -7.167  -1.830  0.00  0.00    +0.142 HD
ATOM     22  H   UNL     1       0.858  -7.960  -0.357  0.00  0.00    +0.142 HD
ENDBRANCH   3  20
BRANCH   2  23
ATOM     23  N   UNL     1       1.156  -4.412  -2.148  0.00  0.00    -0.342 N 
ATOM     24  H   UNL     1       1.130  -3.500  -2.476  0.00  0.00    +0.144 HD
ATOM     25  H   UNL     1       1.267  -5.149  -2.770  0.00  0.00    +0.144 HD
ENDBRANCH   2  23
TORSDOF 4
