REMARK  Name = ZINC33139356
REMARK  9 active torsions:
REMARK  status: ('A' for Active; 'I' for Inactive)
REMARK    1  A    between atoms: C_1  and  C_2
REMARK    2  A    between atoms: C_2  and  C_3
REMARK    3  A    between atoms: C_6  and  N_9
REMARK    4  A    between atoms: C_10  and  C_18
REMARK    5  A    between atoms: C_18  and  N_19
REMARK    6  A    between atoms: N_22  and  S_25
REMARK    7  A    between atoms: S_25  and  C_28
REMARK    8  A    between atoms: C_31  and  O_34
REMARK    9  A    between atoms: O_34  and  C_35
REMARK                            x       y       z     vdW  Elec       q    Type
REMARK                         _______ _______ _______ _____ _____    ______ ____
ROOT
ATOM      1  N   UNL     1      -5.397   2.344  -4.947  0.00  0.00    -0.281 N 
ATOM      2  C   UNL     1      -5.238   2.663  -3.631  0.00  0.00    +0.108 A 
ATOM      3  N   UNL     1      -6.068   1.977  -2.902  0.00  0.00    -0.341 N 
ATOM      4  C   UNL     1      -6.811   1.167  -3.698  0.00  0.00    +0.084 A 
ATOM      5  C   UNL     1      -6.389   1.387  -5.022  0.00  0.00    +0.163 A 
ATOM      6  N   UNL     1      -6.949   0.725  -6.021  0.00  0.00    -0.236 NA
ATOM      7  C   UNL     1      -7.908  -0.154  -5.815  0.00  0.00    +0.113 A 
ATOM      8  C   UNL     1      -8.376  -0.425  -4.539  0.00  0.00    +0.022 A 
ATOM      9  C   UNL     1      -7.828   0.239  -3.457  0.00  0.00    +0.031 A 
ATOM     10  H   UNL     1      -6.082   2.111  -1.810  0.00  0.00    +0.167 HD
ENDROOT
BRANCH   1  14
ATOM     11  C   UNL     1      -3.272   3.952  -8.152  0.00  0.00    -0.047 A 
ATOM     12  C   UNL     1      -3.142   2.611  -7.842  0.00  0.00    +0.005 A 
ATOM     13  C   UNL     1      -3.845   2.075  -6.780  0.00  0.00    +0.026 A 
ATOM     14  C   UNL     1      -4.682   2.885  -6.025  0.00  0.00    +0.050 A 
ATOM     15  C   UNL     1      -4.815   4.230  -6.342  0.00  0.00    +0.026 A 
ATOM     16  C   UNL     1      -4.105   4.761  -7.402  0.00  0.00    +0.005 A 
BRANCH  11  18
ATOM     17  C   UNL     1      -3.341   4.419 -10.587  0.00  0.00    +0.009 C 
ATOM     18  C   UNL     1      -2.504   4.533  -9.311  0.00  0.00    +0.032 C 
ENDBRANCH  11  18
ENDBRANCH   1  14
BRANCH   2  19
ATOM     19  C   UNL     1      -4.250   3.669  -3.100  0.00  0.00    +0.157 C 
BRANCH  19  20
ATOM     20  N   UNL     1      -2.981   2.994  -2.793  0.00  0.00    -0.293 NA
ATOM     21  C   UNL     1      -2.076   3.886  -2.056  0.00  0.00    +0.102 C 
ATOM     22  C   UNL     1      -0.706   3.213  -1.915  0.00  0.00    +0.125 C 
ATOM     23  N   UNL     1      -0.897   1.885  -1.312  0.00  0.00    -0.174 NA
ATOM     24  C   UNL     1      -1.887   0.982  -1.919  0.00  0.00    +0.125 C 
ATOM     25  C   UNL     1      -3.215   1.745  -2.057  0.00  0.00    +0.102 C 
BRANCH  23  26
ATOM     26  S   UNL     1      -0.017   1.417   0.010  0.00  0.00    +0.061 S 
ATOM     27  O   UNL     1       0.002  -0.004   0.002  0.00  0.00    -0.153 OA
ATOM     28  O   UNL     1       1.172   2.195   0.003  0.00  0.00    -0.153 OA
BRANCH  26  29
ATOM     29  C   UNL     1      -0.927   1.900   1.439  0.00  0.00    +0.106 A 
ATOM     30  C   UNL     1      -0.716   3.145   2.003  0.00  0.00    +0.032 A 
ATOM     31  C   UNL     1      -1.432   3.529   3.120  0.00  0.00    +0.047 A 
ATOM     32  C   UNL     1      -2.355   2.659   3.684  0.00  0.00    +0.120 A 
ATOM     33  C   UNL     1      -2.560   1.409   3.120  0.00  0.00    +0.047 A 
ATOM     34  C   UNL     1      -1.846   1.032   1.999  0.00  0.00    +0.032 A 
BRANCH  32  35
ATOM     35  O   UNL     1      -3.057   3.032   4.786  0.00  0.00    -0.495 OA
ATOM     36  C   UNL     1      -2.793   4.334   5.313  0.00  0.00    +0.277 C 
ENDBRANCH  32  35
ENDBRANCH  26  29
ENDBRANCH  23  26
ENDBRANCH  19  20
ENDBRANCH   2  19
TORSDOF 7
