REMARK  Name = ZINC36494407
REMARK  13 active torsions:
REMARK  status: ('A' for Active; 'I' for Inactive)
REMARK    1  A    between atoms: C_1  and  C_2
REMARK    2  A    between atoms: C_2  and  C_3
REMARK    3  A    between atoms: C_3  and  C_4
REMARK    4  A    between atoms: C_4  and  N_5
REMARK    5  A    between atoms: C_6  and  C_8
REMARK    6  A    between atoms: C_8  and  C_10
REMARK    7  A    between atoms: C_8  and  N_19
REMARK    8  A    between atoms: C_11  and  O_18
REMARK    9  A    between atoms: C_13  and  O_17
REMARK   10  A    between atoms: C_15  and  O_16
REMARK   11  A    between atoms: N_19  and  C_20
REMARK   12  A    between atoms: C_20  and  C_21
REMARK   13  A    between atoms: C_26  and  C_28
REMARK                            x       y       z     vdW  Elec       q    Type
REMARK                         _______ _______ _______ _____ _____    ______ ____
ROOT
ATOM      1  C   UNL     1       1.959  -4.350   4.562  0.00  0.00    +0.200 C 
ENDROOT
BRANCH   1   2
ATOM      2  C   UNL     1       0.670  -4.243   5.336  0.00  0.00    +0.065 A 
ATOM      3  C   UNL     1       0.550  -4.860   6.572  0.00  0.00    +0.129 A 
ATOM      4  C   UNL     1      -0.637  -4.762   7.284  0.00  0.00    +0.091 A 
ATOM      5  C   UNL     1      -1.702  -4.046   6.759  0.00  0.00    +0.124 A 
ATOM      6  C   UNL     1      -1.582  -3.429   5.524  0.00  0.00    +0.091 A 
ATOM      7  C   UNL     1      -0.395  -3.523   4.814  0.00  0.00    +0.129 A 
BRANCH   7   8
ATOM      8  O   UNL     1      -0.275  -2.914   3.605  0.00  0.00    -0.506 OA
ATOM      9  H   UNL     1      -0.539  -3.468   2.858  0.00  0.00    +0.292 HD
ENDBRANCH   7   8
BRANCH   5  10
ATOM     10  O   UNL     1      -2.865  -3.951   7.456  0.00  0.00    -0.507 OA
ATOM     11  H   UNL     1      -2.905  -3.191   8.053  0.00  0.00    +0.292 HD
ENDBRANCH   5  10
BRANCH   3  12
ATOM     12  O   UNL     1       1.594  -5.561   7.086  0.00  0.00    -0.506 OA
ATOM     13  H   UNL     1       2.234  -5.018   7.566  0.00  0.00    +0.292 HD
ENDBRANCH   3  12
ENDBRANCH   1   2
BRANCH   1  15
ATOM     14  N   UNL     1       2.059  -2.132   3.472  0.00  0.00    -0.313 N 
ATOM     15  C   UNL     1       1.889  -3.463   3.346  0.00  0.00    +0.238 C 
ATOM     16  O   UNL     1       1.681  -3.948   2.254  0.00  0.00    -0.273 OA
ATOM     17  H   UNL     1       2.226  -1.745   4.345  0.00  0.00    +0.149 HD
BRANCH  14  18
ATOM     18  C   UNL     1       1.992  -1.270   2.289  0.00  0.00    +0.104 C 
BRANCH  18  19
ATOM     19  C   UNL     1       2.217   0.185   2.705  0.00  0.00    +0.018 C 
BRANCH  19  21
ATOM     20  C   UNL     1       2.371   2.540   1.886  0.00  0.00    +0.004 C 
ATOM     21  C   UNL     1       2.147   1.085   1.470  0.00  0.00    -0.002 C 
ENDBRANCH  19  21
ENDBRANCH  18  19
ENDBRANCH  14  18
ENDBRANCH   1  15
BRANCH   1  22
ATOM     22  N   UNL     1       2.163  -5.739   4.143  0.00  0.00    -0.278 N 
ATOM     23  C   UNL     1       1.208  -6.378   3.439  0.00  0.00    +0.220 C 
ATOM     24  O   UNL     1       0.240  -5.767   3.037  0.00  0.00    -0.275 OA
BRANCH  23  25
ATOM     25  C   UNL     1       1.343  -7.851   3.150  0.00  0.00    +0.075 C 
ATOM     26  C   UNL     1       2.569  -8.087   2.266  0.00  0.00    +0.013 C 
ATOM     27  C   UNL     1       2.706  -9.582   1.972  0.00  0.00    +0.001 C 
ATOM     28  C   UNL     1       1.452 -10.077   1.248  0.00  0.00    +0.000 C 
ATOM     29  C   UNL     1       0.226  -9.841   2.133  0.00  0.00    +0.001 C 
ATOM     30  C   UNL     1       0.089  -8.345   2.426  0.00  0.00    +0.013 C 
ENDBRANCH  23  25
BRANCH  22  31
ATOM     31  C   UNL     1       3.405  -6.433   4.490  0.00  0.00    +0.183 C 
BRANCH  31  32
ATOM     32  C   UNL     1       4.494  -6.023   3.533  0.00  0.00    +0.122 A 
ATOM     33  C   UNL     1       5.407  -5.059   3.745  0.00  0.00    +0.046 A 
ATOM     34  C   UNL     1       6.228  -5.011   2.596  0.00  0.00    +0.041 A 
ATOM     35  C   UNL     1       5.769  -5.949   1.749  0.00  0.00    +0.195 A 
ATOM     36  O   UNL     1       4.722  -6.564   2.324  0.00  0.00    -0.466 OA
ENDBRANCH  31  32
ENDBRANCH  22  31
ENDBRANCH   1  22
TORSDOF 12
