REMARK  Name = ZINC01836282
REMARK  11 active torsions:
REMARK  status: ('A' for Active; 'I' for Inactive)
REMARK    1  A    between atoms: C_1  and  C_2
REMARK    2  A    between atoms: C_2  and  C_3
REMARK    3  A    between atoms: C_3  and  C_4
REMARK    4  A    between atoms: C_4  and  C_5
REMARK    5  A    between atoms: C_5  and  C_6
REMARK    6  A    between atoms: C_6  and  C_7
REMARK    7  A    between atoms: C_7  and  C_8
REMARK    8  A    between atoms: C_9  and  C_18
REMARK    9  A    between atoms: C_10  and  N_17
REMARK   10  A    between atoms: C_12  and  N_16
REMARK   11  A    between atoms: C_13  and  C_14
REMARK                            x       y       z     vdW  Elec       q    Type
REMARK                         _______ _______ _______ _____ _____    ______ ____
ROOT
ATOM      1  C   UNL     1       1.298   2.128   0.001  0.00  0.00    +0.075 C 
ATOM      2  C   UNL     1       1.234   3.510  -0.549  0.00  0.00    +0.065 C 
ATOM      3  C   UNL     1       0.138   4.288  -0.582  0.00  0.00    +0.079 C 
ATOM      4  S   UNL     1      -1.425   3.770   0.023  0.00  0.00    -0.058 S 
ATOM      5  C   UNL     1      -1.220   2.027   0.019  0.00  0.00    +0.079 C 
ATOM      6  C   UNL     1      -0.017   1.428   0.010  0.00  0.00    +0.065 C 
ENDROOT
BRANCH   5   7
ATOM      7  N   UNL     1      -2.345   1.236   0.032  0.00  0.00    -0.352 N 
ATOM      8  H   UNL     1      -2.247   0.140   0.029  0.00  0.00    +0.143 HD
ATOM      9  H   UNL     1      -3.343   1.698   0.044  0.00  0.00    +0.143 HD
ENDBRANCH   5   7
BRANCH   3  10
ATOM     10  N   UNL     1       0.247   5.550  -1.116  0.00  0.00    -0.352 N 
ATOM     11  H   UNL     1      -0.633   6.209  -1.156  0.00  0.00    +0.143 HD
ATOM     12  H   UNL     1       1.215   5.902  -1.503  0.00  0.00    +0.143 HD
ENDBRANCH   3  10
BRANCH   6  13
ATOM     13  C   UNL     1       0.002  -0.004   0.002  0.00  0.00    +0.098 C 
ATOM     14  N   UNL     1       0.018  -1.140  -0.004  0.00  0.00    -0.191 NA
ENDBRANCH   6  13
BRANCH   2  15
ATOM     15  C   UNL     1       2.442   4.058  -1.089  0.00  0.00    +0.098 C 
ATOM     16  N   UNL     1       3.401   4.492  -1.517  0.00  0.00    -0.191 NA
ENDBRANCH   2  15
BRANCH   1  17
ATOM     17  C   UNL     1       1.826   2.196   1.435  0.00  0.00    +0.014 C 
BRANCH  17  18
ATOM     18  C   UNL     1       3.232   2.799   1.433  0.00  0.00    +0.001 C 
BRANCH  18  19
ATOM     19  C   UNL     1       3.759   2.867   2.868  0.00  0.00    +0.000 C 
BRANCH  19  20
ATOM     20  C   UNL     1       5.165   3.471   2.866  0.00  0.00    -0.000 C 
BRANCH  20  21
ATOM     21  C   UNL     1       5.693   3.539   4.300  0.00  0.00    -0.000 C 
BRANCH  21  23
ATOM     22  C   UNL     1       7.627   4.211   5.733  0.00  0.00    +0.004 C 
ATOM     23  C   UNL     1       7.099   4.143   4.298  0.00  0.00    -0.003 C 
ENDBRANCH  21  23
ENDBRANCH  20  21
ENDBRANCH  19  20
ENDBRANCH  18  19
ENDBRANCH  17  18
ENDBRANCH   1  17
TORSDOF 10
