REMARK  Name = ZINC57414311
REMARK  6 active torsions:
REMARK  status: ('A' for Active; 'I' for Inactive)
REMARK    1  A    between atoms: C_1  and  O_2
REMARK    2  A    between atoms: O_2  and  C_3
REMARK    3  A    between atoms: C_3  and  C_5
REMARK    4  A    between atoms: C_6  and  C_19
REMARK    5  A    between atoms: C_11  and  C_13
REMARK    6  A    between atoms: C_19  and  N_20
REMARK                            x       y       z     vdW  Elec       q    Type
REMARK                         _______ _______ _______ _____ _____    ______ ____
ROOT
ATOM      1  C   UNL     1      -1.290  -1.998  -0.024  0.00  0.00    +0.079 C 
ATOM      2  C   UNL     1      -2.448  -2.673   0.141  0.00  0.00    +0.038 C 
ATOM      3  N   UNL     1      -2.466  -4.037   0.202  0.00  0.00    -0.271 N 
ATOM      4  C   UNL     1      -1.369  -4.799   0.106  0.00  0.00    +0.304 C 
ATOM      5  O   UNL     1      -1.485  -6.008   0.172  0.00  0.00    -0.252 OA
ATOM      6  N   UNL     1      -0.141  -4.270  -0.062  0.00  0.00    -0.288 N 
ATOM      7  C   UNL     1      -0.014  -2.806  -0.146  0.00  0.00    +0.144 C 
ATOM      8  H   UNL     1      -3.321  -4.479   0.322  0.00  0.00    +0.156 HD
ATOM      9  H   UNL     1       0.640  -4.841  -0.129  0.00  0.00    +0.151 HD
ENDROOT
BRANCH   7  10
ATOM     10  C   UNL     1       0.627  -2.465  -1.467  0.00  0.00    -0.023 A 
ATOM     11  C   UNL     1       0.160  -3.046  -2.631  0.00  0.00    +0.006 A 
ATOM     12  C   UNL     1       0.748  -2.733  -3.843  0.00  0.00    +0.000 A 
ATOM     13  C   UNL     1       1.802  -1.840  -3.890  0.00  0.00    +0.000 A 
ATOM     14  C   UNL     1       2.268  -1.259  -2.725  0.00  0.00    +0.000 A 
ATOM     15  C   UNL     1       1.678  -1.568  -1.514  0.00  0.00    +0.006 A 
ENDBRANCH   7  10
BRANCH   1  16
ATOM     16  C   UNL     1      -1.271  -0.585  -0.088  0.00  0.00    +0.339 C 
ATOM     17  O   UNL     1      -1.202  -0.025  -1.166  0.00  0.00    -0.245 OA
BRANCH  16  19
ATOM     18  C   UNL     1      -1.303   1.564   0.909  0.00  0.00    +0.280 C 
ATOM     19  O   UNL     1      -1.327   0.142   1.047  0.00  0.00    -0.465 OA
ENDBRANCH  16  19
ENDBRANCH   1  16
BRANCH   2  20
ATOM     20  C   UNL     1      -3.741  -1.909   0.262  0.00  0.00    +0.136 C 
BRANCH  20  21
ATOM     21  N   UNL     1      -4.609  -2.232  -0.879  0.00  0.00    -0.294 NA
ATOM     22  C   UNL     1      -4.025  -1.750  -2.138  0.00  0.00    +0.103 C 
ATOM     23  C   UNL     1      -4.863  -2.261  -3.314  0.00  0.00    +0.122 C 
ATOM     24  N   UNL     1      -6.265  -1.877  -3.091  0.00  0.00    -0.314 N 
ATOM     25  C   UNL     1      -6.880  -2.206  -1.796  0.00  0.00    +0.122 C 
ATOM     26  C   UNL     1      -5.962  -1.696  -0.679  0.00  0.00    +0.103 C 
ATOM     27  C   UNL     1      -6.991  -1.220  -4.079  0.00  0.00    +0.099 A 
ATOM     28  C   UNL     1      -6.435  -1.046  -5.343  0.00  0.00    +0.042 A 
ATOM     29  C   UNL     1      -7.168  -0.392  -6.316  0.00  0.00    +0.005 A 
ATOM     30  C   UNL     1      -8.437   0.069  -5.991  0.00  0.00    +0.018 A 
ATOM     31  C   UNL     1      -8.927  -0.138  -4.718  0.00  0.00    +0.084 A 
ATOM     32  N   UNL     1      -8.207  -0.771  -3.810  0.00  0.00    -0.350 N 
ATOM     33  H   UNL     1      -8.576  -0.907  -2.924  0.00  0.00    +0.166 HD
ENDBRANCH  20  21
ENDBRANCH   2  20
TORSDOF 5
