REMARK  Name = ZINC37360182
REMARK  8 active torsions:
REMARK  status: ('A' for Active; 'I' for Inactive)
REMARK    1  A    between atoms: C_1  and  N_2
REMARK    2  A    between atoms: N_2  and  C_3
REMARK    3  A    between atoms: N_2  and  C_4
REMARK    4  A    between atoms: C_4  and  C_5
REMARK    5  A    between atoms: C_5  and  N_6
REMARK    6  A    between atoms: C_9  and  C_25
REMARK    7  A    between atoms: C_11  and  N_24
REMARK    8  A    between atoms: N_12  and  C_16
REMARK                            x       y       z     vdW  Elec       q    Type
REMARK                         _______ _______ _______ _____ _____    ______ ____
ROOT
ATOM      1  N   UNL     1      -2.701  -2.552   0.235  0.00  0.00    -0.315 N 
ATOM      2  C   UNL     1      -2.969  -3.853  -0.149  0.00  0.00    +0.218 A 
ATOM      3  N   UNL     1      -4.238  -4.246  -0.196  0.00  0.00    -0.214 NA
ATOM      4  C   UNL     1      -4.584  -5.477  -0.553  0.00  0.00    +0.091 A 
ATOM      5  C   UNL     1      -3.558  -6.388  -0.892  0.00  0.00    +0.086 A 
ATOM      6  C   UNL     1      -3.501  -7.714  -1.302  0.00  0.00    +0.131 A 
ATOM      7  N   UNL     1      -2.202  -8.030  -1.473  0.00  0.00    -0.216 N 
ATOM      8  N   UNL     1      -1.400  -6.921  -1.180  0.00  0.00    -0.144 NA
ATOM      9  C   UNL     1      -2.165  -5.911  -0.826  0.00  0.00    +0.189 A 
ATOM     10  N   UNL     1      -1.953  -4.635  -0.452  0.00  0.00    -0.193 NA
ATOM     11  H   UNL     1      -3.430  -1.954   0.465  0.00  0.00    +0.149 HD
ENDROOT
BRANCH   7  12
ATOM     12  C   UNL     1      -1.726  -9.281  -1.883  0.00  0.00    +0.069 A 
ATOM     13  C   UNL     1      -2.379 -10.440  -1.483  0.00  0.00    +0.029 A 
ATOM     14  C   UNL     1      -1.908 -11.673  -1.889  0.00  0.00    +0.023 A 
ATOM     15  C   UNL     1      -0.785 -11.755  -2.693  0.00  0.00    +0.059 A 
ATOM     16  C   UNL     1      -0.131 -10.602  -3.094  0.00  0.00    +0.061 A 
ATOM     17  C   UNL     1      -0.603  -9.365  -2.696  0.00  0.00    +0.049 A 
ATOM     18 CL   UNL     1       1.277 -10.710  -4.104  0.00  0.00    -0.082 Cl
ATOM     19 CL   UNL     1      -0.195 -13.307  -3.200  0.00  0.00    -0.082 Cl
ENDBRANCH   7  12
BRANCH   4  20
ATOM     20  C   UNL     1      -6.005  -5.884  -0.596  0.00  0.00    +0.036 A 
ATOM     21  C   UNL     1      -6.447  -6.968   0.164  0.00  0.00    +0.013 A 
ATOM     22  C   UNL     1      -7.774  -7.342   0.121  0.00  0.00    +0.001 A 
ATOM     23  C   UNL     1      -8.668  -6.646  -0.674  0.00  0.00    +0.003 A 
ATOM     24  C   UNL     1      -8.240  -5.571  -1.430  0.00  0.00    +0.039 A 
ATOM     25  C   UNL     1      -6.913  -5.181  -1.392  0.00  0.00    +0.133 A 
ATOM     26  F   UNL     1      -6.496  -4.127  -2.127  0.00  0.00    -0.205 F 
ENDBRANCH   4  20
BRANCH   6  27
ATOM     27  N   UNL     1      -4.579  -8.557  -1.497  0.00  0.00    -0.342 N 
ATOM     28  H   UNL     1      -5.480  -8.237  -1.333  0.00  0.00    +0.144 HD
ATOM     29  H   UNL     1      -4.435  -9.467  -1.798  0.00  0.00    +0.144 HD
ENDBRANCH   6  27
BRANCH   1  30
ATOM     30  C   UNL     1      -1.317  -2.076   0.295  0.00  0.00    +0.086 C 
BRANCH  30  31
ATOM     31  C   UNL     1      -1.299  -0.613   0.744  0.00  0.00    -0.061 C 
BRANCH  31  33
ATOM     32  C   UNL     1       0.100   1.299   1.119  0.00  0.00    -0.097 C 
ATOM     33  N   UNL     1       0.089  -0.136   0.804  0.00  0.00    +0.377 N 
ATOM     34  C   UNL     1       0.815  -0.872   1.848  0.00  0.00    -0.097 C 
ATOM     35  H   UNL     1       0.536  -0.289  -0.087  0.00  0.00    -0.083 HD
ENDBRANCH  31  33
ENDBRANCH  30  31
ENDBRANCH   1  30
TORSDOF 6
