REMARK  Name = ZINC27724055
REMARK  11 active torsions:
REMARK  status: ('A' for Active; 'I' for Inactive)
REMARK    1  A    between atoms: C_1  and  C_2
REMARK    2  A    between atoms: C_2  and  C_3
REMARK    3  A    between atoms: C_2  and  C_4
REMARK    4  A    between atoms: C_2  and  N_36
REMARK    5  A    between atoms: N_6  and  C_7
REMARK    6  A    between atoms: C_7  and  C_9
REMARK    7  A    between atoms: C_7  and  C_18
REMARK    8  A    between atoms: C_9  and  O_10
REMARK    9  A    between atoms: O_10  and  C_11
REMARK   10  A    between atoms: C_11  and  C_12
REMARK   11  A    between atoms: C_27  and  O_35
REMARK                            x       y       z     vdW  Elec       q    Type
REMARK                         _______ _______ _______ _____ _____    ______ ____
ROOT
ATOM      1  C   UNL     1      -4.207   0.113  -2.014  0.00  0.00    +0.185 C 
ENDROOT
BRANCH   1   2
ATOM      2  C   UNL     1      -2.758   0.511  -2.130  0.00  0.00    +0.238 C 
ATOM      3  O   UNL     1      -2.124   0.211  -3.120  0.00  0.00    -0.273 OA
ATOM      4  N   UNL     1      -2.166   1.199  -1.134  0.00  0.00    -0.300 N 
ATOM      5  C   UNL     1      -0.754   1.594  -1.233  0.00  0.00    +0.108 C 
ATOM      6  C   UNL     1      -0.013   1.086   0.008  0.00  0.00    +0.030 C 
ATOM      7  C   UNL     1      -0.728   1.578   1.263  0.00  0.00    +0.002 C 
ATOM      8  C   UNL     1      -2.163   1.061   1.302  0.00  0.00    +0.030 C 
ATOM      9  C   UNL     1      -2.921   1.569   0.071  0.00  0.00    +0.108 C 
ATOM     10  C   UNL     1      -0.722   3.117   1.302  0.00  0.00    +0.047 C 
ATOM     11  C   UNL     1       0.546   3.421   2.130  0.00  0.00    +0.146 C 
ATOM     12  C   UNL     1       0.754   2.200   3.000  0.00  0.00    -0.015 A 
ATOM     13  C   UNL     1       0.022   1.139   2.499  0.00  0.00    -0.035 A 
ATOM     14  C   UNL     1       0.064  -0.089   3.138  0.00  0.00    +0.004 A 
ATOM     15  C   UNL     1       0.834  -0.257   4.272  0.00  0.00    +0.000 A 
ATOM     16  C   UNL     1       1.564   0.804   4.773  0.00  0.00    +0.000 A 
ATOM     17  C   UNL     1       1.524   2.030   4.138  0.00  0.00    +0.006 A 
BRANCH  11  18
ATOM     18  O   UNL     1       0.341   4.579   2.942  0.00  0.00    -0.387 OA
ATOM     19  H   UNL     1       1.147   4.940   3.599  0.00  0.00    +0.210 HD
ENDBRANCH  11  18
ENDBRANCH   1   2
BRANCH   1  22
ATOM     20  C   UNL     1      -4.299  -0.823  -4.262  0.00  0.00    +0.202 C 
ATOM     21  O   UNL     1      -3.900   0.239  -4.689  0.00  0.00    -0.277 OA
ATOM     22  N   UNL     1      -4.486  -0.990  -2.937  0.00  0.00    -0.303 N 
ATOM     23  H   UNL     1      -4.848  -1.953  -2.550  0.00  0.00    +0.149 HD
BRANCH  20  25
ATOM     24  C   UNL     1      -6.074  -1.958  -5.570  0.00  0.00    -0.001 C 
ATOM     25  C   UNL     1      -4.587  -1.958  -5.211  0.00  0.00    +0.001 C 
ATOM     26  C   UNL     1      -3.755  -1.780  -6.484  0.00  0.00    -0.001 C 
BRANCH  25  27
ATOM     27  N   UNL     1      -4.237  -3.233  -4.571  0.00  0.00    +0.387 N 
ATOM     28  H   UNL     1      -3.167  -3.232  -4.314  0.00  0.00    -0.089 HD
ATOM     29  H   UNL     1      -4.447  -4.061  -5.265  0.00  0.00    -0.089 HD
ATOM     30  H   UNL     1      -4.835  -3.360  -3.657  0.00  0.00    -0.089 HD
ENDBRANCH  25  27
ENDBRANCH  20  25
ENDBRANCH   1  22
BRANCH   1  31
ATOM     31  C   UNL     1      -5.094   1.309  -2.365  0.00  0.00    +0.192 C 
BRANCH  31  32
ATOM     32  O   UNL     1      -6.464   0.968  -2.143  0.00  0.00    -0.373 OA
BRANCH  32  33
ATOM     33  C   UNL     1      -7.381   2.022  -2.442  0.00  0.00    +0.195 C 
BRANCH  33  34
ATOM     34  C   UNL     1      -8.788   1.555  -2.173  0.00  0.00    -0.022 A 
ATOM     35  C   UNL     1      -9.520   0.952  -3.179  0.00  0.00    +0.006 A 
ATOM     36  C   UNL     1     -10.809   0.519  -2.931  0.00  0.00    +0.000 A 
ATOM     37  C   UNL     1     -11.370   0.698  -1.680  0.00  0.00    +0.000 A 
ATOM     38  C   UNL     1     -10.640   1.306  -0.676  0.00  0.00    +0.000 A 
ATOM     39  C   UNL     1      -9.349   1.734  -0.923  0.00  0.00    +0.006 A 
ENDBRANCH  33  34
ENDBRANCH  32  33
ENDBRANCH  31  32
ENDBRANCH   1  31
TORSDOF 9
