REMARK  Name = ZINC32824212
REMARK  8 active torsions:
REMARK  status: ('A' for Active; 'I' for Inactive)
REMARK    1  A    between atoms: C_1  and  C_2
REMARK    2  A    between atoms: C_2  and  C_4
REMARK    3  A    between atoms: C_2  and  S_18
REMARK    4  A    between atoms: C_4  and  C_6
REMARK    5  A    between atoms: C_6  and  C_16
REMARK    6  A    between atoms: S_18  and  C_19
REMARK    7  A    between atoms: N_24  and  C_25
REMARK    8  A    between atoms: C_25  and  C_26
REMARK                            x       y       z     vdW  Elec       q    Type
REMARK                         _______ _______ _______ _____ _____    ______ ____
ROOT
ATOM      1  C   UNL     1       4.462  -6.498   5.553  0.00  0.00    +0.028 C 
ATOM      2  C   UNL     1       5.056  -7.290   4.386  0.00  0.00    +0.122 C 
ENDROOT
BRANCH   2   3
ATOM      3  C   UNL     1       5.868  -8.441   4.922  0.00  0.00    +0.189 C 
ATOM      4  O   UNL     1       7.068  -8.320   5.072  0.00  0.00    -0.290 OA
BRANCH   3   5
ATOM      5  C   UNL     1       5.238  -9.654   5.248  0.00  0.00    +0.131 C 
ATOM      6  C   UNL     1       5.997 -10.728   5.747  0.00  0.00    +0.114 C 
ATOM      7  N   UNL     1       7.339 -10.715   5.952  0.00  0.00    -0.300 N 
ATOM      8  C   UNL     1       7.716 -11.955   6.454  0.00  0.00    +0.054 A 
ATOM      9  C   UNL     1       8.937 -12.491   6.837  0.00  0.00    +0.025 A 
ATOM     10  C   UNL     1       9.003 -13.789   7.303  0.00  0.00    +0.002 A 
ATOM     11  C   UNL     1       7.855 -14.558   7.391  0.00  0.00    +0.002 A 
ATOM     12  C   UNL     1       6.635 -14.035   7.012  0.00  0.00    +0.025 A 
ATOM     13  C   UNL     1       6.558 -12.731   6.542  0.00  0.00    +0.054 A 
ATOM     14  N   UNL     1       5.503 -11.944   6.096  0.00  0.00    -0.300 N 
ATOM     15  H   UNL     1       7.922  -9.811   5.719  0.00  0.00    +0.153 HD
ATOM     16  H   UNL     1       4.427 -12.150   5.997  0.00  0.00    +0.153 HD
BRANCH   5  17
ATOM     17  C   UNL     1       3.824  -9.796   5.071  0.00  0.00    +0.106 C 
ATOM     18  N   UNL     1       2.703  -9.909   4.931  0.00  0.00    -0.191 NA
ENDBRANCH   5  17
ENDBRANCH   3   5
ENDBRANCH   2   3
BRANCH   2  19
ATOM     19  S   UNL     1       6.122  -6.204   3.400  0.00  0.00    -0.086 S 
BRANCH  19  20
ATOM     20  C   UNL     1       5.013  -5.009   2.732  0.00  0.00    +0.161 A 
ATOM     21  N   UNL     1       3.708  -4.899   2.890  0.00  0.00    -0.133 NA
ATOM     22  N   UNL     1       3.027  -3.877   2.270  0.00  0.00    -0.125 NA
ATOM     23  C   UNL     1       3.682  -3.012   1.521  0.00  0.00    +0.182 A 
ATOM     24  S   UNL     1       5.354  -3.626   1.653  0.00  0.00    -0.025 S 
ATOM     25  N   UNL     1       3.199  -1.918   0.812  0.00  0.00    -0.320 N 
ATOM     26  H   UNL     1       3.890  -1.292   0.229  0.00  0.00    +0.148 HD
BRANCH  25  27
ATOM     27  C   UNL     1       1.769  -1.600   0.841  0.00  0.00    +0.135 C 
BRANCH  27  28
ATOM     28  C   UNL     1       1.506  -0.359  -0.014  0.00  0.00    +0.135 C 
ATOM     29  C   UNL     1       0.002  -0.004   0.002  0.00  0.00    +0.035 C 
ATOM     30  C   UNL     1      -0.019   1.541   0.011  0.00  0.00    +0.031 C 
ATOM     31  C   UNL     1       1.474   1.937  -0.002  0.00  0.00    +0.160 C 
ATOM     32  O   UNL     1       2.163   0.795   0.553  0.00  0.00    -0.375 OA
ENDBRANCH  27  28
ENDBRANCH  25  27
ENDBRANCH  19  20
ENDBRANCH   2  19
TORSDOF 7
