REMARK  Name = ZINC38798583
REMARK  9 active torsions:
REMARK  status: ('A' for Active; 'I' for Inactive)
REMARK    1  A    between atoms: C_1  and  C_2
REMARK    2  A    between atoms: C_2  and  C_3
REMARK    3  A    between atoms: C_3  and  C_4
REMARK    4  A    between atoms: C_4  and  C_5
REMARK    5  A    between atoms: C_5  and  N_6
REMARK    6  A    between atoms: C_7  and  C_9
REMARK    7  A    between atoms: N_21  and  N_25
REMARK    8  A    between atoms: C_22  and  N_24
REMARK    9  A    between atoms: C_26  and  C_27
REMARK                            x       y       z     vdW  Elec       q    Type
REMARK                         _______ _______ _______ _____ _____    ______ ____
ROOT
ATOM      1  C   UNL     1       2.376  -6.135   3.383  0.00  0.00    +0.131 C 
ATOM      2  C   UNL     1       0.879  -6.359   3.393  0.00  0.00    +0.095 A 
ATOM      3  C   UNL     1       0.568  -7.189   4.482  0.00  0.00    +0.162 A 
ATOM      4  N   UNL     1      -0.696  -7.532   4.704  0.00  0.00    -0.227 NA
ATOM      5  C   UNL     1      -1.663  -7.090   3.896  0.00  0.00    +0.091 A 
ATOM      6  C   UNL     1      -3.007  -7.441   4.114  0.00  0.00    +0.030 A 
ATOM      7  C   UNL     1      -3.971  -6.975   3.275  0.00  0.00    +0.002 A 
ATOM      8  C   UNL     1      -3.648  -6.152   2.198  0.00  0.00    +0.002 A 
ATOM      9  C   UNL     1      -2.358  -5.792   1.955  0.00  0.00    +0.030 A 
ATOM     10  C   UNL     1      -1.335  -6.253   2.800  0.00  0.00    +0.090 A 
ATOM     11  N   UNL     1      -0.057  -5.917   2.588  0.00  0.00    -0.246 NA
ATOM     12  N   UNL     1       1.704  -7.538   5.196  0.00  0.00    -0.219 N 
ATOM     13  C   UNL     1       2.895  -6.931   4.591  0.00  0.00    +0.058 C 
ENDROOT
BRANCH   1  15
ATOM     14  N   UNL     1       2.288  -3.787   2.608  0.00  0.00    -0.315 N 
ATOM     15  C   UNL     1       2.689  -4.669   3.545  0.00  0.00    +0.222 C 
ATOM     16  O   UNL     1       3.302  -4.284   4.518  0.00  0.00    -0.275 OA
ATOM     17  H   UNL     1       1.797  -4.095   1.830  0.00  0.00    +0.149 HD
BRANCH  14  18
ATOM     18  C   UNL     1       2.592  -2.363   2.766  0.00  0.00    +0.104 C 
BRANCH  18  19
ATOM     19  C   UNL     1       2.029  -1.586   1.574  0.00  0.00    +0.019 C 
BRANCH  19  20
ATOM     20  C   UNL     1       2.346  -0.098   1.738  0.00  0.00    +0.001 C 
BRANCH  20  22
ATOM     21  C   UNL     1       2.101   2.166   0.711  0.00  0.00    +0.004 C 
ATOM     22  C   UNL     1       1.784   0.678   0.546  0.00  0.00    -0.003 C 
ENDBRANCH  20  22
ENDBRANCH  19  20
ENDBRANCH  18  19
ENDBRANCH  14  18
ENDBRANCH   1  15
BRANCH  13  23
ATOM     23  N   UNL     1       3.831  -7.973   4.148  0.00  0.00    +0.392 N 
ATOM     24  H   UNL     1       4.563  -7.555   3.594  0.00  0.00    -0.087 HD
ATOM     25  H   UNL     1       4.236  -8.426   4.954  0.00  0.00    -0.087 HD
ATOM     26  H   UNL     1       3.337  -8.655   3.592  0.00  0.00    -0.087 HD
ENDBRANCH  13  23
BRANCH  12  27
ATOM     27  N   UNL     1       1.714  -8.291   6.243  0.00  0.00    -0.188 NA
ATOM     28  C   UNL     1       2.826  -8.464   6.917  0.00  0.00    +0.136 C 
BRANCH  28  29
ATOM     29  C   UNL     1       2.864  -9.365   7.985  0.00  0.00    +0.000 C 
ATOM     30  C   UNL     1       3.956  -9.661   8.802  0.00  0.00    +0.004 A 
ATOM     31  C   UNL     1       5.285  -9.188   8.825  0.00  0.00    +0.010 A 
ATOM     32  C   UNL     1       6.154  -9.663   9.754  0.00  0.00    +0.001 A 
ATOM     33  C   UNL     1       5.765 -10.616  10.698  0.00  0.00    +0.002 A 
ATOM     34  C   UNL     1       4.505 -11.115  10.735  0.00  0.00    +0.026 A 
ATOM     35  C   UNL     1       3.542 -10.665   9.795  0.00  0.00    +0.043 A 
ATOM     36  N   UNL     1       2.275 -10.988   9.623  0.00  0.00    -0.380 N 
ATOM     37  C   UNL     1       1.727 -10.220   8.501  0.00  0.00    +0.150 C 
ATOM     38  H   UNL     1       1.782 -11.629  10.159  0.00  0.00    +0.160 HD
ENDBRANCH  28  29
ENDBRANCH  12  27
TORSDOF 8
