REMARK  Name = ZINC63734800
REMARK  6 active torsions:
REMARK  status: ('A' for Active; 'I' for Inactive)
REMARK    1  A    between atoms: C_1  and  C_2
REMARK    2  A    between atoms: C_4  and  C_10
REMARK    3  A    between atoms: C_5  and  O_9
REMARK    4  A    between atoms: C_15  and  N_18
REMARK    5  A    between atoms: N_18  and  C_19
REMARK    6  A    between atoms: N_18  and  C_20
REMARK                            x       y       z     vdW  Elec       q    Type
REMARK                         _______ _______ _______ _____ _____    ______ ____
ROOT
ATOM      1  C   UNL     1       0.028  -2.813  -2.487  0.00  0.00    +0.250 C 
ATOM      2  O   UNL     1      -0.081  -2.211  -1.437  0.00  0.00    -0.270 OA
ATOM      3  N   UNL     1       0.115  -2.134  -3.648  0.00  0.00    -0.298 N 
ATOM      4  C   UNL     1       0.212  -0.668  -3.652  0.00  0.00    +0.106 C 
ATOM      5  C   UNL     1      -0.888  -0.103  -4.555  0.00  0.00    +0.004 C 
ATOM      6  C   UNL     1      -0.784  -0.743  -5.941  0.00  0.00    -0.066 C 
ATOM      7  C   UNL     1      -0.986  -2.256  -5.822  0.00  0.00    +0.004 C 
ATOM      8  C   UNL     1       0.119  -2.846  -4.933  0.00  0.00    +0.106 C 
ENDROOT
BRANCH   1  12
ATOM      9  C   UNL     1       2.284  -7.065  -3.789  0.00  0.00    +0.044 C 
ATOM     10  C   UNL     1       1.148  -6.340  -3.115  0.00  0.00    -0.048 A 
ATOM     11  C   UNL     1       1.118  -4.962  -3.115  0.00  0.00    +0.020 A 
ATOM     12  C   UNL     1       0.066  -4.288  -2.491  0.00  0.00    +0.080 A 
ATOM     13  C   UNL     1      -0.954  -5.021  -1.868  0.00  0.00    +0.143 A 
ATOM     14  C   UNL     1      -0.907  -6.407  -1.877  0.00  0.00    +0.060 A 
ATOM     15  C   UNL     1       0.136  -7.061  -2.503  0.00  0.00    +0.022 A 
ATOM     16 BR   UNL     1      -2.279  -7.404  -1.038  0.00  0.00    -0.046 Br
BRANCH  13  17
ATOM     17  O   UNL     1      -1.980  -4.377  -1.258  0.00  0.00    -0.505 OA
ATOM     18  H   UNL     1      -2.734  -4.200  -1.838  0.00  0.00    +0.292 HD
ENDBRANCH  13  17
ENDBRANCH   1  12
BRANCH   6  19
ATOM     19  N   UNL     1      -1.818  -0.179  -6.820  0.00  0.00    +0.378 N 
ATOM     20  C   UNL     1      -1.623   1.272  -6.935  0.00  0.00    -0.096 C 
ATOM     21  C   UNL     1      -1.718  -0.794  -8.150  0.00  0.00    -0.096 C 
ATOM     22  H   UNL     1      -2.729  -0.367  -6.430  0.00  0.00    -0.082 HD
ENDBRANCH   6  19
TORSDOF 3
