REMARK  Name = ZINC39677884
REMARK  7 active torsions:
REMARK  status: ('A' for Active; 'I' for Inactive)
REMARK    1  A    between atoms: C_1  and  C_2
REMARK    2  A    between atoms: C_6  and  C_9
REMARK    3  A    between atoms: C_13  and  C_22
REMARK    4  A    between atoms: N_24  and  C_25
REMARK    5  A    between atoms: C_25  and  C_26
REMARK    6  A    between atoms: N_29  and  C_33
REMARK    7  A    between atoms: C_33  and  C_34
REMARK                            x       y       z     vdW  Elec       q    Type
REMARK                         _______ _______ _______ _____ _____    ______ ____
ROOT
ATOM      1  C   UNL     1       0.088  -2.899   2.609  0.00  0.00    +0.252 C 
ATOM      2  O   UNL     1       1.131  -3.255   3.122  0.00  0.00    -0.270 OA
ATOM      3  N   UNL     1      -1.090  -3.272   3.149  0.00  0.00    -0.296 N 
ATOM      4  C   UNL     1      -2.453  -2.945   2.668  0.00  0.00    +0.121 C 
ATOM      5  C   UNL     1      -3.264  -4.243   2.884  0.00  0.00    +0.100 C 
ATOM      6  C   UNL     1      -2.512  -4.995   3.995  0.00  0.00    -0.004 C 
ATOM      7  C   UNL     1      -1.313  -4.106   4.354  0.00  0.00    +0.115 C 
ATOM      8  C   UNL     1      -2.023  -6.346   3.481  0.00  0.00    -0.010 C 
ATOM      9  C   UNL     1      -1.329  -7.099   4.619  0.00  0.00    -0.082 C 
ATOM     10  N   UNL     1      -2.271  -7.287   5.729  0.00  0.00    +0.379 N 
ATOM     11  C   UNL     1      -2.665  -5.984   6.278  0.00  0.00    -0.082 C 
ATOM     12  C   UNL     1      -3.415  -5.184   5.210  0.00  0.00    -0.010 C 
ATOM     13  H   UNL     1      -3.091  -7.771   5.395  0.00  0.00    -0.086 HD
ATOM     14  H   UNL     1      -1.831  -7.836   6.452  0.00  0.00    -0.086 HD
ENDROOT
BRANCH   1  20
ATOM     15  C   UNL     1       0.156   1.617   0.480  0.00  0.00    +0.047 C 
ATOM     16  C   UNL     1       0.143   0.114   0.364  0.00  0.00    -0.014 A 
ATOM     17  C   UNL     1       0.153  -0.481  -0.884  0.00  0.00    +0.009 A 
ATOM     18  C   UNL     1       0.142  -1.859  -1.002  0.00  0.00    +0.039 A 
ATOM     19  C   UNL     1       0.120  -2.654   0.130  0.00  0.00    +0.138 A 
ATOM     20  C   UNL     1       0.111  -2.060   1.396  0.00  0.00    +0.107 A 
ATOM     21  C   UNL     1       0.128  -0.665   1.506  0.00  0.00    +0.141 A 
ATOM     22  F   UNL     1       0.125  -0.081   2.724  0.00  0.00    -0.204 F 
ATOM     23  F   UNL     1       0.109  -3.999   0.012  0.00  0.00    -0.205 F 
ENDBRANCH   1  20
BRANCH   5  24
ATOM     24  C   UNL     1      -4.668  -3.917   3.324  0.00  0.00    +0.218 C 
ATOM     25  O   UNL     1      -4.882  -2.917   3.976  0.00  0.00    -0.275 OA
ATOM     26  N   UNL     1      -5.685  -4.737   2.994  0.00  0.00    -0.313 N 
ATOM     27  H   UNL     1      -5.513  -5.537   2.473  0.00  0.00    +0.149 HD
BRANCH  26  28
ATOM     28  C   UNL     1      -7.050  -4.421   3.422  0.00  0.00    +0.137 C 
BRANCH  28  29
ATOM     29  C   UNL     1      -8.006  -5.504   2.920  0.00  0.00    +0.149 C 
ATOM     30  C   UNL     1      -9.433  -5.173   3.365  0.00  0.00    +0.118 C 
ATOM     31  N   UNL     1     -10.358  -6.174   2.815  0.00  0.00    -0.293 NA
ATOM     32  C   UNL     1     -10.282  -6.202   1.347  0.00  0.00    +0.113 C 
ATOM     33  C   UNL     1      -8.846  -6.523   0.922  0.00  0.00    +0.175 C 
ATOM     34  O   UNL     1      -7.958  -5.558   1.492  0.00  0.00    -0.372 OA
BRANCH  31  35
ATOM     35  C   UNL     1     -11.733  -5.925   3.266  0.00  0.00    +0.119 C 
BRANCH  35  36
ATOM     36  C   UNL     1     -12.605  -7.096   2.891  0.00  0.00    -0.033 A 
ATOM     37  C   UNL     1     -13.249  -7.114   1.669  0.00  0.00    +0.005 A 
ATOM     38  C   UNL     1     -14.049  -8.188   1.325  0.00  0.00    +0.000 A 
ATOM     39  C   UNL     1     -14.203  -9.244   2.203  0.00  0.00    +0.000 A 
ATOM     40  C   UNL     1     -13.558  -9.226   3.425  0.00  0.00    +0.000 A 
ATOM     41  C   UNL     1     -12.755  -8.154   3.768  0.00  0.00    +0.005 A 
ENDBRANCH  35  36
ENDBRANCH  31  35
ENDBRANCH  28  29
ENDBRANCH  26  28
ENDBRANCH   5  24
TORSDOF 6
