REMARK  Name = ZINC38837799
REMARK  14 active torsions:
REMARK  status: ('A' for Active; 'I' for Inactive)
REMARK    1  A    between atoms: C_1  and  C_2
REMARK    2  A    between atoms: N_11  and  C_12
REMARK    3  A    between atoms: C_12  and  C_13
REMARK    4  A    between atoms: C_13  and  C_14
REMARK    5  A    between atoms: C_14  and  N_15
REMARK    6  A    between atoms: N_15  and  C_16
REMARK    7  A    between atoms: N_15  and  C_17
REMARK    8  A    between atoms: C_18  and  C_20
REMARK    9  A    between atoms: C_20  and  C_21
REMARK   10  A    between atoms: C_21  and  C_22
REMARK   11  A    between atoms: C_22  and  S_23
REMARK   12  A    between atoms: S_23  and  C_26
REMARK   13  A    between atoms: C_29  and  O_32
REMARK   14  A    between atoms: O_32  and  C_33
REMARK                            x       y       z     vdW  Elec       q    Type
REMARK                         _______ _______ _______ _____ _____    ______ ____
ROOT
ATOM      1  C   UNL     1      -0.018   1.503   0.010  0.00  0.00    +0.046 C 
ATOM      2  C   UNL     1       0.002  -0.004   0.002  0.00  0.00    -0.023 A 
ATOM      3  C   UNL     1       0.005  -0.675  -1.193  0.00  0.00    +0.025 A 
ATOM      4  C   UNL     1       0.024  -2.062  -1.246  0.00  0.00    +0.042 A 
ATOM      5  C   UNL     1       0.039  -2.785  -0.066  0.00  0.00    +0.037 A 
ATOM      6  C   UNL     1       0.036  -2.120   1.135  0.00  0.00    +0.042 A 
ATOM      7  C   UNL     1       0.023  -0.710   1.227  0.00  0.00    +0.083 A 
ATOM      8  N   UNL     1       0.028  -0.205   2.480  0.00  0.00    -0.224 NA
ATOM      9  C   UNL     1       0.048  -0.968   3.548  0.00  0.00    +0.168 A 
ATOM     10  S   UNL     1       0.051  -2.610   2.843  0.00  0.00    -0.052 S 
ATOM     11  N   UNL     1       0.056  -0.595   4.882  0.00  0.00    -0.250 N 
ATOM     12  C   UNL     1       0.041   0.711   5.217  0.00  0.00    +0.221 C 
ATOM     13  O   UNL     1       0.022   1.559   4.351  0.00  0.00    -0.275 OA
ATOM     14 CL   UNL     1       0.026  -2.882  -2.776  0.00  0.00    -0.083 Cl
ENDROOT
BRANCH  11  15
ATOM     15  C   UNL     1       0.079  -1.619   5.929  0.00  0.00    +0.114 C 
BRANCH  15  16
ATOM     16  C   UNL     1       1.529  -1.957   6.280  0.00  0.00    +0.001 C 
BRANCH  16  17
ATOM     17  C   UNL     1       1.554  -3.027   7.373  0.00  0.00    -0.078 C 
BRANCH  17  18
ATOM     18  N   UNL     1       2.946  -3.351   7.710  0.00  0.00    +0.376 N 
ATOM     19  C   UNL     1       3.593  -2.173   8.305  0.00  0.00    -0.097 C 
ATOM     20  C   UNL     1       2.972  -4.461   8.672  0.00  0.00    -0.097 C 
ATOM     21  H   UNL     1       3.441  -3.620   6.873  0.00  0.00    -0.083 HD
ENDBRANCH  17  18
ENDBRANCH  16  17
ENDBRANCH  15  16
ENDBRANCH  11  15
BRANCH  12  22
ATOM     22  C   UNL     1       0.049   1.116   6.668  0.00  0.00    +0.098 C 
BRANCH  22  23
ATOM     23  C   UNL     1       0.030   2.643   6.771  0.00  0.00    +0.032 C 
BRANCH  23  24
ATOM     24  C   UNL     1       0.038   3.055   8.245  0.00  0.00    +0.172 C 
BRANCH  24  25
ATOM     25  S   UNL     1       0.015   4.864   8.367  0.00  0.00    -0.003 S 
ATOM     26  O   UNL     1       1.239   5.403   7.884  0.00  0.00    -0.169 OA
ATOM     27  O   UNL     1      -1.230   5.370   7.907  0.00  0.00    -0.169 OA
BRANCH  25  28
ATOM     28  C   UNL     1       0.027   5.202  10.097  0.00  0.00    +0.088 A 
ATOM     29  C   UNL     1      -1.166   5.312  10.786  0.00  0.00    +0.030 A 
ATOM     30  C   UNL     1      -1.160   5.577  12.142  0.00  0.00    +0.047 A 
ATOM     31  C   UNL     1       0.045   5.732  12.812  0.00  0.00    +0.120 A 
ATOM     32  C   UNL     1       1.241   5.620  12.117  0.00  0.00    +0.047 A 
ATOM     33  C   UNL     1       1.230   5.350  10.763  0.00  0.00    +0.030 A 
BRANCH  31  34
ATOM     34  O   UNL     1       0.054   5.993  14.145  0.00  0.00    -0.495 OA
ATOM     35  C   UNL     1       1.332   6.140  14.769  0.00  0.00    +0.277 C 
ENDBRANCH  31  34
ENDBRANCH  25  28
ENDBRANCH  24  25
ENDBRANCH  23  24
ENDBRANCH  22  23
ENDBRANCH  12  22
TORSDOF 10
