REMARK  Name = ZINC30879839
REMARK  12 active torsions:
REMARK  status: ('A' for Active; 'I' for Inactive)
REMARK    1  A    between atoms: C_1  and  C_2
REMARK    2  A    between atoms: C_4  and  C_26
REMARK    3  A    between atoms: C_6  and  C_23
REMARK    4  A    between atoms: C_9  and  C_11
REMARK    5  A    between atoms: C_11  and  C_12
REMARK    6  A    between atoms: C_20  and  C_22
REMARK    7  A    between atoms: C_23  and  C_24
REMARK    8  A    between atoms: C_23  and  C_25
REMARK    9  A    between atoms: C_26  and  N_27
REMARK   10  A    between atoms: N_30  and  C_31
REMARK   11  A    between atoms: C_31  and  C_32
REMARK   12  A    between atoms: C_31  and  C_33
REMARK                            x       y       z     vdW  Elec       q    Type
REMARK                         _______ _______ _______ _____ _____    ______ ____
ROOT
ATOM      1  C   UNL     1      -0.570   3.729  -0.080  0.00  0.00    +0.039 C 
ATOM      2  C   UNL     1      -0.186   2.706   0.958  0.00  0.00    -0.073 C 
ATOM      3  C   UNL     1      -0.475   2.957   2.194  0.00  0.00    -0.022 C 
ATOM      4  C   UNL     1      -0.148   2.041   3.337  0.00  0.00    +0.032 C 
ATOM      5  C   UNL     1       0.169   0.637   2.818  0.00  0.00    +0.000 C 
ATOM      6  C   UNL     1       1.184   0.760   1.674  0.00  0.00    +0.012 C 
ATOM      7  C   UNL     1       0.506   1.458   0.493  0.00  0.00    +0.023 C 
ENDROOT
BRANCH   5   8
ATOM      8  C   UNL     1       0.763  -0.210   3.945  0.00  0.00    -0.013 C 
ATOM      9  C   UNL     1       0.952  -1.648   3.456  0.00  0.00    +0.007 C 
ATOM     10  C   UNL     1       2.117   0.370   4.359  0.00  0.00    +0.007 C 
ENDBRANCH   5   8
BRANCH   7  11
ATOM     11  C   UNL     1      -0.519   0.512  -0.135  0.00  0.00    +0.103 C 
BRANCH  11  12
ATOM     12  C   UNL     1       0.194  -0.656  -0.765  0.00  0.00    +0.216 C 
ATOM     13  O   UNL     1       1.403  -0.729  -0.710  0.00  0.00    -0.276 OA
ATOM     14  N   UNL     1      -0.512  -1.620  -1.389  0.00  0.00    -0.298 N 
ATOM     15  C   UNL     1      -1.978  -1.547  -1.457  0.00  0.00    +0.126 C 
ATOM     16  C   UNL     1      -2.400  -1.630  -2.934  0.00  0.00    +0.126 C 
ATOM     17  N   UNL     1      -1.718  -2.775  -3.553  0.00  0.00    -0.299 N 
ATOM     18  C   UNL     1      -0.252  -2.850  -3.479  0.00  0.00    +0.126 C 
ATOM     19  C   UNL     1       0.170  -2.765  -2.007  0.00  0.00    +0.126 C 
ATOM     20  C   UNL     1      -2.424  -3.739  -4.176  0.00  0.00    +0.213 C 
ATOM     21  O   UNL     1      -3.624  -3.623  -4.308  0.00  0.00    -0.276 OA
ATOM     22  C   UNL     1      -1.722  -4.962  -4.708  0.00  0.00    +0.109 C 
ENDBRANCH  11  12
ENDBRANCH   7  11
BRANCH   4  23
ATOM     23  C   UNL     1      -1.344   1.970   4.288  0.00  0.00    +0.113 C 
BRANCH  23  24
ATOM     24  N   UNL     1      -1.535   3.273   4.931  0.00  0.00    -0.299 N 
ATOM     25  C   UNL     1      -2.537   3.448   5.815  0.00  0.00    +0.300 C 
ATOM     26  O   UNL     1      -3.282   2.524   6.080  0.00  0.00    -0.253 OA
ATOM     27  N   UNL     1      -2.712   4.646   6.407  0.00  0.00    -0.297 N 
ATOM     28  H   UNL     1      -0.860   4.108   4.692  0.00  0.00    +0.150 HD
ATOM     29  H   UNL     1      -2.038   5.481   6.167  0.00  0.00    +0.150 HD
BRANCH  27  30
ATOM     30  C   UNL     1      -3.801   4.836   7.368  0.00  0.00    +0.068 C 
ATOM     31  C   UNL     1      -3.342   4.383   8.755  0.00  0.00    +0.027 C 
ATOM     32  C   UNL     1      -4.187   6.316   7.416  0.00  0.00    +0.027 C 
ENDBRANCH  27  30
ENDBRANCH  23  24
ENDBRANCH   4  23
TORSDOF 6
