REMARK  Name = ZINC64128519
REMARK  7 active torsions:
REMARK  status: ('A' for Active; 'I' for Inactive)
REMARK    1  A    between atoms: C_1  and  O_2
REMARK    2  A    between atoms: O_2  and  C_3
REMARK    3  A    between atoms: C_6  and  C_9
REMARK    4  A    between atoms: N_12  and  C_16
REMARK    5  A    between atoms: C_16  and  N_17
REMARK    6  A    between atoms: C_20  and  C_23
REMARK    7  A    between atoms: C_27  and  C_29
REMARK                            x       y       z     vdW  Elec       q    Type
REMARK                         _______ _______ _______ _____ _____    ______ ____
ROOT
ATOM      1  C   UNL     1       3.285  -6.036  -5.367  0.00  0.00    +0.053 C 
ENDROOT
BRANCH   1   4
ATOM      2  C   UNL     1       1.037  -3.150  -5.064  0.00  0.00    +0.292 C 
ATOM      3  N   UNL     1       1.439  -4.375  -5.795  0.00  0.00    -0.197 NA
ATOM      4  N   UNL     1       2.640  -4.728  -5.232  0.00  0.00    -0.245 N 
ATOM      5  C   UNL     1       3.133  -3.686  -4.538  0.00  0.00    +0.245 C 
ATOM      6  S   UNL     1       4.611  -3.704  -3.674  0.00  0.00    +0.007 S 
ATOM      7  O   UNL     1       2.300  -2.622  -4.613  0.00  0.00    -0.449 OA
ATOM      8  H   UNL     1       1.542  -4.190  -6.782  0.00  0.00    +0.149 HD
BRANCH   2  12
ATOM      9  C   UNL     1      -0.912  -0.391  -7.682  0.00  0.00    +0.120 A 
ATOM     10  C   UNL     1       0.039   0.061  -6.779  0.00  0.00    +0.046 A 
ATOM     11  C   UNL     1       0.667  -0.832  -5.934  0.00  0.00    +0.012 A 
ATOM     12  C   UNL     1       0.350  -2.177  -5.987  0.00  0.00    +0.009 A 
ATOM     13  C   UNL     1      -0.598  -2.631  -6.886  0.00  0.00    +0.012 A 
ATOM     14  C   UNL     1      -1.234  -1.740  -7.729  0.00  0.00    +0.046 A 
BRANCH   9  16
ATOM     15  C   UNL     1      -1.151   1.859  -8.410  0.00  0.00    +0.277 C 
ATOM     16  O   UNL     1      -1.532   0.486  -8.514  0.00  0.00    -0.495 OA
ENDBRANCH   9  16
ENDBRANCH   2  12
ENDBRANCH   1   4
BRANCH   1  17
ATOM     17  N   UNL     1       2.583  -7.016  -4.527  0.00  0.00    +0.391 N 
ATOM     18  C   UNL     1       2.742  -6.651  -3.114  0.00  0.00    -0.076 C 
ATOM     19  C   UNL     1       1.945  -7.622  -2.240  0.00  0.00    -0.007 C 
ATOM     20  C   UNL     1       2.466  -9.045  -2.463  0.00  0.00    +0.055 C 
ATOM     21  C   UNL     1       2.364  -9.388  -3.952  0.00  0.00    -0.007 C 
ATOM     22  C   UNL     1       3.145  -8.352  -4.763  0.00  0.00    -0.076 C 
ATOM     23  H   UNL     1       1.602  -7.019  -4.764  0.00  0.00    -0.079 HD
BRANCH  20  24
ATOM     24  C   UNL     1       1.635 -10.017  -1.664  0.00  0.00    +0.154 A 
ATOM     25  N   UNL     1       0.348 -10.205  -1.799  0.00  0.00    -0.157 NA
ATOM     26  H   UNL     1      -0.905 -11.551  -0.720  0.00  0.00    +0.190 HD
ATOM     27  N   UNL     1      -0.017 -11.190  -0.867  0.00  0.00    -0.262 N 
ATOM     28  C   UNL     1       1.110 -11.535  -0.219  0.00  0.00    +0.128 A 
ATOM     29  N   UNL     1       2.094 -10.827  -0.711  0.00  0.00    -0.216 NA
BRANCH  28  30
ATOM     30  C   UNL     1       1.220 -12.561   0.879  0.00  0.00    +0.056 C 
ATOM     31  C   UNL     1       0.295 -13.777   0.806  0.00  0.00    +0.012 C 
ATOM     32  C   UNL     1       0.045 -12.687   1.850  0.00  0.00    +0.012 C 
ENDBRANCH  28  30
ENDBRANCH  20  24
ENDBRANCH   1  17
TORSDOF 6
