REMARK  Name = ZINC41586378
REMARK  15 active torsions:
REMARK  status: ('A' for Active; 'I' for Inactive)
REMARK    1  A    between atoms: C_1  and  C_2
REMARK    2  A    between atoms: C_2  and  O_3
REMARK    3  A    between atoms: O_3  and  C_4
REMARK    4  A    between atoms: C_4  and  C_6
REMARK    5  A    between atoms: N_11  and  C_13
REMARK    6  A    between atoms: C_13  and  C_14
REMARK    7  A    between atoms: C_15  and  O_38
REMARK    8  A    between atoms: C_17  and  C_37
REMARK    9  A    between atoms: C_22  and  C_23
REMARK   10  A    between atoms: C_25  and  O_33
REMARK   11  A    between atoms: C_26  and  O_31
REMARK   12  A    between atoms: C_28  and  O_29
REMARK   13  A    between atoms: O_29  and  C_30
REMARK   14  A    between atoms: O_31  and  C_32
REMARK   15  A    between atoms: O_33  and  C_34
REMARK                            x       y       z     vdW  Elec       q    Type
REMARK                         _______ _______ _______ _____ _____    ______ ____
ROOT
ATOM      1  C   UNL     1      -5.248  -7.215   0.352  0.00  0.00    +0.020 A 
ATOM      2  C   UNL     1      -5.693  -7.441   1.644  0.00  0.00    +0.122 A 
ATOM      3  C   UNL     1      -6.961  -7.967   1.875  0.00  0.00    +0.050 A 
ATOM      4  C   UNL     1      -7.781  -8.267   0.825  0.00  0.00    -0.033 A 
ATOM      5  C   UNL     1      -7.347  -8.045  -0.482  0.00  0.00    +0.071 A 
ATOM      6  C   UNL     1      -6.072  -7.510  -0.728  0.00  0.00    +0.145 A 
ATOM      7  O   UNL     1      -5.881  -7.380  -2.058  0.00  0.00    -0.451 OA
ATOM      8  C   UNL     1      -6.961  -7.793  -2.763  0.00  0.00    +0.176 C 
ATOM      9  C   UNL     1      -7.085  -7.791  -4.118  0.00  0.00    +0.062 C 
ATOM     10  C   UNL     1      -7.969  -8.256  -1.802  0.00  0.00    +0.232 C 
ATOM     11  O   UNL     1      -9.079  -8.702  -2.041  0.00  0.00    -0.283 OA
ATOM     12  C   UNL     1      -9.153  -8.838   1.077  0.00  0.00    +0.045 C 
ENDROOT
BRANCH   9  13
ATOM     13  C   UNL     1      -5.935  -7.445  -4.957  0.00  0.00    +0.024 A 
ATOM     14  C   UNL     1      -4.639  -7.469  -4.422  0.00  0.00    +0.061 A 
ATOM     15  C   UNL     1      -3.562  -7.142  -5.218  0.00  0.00    +0.162 A 
ATOM     16  C   UNL     1      -3.758  -6.787  -6.554  0.00  0.00    +0.165 A 
ATOM     17  C   UNL     1      -5.036  -6.761  -7.090  0.00  0.00    +0.095 A 
ATOM     18  C   UNL     1      -6.126  -7.093  -6.305  0.00  0.00    +0.131 A 
BRANCH  18  19
ATOM     19  O   UNL     1      -7.377  -7.072  -6.833  0.00  0.00    -0.494 OA
ATOM     20  C   UNL     1      -7.494  -6.705  -8.209  0.00  0.00    +0.277 C 
ENDBRANCH  18  19
BRANCH  16  21
ATOM     21  O   UNL     1      -2.692  -6.465  -7.331  0.00  0.00    -0.491 OA
ATOM     22  C   UNL     1      -2.962  -6.111  -8.689  0.00  0.00    +0.277 C 
ENDBRANCH  16  21
BRANCH  15  23
ATOM     23  O   UNL     1      -2.304  -7.165  -4.699  0.00  0.00    -0.491 OA
ATOM     24  C   UNL     1      -2.163  -7.646  -3.361  0.00  0.00    +0.277 C 
ENDBRANCH  15  23
ENDBRANCH   9  13
BRANCH   2  25
ATOM     25  O   UNL     1      -4.885  -7.147   2.695  0.00  0.00    -0.506 OA
ATOM     26  H   UNL     1      -4.984  -6.245   3.027  0.00  0.00    +0.292 HD
ENDBRANCH   2  25
BRANCH   1  27
ATOM     27  C   UNL     1      -3.873  -6.645   0.117  0.00  0.00    -0.036 C 
BRANCH  27  32
ATOM     28  C   UNL     1      -2.598  -3.120   0.297  0.00  0.00    +0.081 C 
ATOM     29  C   UNL     1      -3.558  -2.476  -0.708  0.00  0.00    +0.011 C 
ATOM     30  C   UNL     1      -4.943  -3.111  -0.554  0.00  0.00    -0.018 C 
ATOM     31  C   UNL     1      -4.829  -4.624  -0.749  0.00  0.00    -0.078 C 
ATOM     32  N   UNL     1      -3.919  -5.183   0.258  0.00  0.00    +0.383 N 
ATOM     33  C   UNL     1      -2.571  -4.633   0.072  0.00  0.00    -0.064 C 
ATOM     34  H   UNL     1      -4.253  -4.947   1.180  0.00  0.00    -0.081 HD
BRANCH  28  35
ATOM     35  C   UNL     1      -1.213  -2.557   0.102  0.00  0.00    +0.308 C 
ATOM     36  O   UNL     1      -0.298  -3.291  -0.186  0.00  0.00    -0.251 OA
BRANCH  35  37
ATOM     37  O   UNL     1      -0.998  -1.240   0.247  0.00  0.00    -0.465 OA
BRANCH  37  39
ATOM     38  C   UNL     1       0.389   0.739   0.255  0.00  0.00    +0.048 C 
ATOM     39  C   UNL     1       0.339  -0.776   0.048  0.00  0.00    +0.229 C 
ENDBRANCH  37  39
ENDBRANCH  35  37
ENDBRANCH  28  35
ENDBRANCH  27  32
ENDBRANCH   1  27
TORSDOF 10
