REMARK  Name = ZINC64809049
REMARK  7 active torsions:
REMARK  status: ('A' for Active; 'I' for Inactive)
REMARK    1  A    between atoms: C_1  and  C_2
REMARK    2  A    between atoms: C_6  and  S_23
REMARK    3  A    between atoms: C_11  and  C_13
REMARK    4  A    between atoms: C_13  and  N_14
REMARK    5  A    between atoms: N_14  and  C_15
REMARK    6  A    between atoms: N_14  and  C_20
REMARK    7  A    between atoms: S_23  and  N_26
REMARK                            x       y       z     vdW  Elec       q    Type
REMARK                         _______ _______ _______ _____ _____    ______ ____
ROOT
ATOM      1  C   UNL     1      -0.041   2.001   0.522  0.00  0.00    +0.029 C 
ATOM      2  C   UNL     1      -0.116   0.485   0.332  0.00  0.00    +0.083 C 
ATOM      3  C   UNL     1      -1.567  -0.001   0.484  0.00  0.00    +0.059 C 
ATOM      4  C   UNL     1      -1.528  -0.954   1.658  0.00  0.00    -0.022 A 
ATOM      5  C   UNL     1      -2.529  -1.694   2.257  0.00  0.00    +0.034 A 
ATOM      6  C   UNL     1      -2.239  -2.508   3.337  0.00  0.00    +0.105 A 
ATOM      7  C   UNL     1      -0.944  -2.579   3.816  0.00  0.00    +0.030 A 
ATOM      8  C   UNL     1       0.058  -1.842   3.221  0.00  0.00    +0.026 A 
ATOM      9  C   UNL     1      -0.227  -1.018   2.131  0.00  0.00    +0.040 A 
ATOM     10  N   UNL     1       0.631  -0.198   1.391  0.00  0.00    -0.270 N 
ATOM     11  C   UNL     1       1.952  -0.057   1.619  0.00  0.00    +0.203 C 
ATOM     12  O   UNL     1       2.613   0.680   0.919  0.00  0.00    -0.277 OA
ENDROOT
BRANCH   6  13
ATOM     13  S   UNL     1      -3.517  -3.451   4.100  0.00  0.00    +0.056 S 
ATOM     14  O   UNL     1      -3.090  -3.710   5.431  0.00  0.00    -0.153 OA
ATOM     15  O   UNL     1      -4.740  -2.789   3.808  0.00  0.00    -0.153 OA
BRANCH  13  16
ATOM     16  N   UNL     1      -3.574  -4.914   3.327  0.00  0.00    -0.204 NA
ATOM     17  H   UNL     1      -3.856  -5.707   3.810  0.00  0.00    +0.144 HD
ATOM     18  H   UNL     1      -3.324  -4.979   2.392  0.00  0.00    +0.144 HD
ENDBRANCH  13  16
ENDBRANCH   6  13
BRANCH  11  19
ATOM     19  C   UNL     1       2.608  -0.817   2.744  0.00  0.00    +0.020 C 
BRANCH  19  20
ATOM     20  N   UNL     1       4.048  -0.526   2.756  0.00  0.00    +0.389 N 
ATOM     21  H   UNL     1       4.474  -0.972   3.555  0.00  0.00    -0.080 HD
BRANCH  20  22
ATOM     22  C   UNL     1       4.661  -1.039   1.524  0.00  0.00    -0.068 C 
ATOM     23  C   UNL     1       4.409  -2.556   1.400  0.00  0.00    -0.015 C 
ATOM     24  C   UNL     1       5.718  -3.110   0.787  0.00  0.00    -0.002 C 
ATOM     25  C   UNL     1       6.809  -2.260   1.484  0.00  0.00    -0.002 C 
ATOM     26  C   UNL     1       6.188  -0.851   1.578  0.00  0.00    -0.015 C 
ENDBRANCH  20  22
BRANCH  20  27
ATOM     27  C   UNL     1       4.254   0.926   2.838  0.00  0.00    -0.068 C 
ATOM     28  C   UNL     1       5.096   1.456   4.000  0.00  0.00    -0.017 C 
ATOM     29  C   UNL     1       3.581   1.671   3.992  0.00  0.00    -0.017 C 
ENDBRANCH  20  27
ENDBRANCH  19  20
ENDBRANCH  11  19
TORSDOF 6
