REMARK  Name = ZINC58996792
REMARK  7 active torsions:
REMARK  status: ('A' for Active; 'I' for Inactive)
REMARK    1  A    between atoms: C_4  and  O_28
REMARK    2  A    between atoms: C_5  and  C_7
REMARK    3  A    between atoms: N_8  and  N_9
REMARK    4  A    between atoms: C_12  and  S_15
REMARK    5  A    between atoms: S_15  and  C_16
REMARK    6  A    between atoms: C_16  and  C_17
REMARK    7  A    between atoms: N_19  and  C_20
REMARK                            x       y       z     vdW  Elec       q    Type
REMARK                         _______ _______ _______ _____ _____    ______ ____
ROOT
ATOM      1  N   UNL     1       2.339  -7.393  -3.428  0.00  0.00    -0.205 N 
ATOM      2  C   UNL     1       3.565  -7.483  -2.795  0.00  0.00    +0.232 A 
ATOM      3  N   UNL     1       4.730  -7.157  -3.316  0.00  0.00    -0.186 NA
ATOM      4  C   UNL     1       5.699  -7.373  -2.420  0.00  0.00    +0.211 A 
ATOM      5  N   UNL     1       5.163  -7.839  -1.317  0.00  0.00    -0.144 NA
ATOM      6  N   UNL     1       3.778  -7.915  -1.534  0.00  0.00    -0.245 N 
ATOM      7  H   UNL     1       1.531  -7.654  -2.958  0.00  0.00    +0.177 HD
ATOM      8  H   UNL     1       3.107  -8.218  -0.903  0.00  0.00    +0.192 HD
ENDROOT
BRANCH   1  10
ATOM      9  C   UNL     1       1.111  -6.841  -5.339  0.00  0.00    +0.142 C 
ATOM     10  N   UNL     1       2.263  -6.925  -4.746  0.00  0.00    -0.187 NA
BRANCH   9  15
ATOM     11  C   UNL     1      -0.273  -5.796  -8.667  0.00  0.00    +0.001 A 
ATOM     12  C   UNL     1       0.880  -5.423  -9.336  0.00  0.00    +0.004 A 
ATOM     13  C   UNL     1       2.110  -5.510  -8.711  0.00  0.00    +0.046 A 
ATOM     14  C   UNL     1       2.196  -5.970  -7.408  0.00  0.00    +0.125 A 
ATOM     15  C   UNL     1       1.031  -6.348  -6.726  0.00  0.00    +0.036 A 
ATOM     16  C   UNL     1      -0.205  -6.256  -7.369  0.00  0.00    +0.013 A 
BRANCH  14  17
ATOM     17  O   UNL     1       3.404  -6.056  -6.793  0.00  0.00    -0.506 OA
ATOM     18  H   UNL     1       3.661  -5.254  -6.317  0.00  0.00    +0.292 HD
ENDBRANCH  14  17
ENDBRANCH   9  15
ENDBRANCH   1  10
BRANCH   4  19
ATOM     19  S   UNL     1       7.417  -7.079  -2.679  0.00  0.00    -0.075 S 
BRANCH  19  20
ATOM     20  C   UNL     1       8.187  -7.565  -1.110  0.00  0.00    +0.173 C 
BRANCH  20  21
ATOM     21  C   UNL     1       9.677  -7.360  -1.197  0.00  0.00    +0.228 C 
ATOM     22  O   UNL     1      10.171  -6.929  -2.218  0.00  0.00    -0.275 OA
ATOM     23  N   UNL     1      10.461  -7.656  -0.142  0.00  0.00    -0.282 N 
ATOM     24  H   UNL     1      10.061  -7.931   0.698  0.00  0.00    +0.155 HD
BRANCH  23  25
ATOM     25  C   UNL     1      11.854  -7.566  -0.257  0.00  0.00    +0.070 A 
ATOM     26  C   UNL     1      12.504  -6.381   0.064  0.00  0.00    +0.064 A 
ATOM     27  C   UNL     1      13.879  -6.297  -0.051  0.00  0.00    +0.022 A 
ATOM     28  C   UNL     1      14.607  -7.389  -0.485  0.00  0.00    +0.003 A 
ATOM     29  C   UNL     1      13.963  -8.570  -0.805  0.00  0.00    +0.022 A 
ATOM     30  C   UNL     1      12.589  -8.664  -0.686  0.00  0.00    +0.064 A 
ATOM     31 CL   UNL     1      11.782 -10.150  -1.081  0.00  0.00    -0.082 Cl
ATOM     32 CL   UNL     1      11.591  -5.008   0.607  0.00  0.00    -0.082 Cl
ENDBRANCH  23  25
ENDBRANCH  20  21
ENDBRANCH  19  20
ENDBRANCH   4  19
TORSDOF 7
