REMARK  Name = ZINC39657847
REMARK  8 active torsions:
REMARK  status: ('A' for Active; 'I' for Inactive)
REMARK    1  A    between atoms: C_1  and  O_2
REMARK    2  A    between atoms: O_2  and  C_3
REMARK    3  A    between atoms: C_5  and  C_11
REMARK    4  A    between atoms: C_7  and  O_9
REMARK    5  A    between atoms: O_9  and  C_10
REMARK    6  A    between atoms: C_15  and  C_24
REMARK    7  A    between atoms: N_26  and  C_27
REMARK    8  A    between atoms: C_30  and  C_33
REMARK                            x       y       z     vdW  Elec       q    Type
REMARK                         _______ _______ _______ _____ _____    ______ ____
ROOT
ATOM      1  C   UNL     1      -2.549  -4.146   0.015  0.00  0.00    +0.247 C 
ATOM      2  O   UNL     1      -1.528  -4.795  -0.102  0.00  0.00    -0.270 OA
ATOM      3  N   UNL     1      -3.738  -4.772   0.125  0.00  0.00    -0.296 N 
ATOM      4  C   UNL     1      -5.088  -4.161   0.146  0.00  0.00    +0.121 C 
ATOM      5  C   UNL     1      -5.965  -5.124  -0.684  0.00  0.00    +0.100 C 
ATOM      6  C   UNL     1      -5.241  -6.478  -0.610  0.00  0.00    -0.004 C 
ATOM      7  C   UNL     1      -3.990  -6.228   0.246  0.00  0.00    +0.115 C 
ATOM      8  C   UNL     1      -6.136  -7.520   0.054  0.00  0.00    -0.010 C 
ATOM      9  C   UNL     1      -5.416  -8.872   0.064  0.00  0.00    -0.082 C 
ATOM     10  N   UNL     1      -5.103  -9.273  -1.313  0.00  0.00    +0.379 N 
ATOM     11  C   UNL     1      -4.167  -8.313  -1.913  0.00  0.00    -0.082 C 
ATOM     12  C   UNL     1      -4.834  -6.938  -2.007  0.00  0.00    -0.010 C 
ATOM     13  H   UNL     1      -4.684 -10.190  -1.308  0.00  0.00    -0.086 HD
ATOM     14  H   UNL     1      -5.952  -9.296  -1.856  0.00  0.00    -0.086 HD
ENDROOT
BRANCH   1  17
ATOM     15  C   UNL     1      -3.435  -0.551   0.675  0.00  0.00    +0.124 A 
ATOM     16  C   UNL     1      -3.497  -1.935   0.658  0.00  0.00    +0.059 A 
ATOM     17  C   UNL     1      -2.487  -2.668   0.036  0.00  0.00    +0.044 A 
ATOM     18  C   UNL     1      -1.417  -2.005  -0.566  0.00  0.00    +0.059 A 
ATOM     19  C   UNL     1      -1.363  -0.621  -0.544  0.00  0.00    +0.124 A 
ATOM     20  C   UNL     1      -2.373   0.105   0.071  0.00  0.00    +0.091 A 
BRANCH  15  22
ATOM     21  C   UNL     1      -4.294   1.588   1.257  0.00  0.00    +0.277 C 
ATOM     22  O   UNL     1      -4.418   0.165   1.281  0.00  0.00    -0.495 OA
ENDBRANCH  15  22
BRANCH  19  23
ATOM     23  O   UNL     1      -0.322   0.027  -1.130  0.00  0.00    -0.495 OA
ATOM     24  C   UNL     1      -0.329   1.454  -1.070  0.00  0.00    +0.277 C 
ENDBRANCH  19  23
ENDBRANCH   1  17
BRANCH   5  25
ATOM     25  C   UNL     1      -7.343  -5.229  -0.083  0.00  0.00    +0.218 C 
ATOM     26  O   UNL     1      -7.508  -5.005   1.097  0.00  0.00    -0.275 OA
ATOM     27  N   UNL     1      -8.392  -5.572  -0.857  0.00  0.00    -0.312 N 
ATOM     28  H   UNL     1      -8.259  -5.752  -1.801  0.00  0.00    +0.149 HD
BRANCH  27  29
ATOM     29  C   UNL     1      -9.731  -5.675  -0.272  0.00  0.00    +0.073 C 
ATOM     30  C   UNL     1      -9.915  -7.065   0.340  0.00  0.00    +0.023 C 
ATOM     31  C   UNL     1     -11.314  -7.172   0.951  0.00  0.00    +0.016 C 
ATOM     32  C   UNL     1     -12.364  -6.951  -0.139  0.00  0.00    +0.102 C 
ATOM     33  C   UNL     1     -12.180  -5.561  -0.751  0.00  0.00    +0.016 C 
ATOM     34  C   UNL     1     -10.781  -5.454  -1.362  0.00  0.00    +0.023 C 
BRANCH  32  35
ATOM     35  C   UNL     1     -13.742  -7.057   0.462  0.00  0.00    +0.359 C 
ATOM     36  O   UNL     1     -14.666  -6.419  -0.014  0.00  0.00    -0.246 OA
ATOM     37  O   UNL     1     -13.934  -7.780   1.425  0.00  0.00    -0.246 OA
ENDBRANCH  32  35
ENDBRANCH  27  29
ENDBRANCH   5  25
TORSDOF 6
