REMARK  Name = ZINC51001456
REMARK  9 active torsions:
REMARK  status: ('A' for Active; 'I' for Inactive)
REMARK    1  A    between atoms: C_1  and  C_2
REMARK    2  A    between atoms: C_7  and  C_8
REMARK    3  A    between atoms: N_10  and  C_17
REMARK    4  A    between atoms: C_11  and  C_13
REMARK    5  A    between atoms: C_13  and  C_14
REMARK    6  A    between atoms: C_13  and  C_15
REMARK    7  A    between atoms: C_13  and  C_16
REMARK    8  A    between atoms: C_17  and  C_18
REMARK    9  A    between atoms: C_17  and  C_19
REMARK                            x       y       z     vdW  Elec       q    Type
REMARK                         _______ _______ _______ _____ _____    ______ ____
ROOT
ATOM      1  C   UNL     1       0.110  -0.260   2.613  0.00  0.00    +0.172 C 
ATOM      2  C   UNL     1       1.448   0.453   2.651  0.00  0.00    +0.101 C 
ATOM      3  N   UNL     1       2.041   0.012   3.815  0.00  0.00    -0.276 N 
ATOM      4  C   UNL     1       1.217  -0.867   4.458  0.00  0.00    +0.082 C 
ATOM      5  N   UNL     1       0.104  -1.071   3.841  0.00  0.00    -0.363 N 
ATOM      6  N   UNL     1       1.925   1.287   1.787  0.00  0.00    -0.388 N 
ATOM      7  H   UNL     1       1.377   1.578   1.041  0.00  0.00    +0.157 HD
ATOM      8  H   UNL     1      -0.612  -1.657   4.132  0.00  0.00    +0.162 HD
ATOM      9  H   UNL     1       2.830   1.622   1.884  0.00  0.00    +0.157 HD
ENDROOT
BRANCH   1  16
ATOM     10  C   UNL     1      -1.021   0.774   0.165  0.00  0.00    +0.044 C 
ATOM     11  C   UNL     1      -0.526  -0.648   0.224  0.00  0.00    -0.042 A 
ATOM     12  C   UNL     1      -0.609  -1.455  -0.895  0.00  0.00    +0.042 A 
ATOM     13  C   UNL     1      -0.153  -2.761  -0.841  0.00  0.00    +0.124 A 
ATOM     14  C   UNL     1       0.384  -3.257   0.335  0.00  0.00    +0.039 A 
ATOM     15  C   UNL     1       0.465  -2.449   1.452  0.00  0.00    +0.009 A 
ATOM     16  C   UNL     1       0.015  -1.143   1.395  0.00  0.00    -0.015 A 
ATOM     17  F   UNL     1      -0.234  -3.551  -1.934  0.00  0.00    -0.205 F 
ENDBRANCH   1  16
BRANCH   4  18
ATOM     18  C   UNL     1       1.573  -1.533   5.763  0.00  0.00    +0.016 C 
ATOM     19  C   UNL     1       1.790  -0.465   6.837  0.00  0.00    +0.018 C 
ATOM     20  C   UNL     1       0.434  -2.461   6.189  0.00  0.00    +0.018 C 
ATOM     21  C   UNL     1       2.856  -2.347   5.587  0.00  0.00    +0.018 C 
ENDBRANCH   4  18
BRANCH   3  22
ATOM     22  C   UNL     1       3.363   0.426   4.292  0.00  0.00    +0.075 C 
ATOM     23  C   UNL     1       4.428  -0.006   3.283  0.00  0.00    +0.028 C 
ATOM     24  C   UNL     1       3.395   1.948   4.447  0.00  0.00    +0.028 C 
ENDBRANCH   3  22
TORSDOF 3
