REMARK  Name = ZINC35345335
REMARK  4 active torsions:
REMARK  status: ('A' for Active; 'I' for Inactive)
REMARK    1  A    between atoms: C_1  and  C_2
REMARK    2  A    between atoms: C_7  and  N_8
REMARK    3  A    between atoms: N_8  and  C_9
REMARK    4  A    between atoms: C_14  and  N_15
REMARK                            x       y       z     vdW  Elec       q    Type
REMARK                         _______ _______ _______ _____ _____    ______ ____
ROOT
ATOM      1  C   UNL     1      -0.046  -0.768   3.595  0.00  0.00    +0.054 A 
ATOM      2  C   UNL     1      -0.014  -2.151   3.534  0.00  0.00    +0.048 A 
ATOM      3  C   UNL     1      -0.084  -2.904   4.704  0.00  0.00    +0.039 A 
ATOM      4  C   UNL     1      -0.186  -2.250   5.925  0.00  0.00    -0.016 A 
ATOM      5  C   UNL     1      -0.219  -0.874   5.991  0.00  0.00    +0.030 A 
ATOM      6  C   UNL     1      -0.144  -0.122   4.827  0.00  0.00    +0.046 A 
ATOM      7  C   UNL     1      -0.240  -3.328   6.983  0.00  0.00    +0.133 C 
ATOM      8  C   UNL     1      -0.157  -4.620   6.198  0.00  0.00    +0.222 C 
ATOM      9  O   UNL     1      -0.167  -5.743   6.656  0.00  0.00    -0.275 OA
ATOM     10  N   UNL     1      -0.069  -4.289   4.899  0.00  0.00    -0.285 N 
ATOM     11  H   UNL     1      -0.004  -4.935   4.179  0.00  0.00    +0.155 HD
ENDROOT
BRANCH   6  12
ATOM     12  N   UNL     1      -0.172   1.278   4.889  0.00  0.00    -0.357 N 
ATOM     13  H   UNL     1      -0.123   1.801   4.073  0.00  0.00    +0.142 HD
ATOM     14  H   UNL     1      -0.240   1.724   5.747  0.00  0.00    +0.142 HD
ENDBRANCH   6  12
BRANCH   1  15
ATOM     15  N   UNL     1       0.025  -0.016   2.416  0.00  0.00    -0.313 N 
ATOM     16  H   UNL     1      -0.081   0.948   2.448  0.00  0.00    +0.152 HD
BRANCH  15  23
ATOM     17  C   UNL     1      -1.528   0.798   0.175  0.00  0.00    +0.046 C 
ATOM     18  C   UNL     1      -0.488  -0.288   0.073  0.00  0.00    -0.028 A 
ATOM     19  C   UNL     1      -0.261  -0.916  -1.136  0.00  0.00    +0.020 A 
ATOM     20  C   UNL     1       0.694  -1.913  -1.231  0.00  0.00    +0.018 A 
ATOM     21  C   UNL     1       1.425  -2.283  -0.115  0.00  0.00    +0.017 A 
ATOM     22  C   UNL     1       1.203  -1.658   1.096  0.00  0.00    +0.024 A 
ATOM     23  C   UNL     1       0.248  -0.653   1.193  0.00  0.00    +0.034 A 
ATOM     24 BR   UNL     1       1.001  -2.771  -2.888  0.00  0.00    -0.050 Br
ENDBRANCH  15  23
ENDBRANCH   1  15
TORSDOF 3
