REMARK  Name = ZINC21529561
REMARK  9 active torsions:
REMARK  status: ('A' for Active; 'I' for Inactive)
REMARK    1  A    between atoms: C_1  and  C_2
REMARK    2  A    between atoms: N_5  and  S_8
REMARK    3  A    between atoms: S_8  and  N_11
REMARK    4  A    between atoms: C_15  and  C_18
REMARK    5  A    between atoms: N_20  and  C_21
REMARK    6  A    between atoms: C_21  and  C_22
REMARK    7  A    between atoms: C_22  and  C_23
REMARK    8  A    between atoms: C_23  and  N_24
REMARK    9  A    between atoms: C_27  and  N_30
REMARK                            x       y       z     vdW  Elec       q    Type
REMARK                         _______ _______ _______ _____ _____    ______ ____
ROOT
ATOM      1  C   UNL     1       5.732   6.459   2.007  0.00  0.00    +0.217 C 
ATOM      2  O   UNL     1       6.829   5.949   1.915  0.00  0.00    -0.275 OA
ATOM      3  N   UNL     1       4.624   5.702   1.882  0.00  0.00    -0.315 N 
ATOM      4  H   UNL     1       3.630   6.164   1.965  0.00  0.00    +0.149 HD
ENDROOT
BRANCH   1   9
ATOM      5  N   UNL     1       6.868  10.018   2.479  0.00  0.00    -0.166 NA
ATOM      6  C   UNL     1       6.077  10.736   1.471  0.00  0.00    +0.110 C 
ATOM      7  C   UNL     1       4.690  10.092   1.382  0.00  0.00    +0.018 C 
ATOM      8  C   UNL     1       4.844   8.594   1.109  0.00  0.00    +0.015 C 
ATOM      9  C   UNL     1       5.608   7.939   2.262  0.00  0.00    +0.091 C 
ATOM     10  C   UNL     1       7.006   8.560   2.361  0.00  0.00    +0.123 C 
BRANCH   5  11
ATOM     11  S   UNL     1       7.593  10.835   3.723  0.00  0.00    +0.100 S 
ATOM     12  O   UNL     1       6.861  12.041   3.898  0.00  0.00    -0.141 OA
ATOM     13  O   UNL     1       7.776   9.896   4.774  0.00  0.00    -0.141 OA
BRANCH  11  18
ATOM     14  C   UNL     1      12.811  13.192   4.037  0.00  0.00    +0.007 C 
ATOM     15  C   UNL     1      11.684  12.426   3.341  0.00  0.00    -0.012 C 
ATOM     16  C   UNL     1      10.440  13.313   3.259  0.00  0.00    +0.020 C 
ATOM     17  C   UNL     1       9.324  12.556   2.531  0.00  0.00    +0.111 C 
ATOM     18  N   UNL     1       9.105  11.271   3.208  0.00  0.00    -0.166 NA
ATOM     19  C   UNL     1      10.255  10.382   3.426  0.00  0.00    +0.111 C 
ATOM     20  C   UNL     1      11.359  11.161   4.138  0.00  0.00    +0.020 C 
ENDBRANCH  11  18
ENDBRANCH   5  11
ENDBRANCH   1   9
BRANCH   3  21
ATOM     21  C   UNL     1       4.745   4.263   1.634  0.00  0.00    +0.105 C 
BRANCH  21  22
ATOM     22  C   UNL     1       3.349   3.644   1.534  0.00  0.00    +0.034 C 
BRANCH  22  23
ATOM     23  C   UNL     1       3.474   2.142   1.275  0.00  0.00    +0.086 C 
BRANCH  23  24
ATOM     24  N   UNL     1       2.134   1.548   1.179  0.00  0.00    -0.302 NA
ATOM     25  C   UNL     1       1.419   2.052  -0.001  0.00  0.00    +0.083 C 
ATOM     26  C   UNL     1      -0.019   1.527   0.010  0.00  0.00    +0.000 C 
ATOM     27  C   UNL     1       0.002  -0.004   0.002  0.00  0.00    -0.066 C 
ATOM     28  C   UNL     1       0.794  -0.503   1.214  0.00  0.00    +0.000 C 
ATOM     29  C   UNL     1       2.208   0.081   1.168  0.00  0.00    +0.083 C 
BRANCH  27  30
ATOM     30  N   UNL     1      -1.374  -0.514   0.071  0.00  0.00    +0.382 N 
ATOM     31  C   UNL     1      -2.036  -0.075   1.306  0.00  0.00    -0.078 C 
ATOM     32  C   UNL     1      -3.506  -0.500   1.277  0.00  0.00    -0.019 C 
ATOM     33  C   UNL     1      -3.589  -2.023   1.145  0.00  0.00    -0.004 C 
ATOM     34  C   UNL     1      -2.851  -2.459  -0.124  0.00  0.00    -0.019 C 
ATOM     35  C   UNL     1      -1.400  -1.977  -0.054  0.00  0.00    -0.078 C 
ATOM     36  H   UNL     1      -1.935  -0.095  -0.777  0.00  0.00    -0.081 HD
ENDBRANCH  27  30
ENDBRANCH  23  24
ENDBRANCH  22  23
ENDBRANCH  21  22
ENDBRANCH   3  21
TORSDOF 8
