REMARK  Name = ZINC13064667
REMARK  14 active torsions:
REMARK  status: ('A' for Active; 'I' for Inactive)
REMARK    1  A    between atoms: C_1  and  C_2
REMARK    2  A    between atoms: C_2  and  C_3
REMARK    3  A    between atoms: C_3  and  C_5
REMARK    4  A    between atoms: C_3  and  N_71
REMARK    5  A    between atoms: N_9  and  C_10
REMARK    6  A    between atoms: C_10  and  C_11
REMARK    7  A    between atoms: C_11  and  O_13
REMARK    8  A    between atoms: O_13  and  C_14
REMARK    9  A    between atoms: C_14  and  C_15
REMARK   10  A    between atoms: C_16  and  C_17
REMARK   11  A    between atoms: C_16  and  N_71
REMARK   12  A    between atoms: C_21  and  C_30
REMARK   13  A    between atoms: C_22  and  C_29
REMARK   14  A    between atoms: C_31  and  N_71
REMARK                            x       y       z     vdW  Elec       q    Type
REMARK                         _______ _______ _______ _____ _____    ______ ____
ROOT
ATOM      1  N   UNL     1      -5.440   4.191  -1.389  0.00  0.00    +0.391 N 
ATOM      2  H   UNL     1      -5.420   3.263  -1.828  0.00  0.00    -0.080 HD
ENDROOT
BRANCH   1   3
ATOM      3  C   UNL     1      -4.607   5.117  -2.184  0.00  0.00    -0.067 C 
ATOM      4  C   UNL     1      -4.755   6.550  -1.667  0.00  0.00    -0.015 C 
ATOM      5  C   UNL     1      -3.887   7.488  -2.508  0.00  0.00    -0.002 C 
ATOM      6  C   UNL     1      -4.335   7.424  -3.970  0.00  0.00    -0.000 C 
ATOM      7  C   UNL     1      -4.186   5.991  -4.486  0.00  0.00    -0.002 C 
ATOM      8  C   UNL     1      -5.055   5.053  -3.645  0.00  0.00    -0.015 C 
ENDBRANCH   1   3
BRANCH   1   9
ATOM      9  C   UNL     1      -6.837   4.674  -1.350  0.00  0.00    +0.003 C 
BRANCH   9  10
ATOM     10  C   UNL     1      -6.979   5.798  -0.357  0.00  0.00    +0.139 A 
ATOM     11  N   UNL     1      -6.559   5.802   0.885  0.00  0.00    -0.115 NA
ATOM     12  N   UNL     1      -6.866   6.941   1.404  0.00  0.00    -0.023 NA
ATOM     13  N   UNL     1      -7.478   7.659   0.529  0.00  0.00    -0.043 NA
ATOM     14  N   UNL     1      -7.567   6.989  -0.570  0.00  0.00    -0.220 N 
BRANCH  14  15
ATOM     15  C   UNL     1      -8.191   7.441  -1.816  0.00  0.00    +0.267 C 
BRANCH  15  16
ATOM     16  C   UNL     1      -9.649   7.059  -1.815  0.00  0.00    +0.329 C 
ATOM     17  O   UNL     1     -10.118   6.470  -0.870  0.00  0.00    -0.249 OA
BRANCH  16  18
ATOM     18  O   UNL     1     -10.426   7.373  -2.864  0.00  0.00    -0.464 OA
BRANCH  18  19
ATOM     19  C   UNL     1     -11.820   6.974  -2.794  0.00  0.00    +0.229 C 
ATOM     20  C   UNL     1     -12.542   7.414  -4.069  0.00  0.00    +0.048 C 
ENDBRANCH  18  19
ENDBRANCH  16  18
ENDBRANCH  15  16
ENDBRANCH  14  15
ENDBRANCH   9  10
BRANCH   9  22
ATOM     21  C   UNL     1      -7.705   2.428  -2.019  0.00  0.00    +0.002 C 
ATOM     22  C   UNL     1      -7.746   3.513  -0.941  0.00  0.00    -0.011 C 
ENDBRANCH   9  22
ENDBRANCH   1   9
BRANCH   1  23
ATOM     23  C   UNL     1      -4.905   4.083  -0.015  0.00  0.00    -0.036 C 
BRANCH  23  24
ATOM     24  C   UNL     1      -3.649   3.251  -0.049  0.00  0.00    +0.001 A 
ATOM     25  C   UNL     1      -2.441   3.847   0.102  0.00  0.00    +0.017 A 
ATOM     26  C   UNL     1      -1.239   3.011   0.065  0.00  0.00    -0.001 A 
ATOM     27  C   UNL     1       0.035   3.568   0.215  0.00  0.00    +0.013 A 
ATOM     28  C   UNL     1       1.136   2.760   0.175  0.00  0.00    -0.047 A 
ATOM     29  C   UNL     1       1.002   1.391  -0.013  0.00  0.00    -0.046 A 
ATOM     30  C   UNL     1      -0.244   0.821  -0.162  0.00  0.00    +0.030 A 
ATOM     31  C   UNL     1      -1.379   1.624  -0.131  0.00  0.00    +0.049 A 
ATOM     32  N   UNL     1      -2.638   1.079  -0.272  0.00  0.00    -0.322 N 
ATOM     33  H   UNL     1      -2.733   0.123  -0.403  0.00  0.00    +0.169 HD
ATOM     34  C   UNL     1      -3.735   1.855  -0.237  0.00  0.00    +0.251 A 
ATOM     35  O   UNL     1      -4.832   1.340  -0.371  0.00  0.00    -0.268 OA
ATOM     36  C   UNL     1       2.231   0.520  -0.053  0.00  0.00    +0.044 C 
ATOM     37  C   UNL     1       2.509   3.361   0.336  0.00  0.00    +0.044 C 
ENDBRANCH  23  24
ENDBRANCH   1  23
TORSDOF 10
