REMARK  Name = ZINC36576253
REMARK  7 active torsions:
REMARK  status: ('A' for Active; 'I' for Inactive)
REMARK    1  A    between atoms: C_1  and  O_2
REMARK    2  A    between atoms: O_2  and  C_3
REMARK    3  A    between atoms: C_3  and  C_5
REMARK    4  A    between atoms: C_5  and  C_7
REMARK    5  A    between atoms: C_5  and  N_14
REMARK    6  A    between atoms: C_7  and  C_8
REMARK    7  A    between atoms: C_26  and  C_28
REMARK                            x       y       z     vdW  Elec       q    Type
REMARK                         _______ _______ _______ _____ _____    ______ ____
ROOT
ATOM      1  N   UNL     1      -2.732  -2.424  -2.019  0.00  0.00    -0.286 N 
ATOM      2  C   UNL     1      -3.470  -2.688  -0.922  0.00  0.00    +0.304 C 
ATOM      3  O   UNL     1      -2.950  -2.683   0.176  0.00  0.00    -0.253 OA
ATOM      4  N   UNL     1      -4.785  -2.959  -1.044  0.00  0.00    -0.273 N 
ATOM      5  C   UNL     1      -5.631  -3.135   0.146  0.00  0.00    +0.116 C 
ATOM      6  C   UNL     1      -6.682  -2.018   0.184  0.00  0.00    +0.074 C 
ATOM      7  C   UNL     1      -7.273  -1.861  -1.192  0.00  0.00    +0.040 A 
ATOM      8  C   UNL     1      -6.715  -2.326  -2.330  0.00  0.00    +0.062 A 
ATOM      9  N   UNL     1      -7.513  -2.000  -3.348  0.00  0.00    -0.348 N 
ATOM     10  C   UNL     1      -8.550  -1.350  -2.888  0.00  0.00    +0.171 A 
ATOM     11  N   UNL     1      -8.436  -1.245  -1.544  0.00  0.00    -0.349 N 
ATOM     12  H   UNL     1      -9.064  -0.812  -0.944  0.00  0.00    +0.166 HD
ATOM     13  C   UNL     1      -5.411  -3.080  -2.373  0.00  0.00    +0.159 C 
ATOM     14  H   UNL     1      -3.129  -2.502  -2.901  0.00  0.00    +0.151 HD
ATOM     15  H   UNL     1      -7.350  -2.210  -4.281  0.00  0.00    +0.167 HD
ENDROOT
BRANCH  13  16
ATOM     16  C   UNL     1      -5.673  -4.530  -2.687  0.00  0.00    +0.014 A 
ATOM     17  C   UNL     1      -6.953  -5.040  -2.584  0.00  0.00    +0.010 A 
ATOM     18  C   UNL     1      -7.194  -6.370  -2.872  0.00  0.00    +0.020 A 
ATOM     19  C   UNL     1      -6.153  -7.193  -3.264  0.00  0.00    +0.044 A 
ATOM     20  C   UNL     1      -4.871  -6.685  -3.368  0.00  0.00    +0.058 A 
ATOM     21  C   UNL     1      -4.631  -5.351  -3.084  0.00  0.00    +0.130 A 
ATOM     22  F   UNL     1      -3.380  -4.852  -3.190  0.00  0.00    -0.205 F 
ATOM     23 CL   UNL     1      -6.456  -8.864  -3.625  0.00  0.00    -0.083 Cl
ENDBRANCH  13  16
BRANCH   1  24
ATOM     24  C   UNL     1      -1.331  -2.020  -1.879  0.00  0.00    +0.187 C 
BRANCH  24  25
ATOM     25  C   UNL     1      -0.463  -3.247  -1.767  0.00  0.00    +0.328 C 
ATOM     26  O   UNL     1      -0.964  -4.346  -1.801  0.00  0.00    -0.249 OA
BRANCH  25  28
ATOM     27  C   UNL     1       1.627  -4.323  -1.530  0.00  0.00    +0.280 C 
ATOM     28  O   UNL     1       0.866  -3.118  -1.630  0.00  0.00    -0.467 OA
ENDBRANCH  25  28
ENDBRANCH  24  25
BRANCH  24  29
ATOM     29  C   UNL     1      -0.910  -1.207  -3.105  0.00  0.00    +0.069 C 
BRANCH  29  30
ATOM     30  C   UNL     1      -1.694   0.079  -3.148  0.00  0.00    -0.045 A 
ATOM     31  C   UNL     1      -2.905   0.129  -3.812  0.00  0.00    +0.004 A 
ATOM     32  C   UNL     1      -3.624   1.309  -3.852  0.00  0.00    +0.000 A 
ATOM     33  C   UNL     1      -3.132   2.439  -3.227  0.00  0.00    +0.000 A 
ATOM     34  C   UNL     1      -1.921   2.390  -2.562  0.00  0.00    +0.000 A 
ATOM     35  C   UNL     1      -1.204   1.208  -2.518  0.00  0.00    +0.004 A 
ENDBRANCH  29  30
ENDBRANCH  24  29
ENDBRANCH   1  24
TORSDOF 6
