REMARK  Name = ZINC48552947
REMARK  5 active torsions:
REMARK  status: ('A' for Active; 'I' for Inactive)
REMARK    1  A    between atoms: C_6  and  C_7
REMARK    2  A    between atoms: N_13  and  N_14
REMARK    3  A    between atoms: C_17  and  C_20
REMARK    4  A    between atoms: C_23  and  O_27
REMARK    5  A    between atoms: C_24  and  O_26
REMARK                            x       y       z     vdW  Elec       q    Type
REMARK                         _______ _______ _______ _____ _____    ______ ____
ROOT
ATOM      1  C   UNL     1      -1.258  -0.758   0.010  0.00  0.00    +0.028 C 
ATOM      2  C   UNL     1      -2.442  -0.102   0.127  0.00  0.00    +0.078 C 
ATOM      3  C   UNL     1      -2.708   1.349   0.152  0.00  0.00    +0.256 C 
ATOM      4  O   UNL     1      -1.806   2.162   0.062  0.00  0.00    -0.269 OA
ATOM      5  N   UNL     1      -3.969   1.727   0.277  0.00  0.00    -0.259 N 
ATOM      6  C   UNL     1      -4.978   0.783   0.378  0.00  0.00    +0.187 C 
ATOM      7  N   UNL     1      -6.267   0.979   0.506  0.00  0.00    -0.124 NA
ATOM      8  S   UNL     1      -4.094  -0.765   0.284  0.00  0.00    -0.047 S 
ATOM      9  H   UNL     1      -4.189   2.672   0.298  0.00  0.00    +0.157 HD
ENDROOT
BRANCH   1  15
ATOM     10  C   UNL     1       0.150   1.045   0.982  0.00  0.00    +0.012 A 
ATOM     11  C   UNL     1       1.337   1.743   1.041  0.00  0.00    +0.050 A 
ATOM     12  C   UNL     1       2.391   1.403   0.205  0.00  0.00    +0.166 A 
ATOM     13  C   UNL     1       2.254   0.350  -0.702  0.00  0.00    +0.167 A 
ATOM     14  C   UNL     1       1.069  -0.355  -0.768  0.00  0.00    +0.057 A 
ATOM     15  C   UNL     1       0.005  -0.012   0.076  0.00  0.00    -0.020 A 
ATOM     16  O   UNL     1       3.421   0.222  -1.398  0.00  0.00    -0.453 OA
ATOM     17  C   UNL     1       4.127   1.461  -1.199  0.00  0.00    +0.466 C 
ATOM     18  O   UNL     1       3.643   1.930   0.074  0.00  0.00    -0.453 OA
ENDBRANCH   1  15
BRANCH   7  19
ATOM     19  N   UNL     1      -7.137  -0.116   0.593  0.00  0.00    -0.122 NA
ATOM     20  C   UNL     1      -8.432   0.080   0.722  0.00  0.00    +0.192 A 
ATOM     21  N   UNL     1      -9.450  -0.848   0.830  0.00  0.00    -0.332 N 
ATOM     22  C   UNL     1     -10.736  -0.395   0.956  0.00  0.00    +0.055 A 
ATOM     23  C   UNL     1     -10.978   0.932   0.972  0.00  0.00    +0.075 A 
ATOM     24  S   UNL     1      -9.337   1.617   0.811  0.00  0.00    -0.056 S 
ATOM     25  H   UNL     1      -9.258  -1.799   0.816  0.00  0.00    +0.168 HD
BRANCH  22  26
ATOM     26  C   UNL     1     -11.854  -1.355   1.073  0.00  0.00    +0.003 A 
ATOM     27  C   UNL     1     -11.601  -2.728   1.062  0.00  0.00    +0.014 A 
ATOM     28  C   UNL     1     -12.646  -3.623   1.171  0.00  0.00    +0.050 A 
ATOM     29  C   UNL     1     -13.948  -3.162   1.293  0.00  0.00    +0.158 A 
ATOM     30  C   UNL     1     -14.207  -1.794   1.306  0.00  0.00    +0.159 A 
ATOM     31  C   UNL     1     -13.164  -0.891   1.202  0.00  0.00    +0.059 A 
BRANCH  30  32
ATOM     32  O   UNL     1     -15.485  -1.345   1.425  0.00  0.00    -0.503 OA
ATOM     33  H   UNL     1     -15.770  -1.207   2.339  0.00  0.00    +0.292 HD
ENDBRANCH  30  32
BRANCH  29  34
ATOM     34  O   UNL     1     -14.974  -4.048   1.400  0.00  0.00    -0.503 OA
ATOM     35  H   UNL     1     -15.186  -4.296   2.310  0.00  0.00    +0.292 HD
ENDBRANCH  29  34
ENDBRANCH  22  26
ENDBRANCH   7  19
TORSDOF 5
