REMARK  Name = ZINC39711223
REMARK  9 active torsions:
REMARK  status: ('A' for Active; 'I' for Inactive)
REMARK    1  A    between atoms: C_1  and  C_2
REMARK    2  A    between atoms: C_6  and  C_15
REMARK    3  A    between atoms: C_13  and  C_14
REMARK    4  A    between atoms: C_15  and  C_17
REMARK    5  A    between atoms: C_15  and  N_27
REMARK    6  A    between atoms: N_22  and  C_23
REMARK    7  A    between atoms: C_23  and  C_24
REMARK    8  A    between atoms: C_23  and  C_25
REMARK    9  A    between atoms: C_23  and  C_26
REMARK                            x       y       z     vdW  Elec       q    Type
REMARK                         _______ _______ _______ _____ _____    ______ ____
ROOT
ATOM      1  C   UNL     1      -0.898  -4.908  -2.928  0.00  0.00    +0.131 C 
ENDROOT
BRANCH   1   7
ATOM      2  C   UNL     1       0.576   2.075  -3.205  0.00  0.00    +0.044 C 
ATOM      3  C   UNL     1       0.681   0.700  -2.597  0.00  0.00    -0.047 A 
ATOM      4  C   UNL     1       0.438  -0.389  -3.370  0.00  0.00    +0.013 A 
ATOM      5  C   UNL     1       0.543  -1.719  -2.769  0.00  0.00    -0.007 A 
ATOM      6  C   UNL     1       0.308  -2.841  -3.507  0.00  0.00    -0.003 C 
ATOM      7  C   UNL     1       0.440  -4.177  -2.803  0.00  0.00    +0.122 C 
ATOM      8  C   UNL     1       0.822  -4.156  -1.340  0.00  0.00    +0.226 C 
ATOM      9  O   UNL     1       0.943  -5.199  -0.725  0.00  0.00    -0.275 OA
ATOM     10  N   UNL     1       1.025  -3.000  -0.731  0.00  0.00    -0.284 N 
ATOM     11  C   UNL     1       0.909  -1.823  -1.346  0.00  0.00    +0.041 A 
ATOM     12  C   UNL     1       1.141  -0.632  -0.634  0.00  0.00    +0.027 A 
ATOM     13  C   UNL     1       1.032   0.573  -1.252  0.00  0.00    -0.046 A 
ATOM     14  C   UNL     1       1.295   1.823  -0.452  0.00  0.00    +0.044 C 
ATOM     15  H   UNL     1       1.269  -3.009   0.208  0.00  0.00    +0.155 HD
ENDBRANCH   1   7
BRANCH   1  16
ATOM     16  N   UNL     1      -1.943  -4.133  -2.255  0.00  0.00    -0.322 N 
ATOM     17  C   UNL     1      -1.747  -3.337  -1.040  0.00  0.00    +0.110 C 
ATOM     18  C   UNL     1      -3.123  -2.723  -0.734  0.00  0.00    +0.056 C 
ATOM     19  C   UNL     1      -4.021  -3.236  -1.837  0.00  0.00    -0.025 A 
ATOM     20  C   UNL     1      -3.269  -4.039  -2.680  0.00  0.00    +0.033 A 
ATOM     21  C   UNL     1      -3.887  -4.627  -3.786  0.00  0.00    +0.023 A 
ATOM     22  C   UNL     1      -5.225  -4.406  -4.034  0.00  0.00    +0.002 A 
ATOM     23  C   UNL     1      -5.965  -3.600  -3.189  0.00  0.00    +0.000 A 
ATOM     24  C   UNL     1      -5.363  -3.022  -2.087  0.00  0.00    +0.005 A 
ENDBRANCH   1  16
BRANCH   1  25
ATOM     25  C   UNL     1      -0.787  -6.288  -2.276  0.00  0.00    +0.239 C 
ATOM     26  N   UNL     1       0.295  -7.063  -2.898  0.00  0.00    -0.148 NA
ATOM     27  N   UNL     1      -0.184  -8.079  -3.406  0.00  0.00    -0.069 NA
ATOM     28  N   UNL     1      -1.565  -8.172  -3.237  0.00  0.00    -0.179 N 
ATOM     29  N   UNL     1      -2.009  -7.079  -2.534  0.00  0.00    -0.179 NA
ATOM     30  H   UNL     1      -2.124  -8.894  -3.565  0.00  0.00    +0.191 HD
BRANCH  29  31
ATOM     31  C   UNL     1      -2.649  -7.485  -1.276  0.00  0.00    +0.035 C 
ATOM     32  C   UNL     1      -3.201  -6.249  -0.562  0.00  0.00    +0.029 C 
ATOM     33  C   UNL     1      -3.794  -8.455  -1.575  0.00  0.00    +0.029 C 
ATOM     34  C   UNL     1      -1.618  -8.174  -0.379  0.00  0.00    +0.029 C 
ENDBRANCH  29  31
ENDBRANCH   1  25
TORSDOF 4
