REMARK  Name = ZINC32776391
REMARK  7 active torsions:
REMARK  status: ('A' for Active; 'I' for Inactive)
REMARK    1  A    between atoms: C_1  and  C_2
REMARK    2  A    between atoms: C_7  and  N_8
REMARK    3  A    between atoms: C_9  and  C_11
REMARK    4  A    between atoms: C_11  and  S_12
REMARK    5  A    between atoms: S_12  and  C_13
REMARK    6  A    between atoms: C_14  and  C_22
REMARK    7  A    between atoms: C_15  and  C_21
REMARK                            x       y       z     vdW  Elec       q    Type
REMARK                         _______ _______ _______ _____ _____    ______ ____
ROOT
ATOM      1  C   UNL     1      -1.970   6.274   0.038  0.00  0.00    +0.172 C 
ENDROOT
BRANCH   1   3
ATOM      2  N   UNL     1      -2.815   8.598   0.073  0.00  0.00    -0.285 N 
ATOM      3  C   UNL     1      -3.092   7.279   0.066  0.00  0.00    +0.227 C 
ATOM      4  O   UNL     1      -4.245   6.902   0.081  0.00  0.00    -0.275 OA
ATOM      5  H   UNL     1      -1.772   8.941   0.151  0.00  0.00    +0.155 HD
BRANCH   2  12
ATOM      6  C   UNL     1      -2.383  11.197   1.148  0.00  0.00    +0.046 C 
ATOM      7  C   UNL     1      -3.684  10.812   0.494  0.00  0.00    -0.028 A 
ATOM      8  C   UNL     1      -4.709  11.734   0.398  0.00  0.00    +0.020 A 
ATOM      9  C   UNL     1      -5.907  11.379  -0.197  0.00  0.00    +0.018 A 
ATOM     10  C   UNL     1      -6.080  10.102  -0.703  0.00  0.00    +0.017 A 
ATOM     11  C   UNL     1      -5.057   9.179  -0.615  0.00  0.00    +0.024 A 
ATOM     12  C   UNL     1      -3.853   9.532  -0.018  0.00  0.00    +0.036 A 
ATOM     13 BR   UNL     1      -7.310  12.641  -0.319  0.00  0.00    -0.050 Br
ENDBRANCH   2  12
ENDBRANCH   1   3
BRANCH   1  14
ATOM     14  S   UNL     1      -2.660   4.600   0.034  0.00  0.00    -0.095 S 
BRANCH  14  15
ATOM     15  C   UNL     1      -1.173   3.656   0.001  0.00  0.00    +0.122 A 
ATOM     16  C   UNL     1      -1.218   2.189  -0.017  0.00  0.00    +0.103 A 
ATOM     17  C   UNL     1      -0.017   1.504  -0.037  0.00  0.00    +0.037 A 
ATOM     18  N   UNL     1       1.137   2.206  -0.050  0.00  0.00    -0.309 N 
ATOM     19  H   UNL     1       2.102   1.678  -0.071  0.00  0.00    +0.170 HD
ATOM     20  C   UNL     1       1.136   3.549  -0.037  0.00  0.00    +0.347 A 
ATOM     21  O   UNL     1       2.203   4.138  -0.050  0.00  0.00    -0.245 OA
ATOM     22  N   UNL     1       0.010   4.258  -0.013  0.00  0.00    -0.185 NA
ATOM     23  C   UNL     1       0.003  -0.003  -0.052  0.00  0.00    +0.065 C 
BRANCH  16  24
ATOM     24  C   UNL     1      -2.467   1.489  -0.008  0.00  0.00    +0.104 C 
ATOM     25  N   UNL     1      -3.458   0.934  -0.001  0.00  0.00    -0.191 NA
ENDBRANCH  16  24
ENDBRANCH  14  15
ENDBRANCH   1  14
TORSDOF 5
