REMARK  Name = ZINC14232334
REMARK  5 active torsions:
REMARK  status: ('A' for Active; 'I' for Inactive)
REMARK    1  A    between atoms: C_1  and  N_2
REMARK    2  A    between atoms: C_6  and  S_8
REMARK    3  A    between atoms: S_8  and  C_9
REMARK    4  A    between atoms: C_9  and  C_10
REMARK    5  A    between atoms: N_16  and  C_17
REMARK                            x       y       z     vdW  Elec       q    Type
REMARK                         _______ _______ _______ _____ _____    ______ ____
ROOT
ATOM      1  C   UNL     1       1.615  -1.977  -0.017  0.00  0.00    +0.146 A 
ATOM      2  N   UNL     1       1.533  -2.668   1.107  0.00  0.00    -0.199 NA
ATOM      3  C   UNL     1       1.662  -3.993   1.086  0.00  0.00    +0.217 A 
ATOM      4  N   UNL     1       1.884  -4.619  -0.065  0.00  0.00    -0.181 NA
ATOM      5  C   UNL     1       1.971  -3.920  -1.191  0.00  0.00    +0.224 A 
ATOM      6  N   UNL     1       1.836  -2.596  -1.163  0.00  0.00    -0.198 NA
ATOM      7  N   UNL     1       2.201  -4.566  -2.390  0.00  0.00    -0.284 N 
ATOM      8  N   UNL     1       1.571  -4.715   2.259  0.00  0.00    -0.327 N 
ATOM      9  H   UNL     1       2.185  -4.067  -3.221  0.00  0.00    +0.155 HD
ATOM     10  H   UNL     1       1.669  -5.679   2.243  0.00  0.00    +0.145 HD
ATOM     11  H   UNL     1       1.409  -4.257   3.098  0.00  0.00    +0.145 HD
ENDROOT
BRANCH   7  12
ATOM     12  C   UNL     1       2.458  -5.941  -2.405  0.00  0.00    +0.034 A 
ATOM     13  C   UNL     1       3.147  -6.532  -1.354  0.00  0.00    +0.025 A 
ATOM     14  C   UNL     1       3.394  -7.891  -1.369  0.00  0.00    +0.022 A 
ATOM     15  C   UNL     1       2.966  -8.662  -2.435  0.00  0.00    +0.041 A 
ATOM     16  C   UNL     1       2.284  -8.075  -3.487  0.00  0.00    +0.022 A 
ATOM     17  C   UNL     1       2.030  -6.717  -3.474  0.00  0.00    +0.025 A 
ATOM     18 CL   UNL     1       3.283 -10.368  -2.454  0.00  0.00    -0.084 Cl
ENDBRANCH   7  12
BRANCH   1  19
ATOM     19  C   UNL     1       1.462  -0.478   0.011  0.00  0.00    +0.152 C 
BRANCH  19  20
ATOM     20  S   UNL     1      -0.285  -0.044  -0.213  0.00  0.00    -0.089 S 
BRANCH  20  26
ATOM     21  C   UNL     1      -0.265   6.786   0.008  0.00  0.00    +0.127 C 
ATOM     22  N   UNL     1      -1.211   5.679  -0.155  0.00  0.00    -0.325 N 
ATOM     23  C   UNL     1      -0.754   4.366  -0.135  0.00  0.00    +0.182 A 
ATOM     24  N   UNL     1       0.474   3.911   0.017  0.00  0.00    -0.125 NA
ATOM     25  N   UNL     1       0.708   2.555   0.005  0.00  0.00    -0.133 NA
ATOM     26  C   UNL     1      -0.297   1.717  -0.158  0.00  0.00    +0.160 A 
ATOM     27  S   UNL     1      -1.673   2.845  -0.316  0.00  0.00    -0.025 S 
ATOM     28  H   UNL     1      -2.155   5.862  -0.278  0.00  0.00    +0.148 HD
ENDBRANCH  20  26
ENDBRANCH  19  20
ENDBRANCH   1  19
TORSDOF 4
