REMARK  Name = ZINC37042165
REMARK  8 active torsions:
REMARK  status: ('A' for Active; 'I' for Inactive)
REMARK    1  A    between atoms: C_1  and  C_2
REMARK    2  A    between atoms: C_2  and  C_4
REMARK    3  A    between atoms: C_2  and  N_13
REMARK    4  A    between atoms: C_4  and  C_5
REMARK    5  A    between atoms: C_5  and  C_6
REMARK    6  A    between atoms: C_9  and  O_12
REMARK    7  A    between atoms: C_14  and  C_16
REMARK    8  A    between atoms: C_19  and  N_22
REMARK                            x       y       z     vdW  Elec       q    Type
REMARK                         _______ _______ _______ _____ _____    ______ ____
ROOT
ATOM      1  N   UNL     1       0.688  -0.476  -1.203  0.00  0.00    -0.309 N 
ATOM      2  C   UNL     1       0.006  -0.608  -2.358  0.00  0.00    +0.244 C 
ATOM      3  O   UNL     1      -1.178  -0.335  -2.400  0.00  0.00    -0.270 OA
ATOM      4  H   UNL     1       1.632  -0.695  -1.170  0.00  0.00    +0.149 HD
ENDROOT
BRANCH   2   5
ATOM      5  C   UNL     1       0.697  -1.084  -3.572  0.00  0.00    +0.037 A 
ATOM      6  C   UNL     1       2.057  -1.404  -3.524  0.00  0.00    +0.015 A 
ATOM      7  C   UNL     1       2.698  -1.848  -4.658  0.00  0.00    +0.023 A 
ATOM      8  C   UNL     1       1.994  -1.978  -5.852  0.00  0.00    +0.025 A 
ATOM      9  C   UNL     1       0.639  -1.659  -5.903  0.00  0.00    +0.023 A 
ATOM     10  C   UNL     1      -0.009  -1.221  -4.771  0.00  0.00    +0.015 A 
BRANCH   8  11
ATOM     11  N   UNL     1       2.644  -2.426  -6.996  0.00  0.00    -0.358 N 
ATOM     12  H   UNL     1       3.588  -2.648  -6.962  0.00  0.00    +0.142 HD
ATOM     13  H   UNL     1       2.155  -2.517  -7.829  0.00  0.00    +0.142 HD
ENDBRANCH   8  11
ENDBRANCH   2   5
BRANCH   1  15
ATOM     14  C   UNL     1      -0.019   1.526   0.010  0.00  0.00    +0.028 C 
ATOM     15  C   UNL     1       0.002  -0.004   0.002  0.00  0.00    +0.070 C 
BRANCH  15  16
ATOM     16  C   UNL     1       0.742  -0.511   1.242  0.00  0.00    +0.026 C 
BRANCH  16  17
ATOM     17  C   UNL     1       0.655  -2.037   1.299  0.00  0.00    +0.037 C 
BRANCH  17  18
ATOM     18  C   UNL     1       1.384  -2.537   2.519  0.00  0.00    -0.047 A 
ATOM     19  C   UNL     1       2.731  -2.841   2.443  0.00  0.00    +0.007 A 
ATOM     20  C   UNL     1       3.401  -3.299   3.561  0.00  0.00    +0.045 A 
ATOM     21  C   UNL     1       2.722  -3.453   4.761  0.00  0.00    +0.117 A 
ATOM     22  C   UNL     1       1.371  -3.147   4.835  0.00  0.00    +0.045 A 
ATOM     23  C   UNL     1       0.707  -2.684   3.716  0.00  0.00    +0.007 A 
BRANCH  21  24
ATOM     24  O   UNL     1       3.379  -3.905   5.861  0.00  0.00    -0.507 OA
ATOM     25  H   UNL     1       3.771  -3.204   6.401  0.00  0.00    +0.292 HD
ENDBRANCH  21  24
ENDBRANCH  17  18
ENDBRANCH  16  17
ENDBRANCH  15  16
ENDBRANCH   1  15
TORSDOF 7
