REMARK  Name = ZINC08703208
REMARK  8 active torsions:
REMARK  status: ('A' for Active; 'I' for Inactive)
REMARK    1  A    between atoms: C_1  and  C_2
REMARK    2  A    between atoms: C_5  and  O_8
REMARK    3  A    between atoms: O_8  and  C_9
REMARK    4  A    between atoms: C_9  and  C_10
REMARK    5  A    between atoms: C_10  and  N_11
REMARK    6  A    between atoms: N_11  and  C_12
REMARK    7  A    between atoms: C_17  and  C_18
REMARK    8  A    between atoms: N_20  and  N_21
REMARK                            x       y       z     vdW  Elec       q    Type
REMARK                         _______ _______ _______ _____ _____    ______ ____
ROOT
ATOM      1  C   UNL     1      -3.432  -0.504  -1.441  0.00  0.00    +0.040 A 
ATOM      2  C   UNL     1      -4.086  -1.328  -0.532  0.00  0.00    +0.025 A 
ATOM      3  C   UNL     1      -5.392  -1.709  -0.761  0.00  0.00    +0.017 A 
ATOM      4  C   UNL     1      -6.061  -1.276  -1.896  0.00  0.00    +0.019 A 
ATOM      5  C   UNL     1      -5.428  -0.460  -2.808  0.00  0.00    +0.030 A 
ATOM      6  C   UNL     1      -4.108  -0.060  -2.587  0.00  0.00    +0.060 A 
ATOM      7 BR   UNL     1      -7.851  -1.810  -2.194  0.00  0.00    -0.050 Br
ENDROOT
BRANCH   6   8
ATOM      8  C   UNL     1      -3.427   0.819  -3.556  0.00  0.00    +0.259 C 
ATOM      9  O   UNL     1      -2.247   1.078  -3.416  0.00  0.00    -0.269 OA
ATOM     10  N   UNL     1      -4.112   1.335  -4.595  0.00  0.00    -0.250 N 
ATOM     11  H   UNL     1      -5.053   1.128  -4.706  0.00  0.00    +0.169 HD
BRANCH  10  12
ATOM     12  N   UNL     1      -3.481   2.149  -5.492  0.00  0.00    -0.254 NA
ATOM     13  H   UNL     1      -2.677   1.691  -5.894  0.00  0.00    +0.140 HD
ATOM     14  H   UNL     1      -4.119   2.457  -6.212  0.00  0.00    +0.140 HD
ENDBRANCH  10  12
ENDBRANCH   6   8
BRANCH   1  15
ATOM     15  N   UNL     1      -2.117  -0.119  -1.212  0.00  0.00    -0.340 N 
ATOM     16  H   UNL     1      -1.636   0.387  -1.885  0.00  0.00    +0.146 HD
BRANCH  15  17
ATOM     17  C   UNL     1      -1.457  -0.476   0.046  0.00  0.00    +0.142 C 
BRANCH  17  18
ATOM     18  C   UNL     1      -0.026   0.065   0.043  0.00  0.00    +0.247 C 
BRANCH  18  19
ATOM     19  O   UNL     1      -0.057   1.494   0.025  0.00  0.00    -0.490 OA
BRANCH  19  24
ATOM     20  C   UNL     1       4.905   4.159   0.004  0.00  0.00    +0.044 C 
ATOM     21  C   UNL     1       3.577   3.446   0.010  0.00  0.00    -0.050 A 
ATOM     22  C   UNL     1       2.402   4.175  -0.003  0.00  0.00    +0.007 A 
ATOM     23  C   UNL     1       1.184   3.523   0.003  0.00  0.00    +0.046 A 
ATOM     24  C   UNL     1       1.140   2.137   0.020  0.00  0.00    +0.121 A 
ATOM     25  C   UNL     1       2.320   1.408   0.038  0.00  0.00    +0.046 A 
ATOM     26  C   UNL     1       3.536   2.064   0.027  0.00  0.00    +0.007 A 
ENDBRANCH  19  24
ENDBRANCH  18  19
ENDBRANCH  17  18
ENDBRANCH  15  17
ENDBRANCH   1  15
TORSDOF 7
