REMARK  Name = ZINC00958390
REMARK  7 active torsions:
REMARK  status: ('A' for Active; 'I' for Inactive)
REMARK    1  A    between atoms: C_4  and  C_7
REMARK    2  A    between atoms: N_14  and  C_17
REMARK    3  A    between atoms: C_17  and  C_18
REMARK    4  A    between atoms: N_20  and  N_21
REMARK    5  A    between atoms: C_22  and  C_23
REMARK    6  A    between atoms: C_26  and  O_30
REMARK    7  A    between atoms: C_28  and  O_29
REMARK                            x       y       z     vdW  Elec       q    Type
REMARK                         _______ _______ _______ _____ _____    ______ ____
ROOT
ATOM      1  C   UNL     1       1.280   1.980   0.001  0.00  0.00    +0.223 C 
ENDROOT
BRANCH   1   9
ATOM      2  C   UNL     1       4.707  -0.876  -2.335  0.00  0.00    +0.004 A 
ATOM      3  C   UNL     1       5.732  -1.729  -2.094  0.00  0.00    +0.056 A 
ATOM      4  S   UNL     1       5.809  -1.788  -0.314  0.00  0.00    -0.076 S 
ATOM      5  C   UNL     1       4.477  -0.678   0.061  0.00  0.00    +0.116 A 
ATOM      6  C   UNL     1       4.003  -0.287  -1.202  0.00  0.00    +0.080 A 
ATOM      7  C   UNL     1       2.902   0.628  -1.196  0.00  0.00    +0.263 A 
ATOM      8  O   UNL     1       2.422   1.025  -2.243  0.00  0.00    -0.267 OA
ATOM      9  N   UNL     1       2.407   1.044  -0.015  0.00  0.00    -0.290 N 
ATOM     10  C   UNL     1       2.933   0.616   1.161  0.00  0.00    +0.203 A 
ATOM     11  N   UNL     1       3.933  -0.223   1.187  0.00  0.00    -0.230 NA
BRANCH   2  15
ATOM     12  C   UNL     1       3.565   0.065  -6.320  0.00  0.00    +0.000 A 
ATOM     13  C   UNL     1       4.893   0.156  -5.944  0.00  0.00    +0.001 A 
ATOM     14  C   UNL     1       5.270  -0.149  -4.652  0.00  0.00    +0.008 A 
ATOM     15  C   UNL     1       4.309  -0.548  -3.725  0.00  0.00    -0.017 A 
ATOM     16  C   UNL     1       2.972  -0.643  -4.111  0.00  0.00    +0.008 A 
ATOM     17  C   UNL     1       2.607  -0.331  -5.404  0.00  0.00    +0.001 A 
ENDBRANCH   2  15
ENDBRANCH   1   9
BRANCH   1  18
ATOM     18  C   UNL     1      -0.014   1.209   0.009  0.00  0.00    +0.252 C 
ATOM     19  O   UNL     1       0.002  -0.004   0.002  0.00  0.00    -0.272 OA
ATOM     20  N   UNL     1      -1.191   1.867   0.018  0.00  0.00    -0.206 N 
ATOM     21  H   UNL     1      -1.204   2.837   0.023  0.00  0.00    +0.177 HD
BRANCH  20  22
ATOM     22  N   UNL     1      -2.394   1.150   0.020  0.00  0.00    -0.188 NA
ATOM     23  C   UNL     1      -3.527   1.784   0.029  0.00  0.00    +0.142 C 
BRANCH  23  24
ATOM     24  C   UNL     1      -4.793   1.030   0.030  0.00  0.00    +0.036 A 
ATOM     25  C   UNL     1      -6.014   1.709   0.040  0.00  0.00    +0.016 A 
ATOM     26  C   UNL     1      -7.195   1.001   0.042  0.00  0.00    +0.046 A 
ATOM     27  C   UNL     1      -7.178  -0.389   0.034  0.00  0.00    +0.120 A 
ATOM     28  C   UNL     1      -5.971  -1.073   0.024  0.00  0.00    +0.091 A 
ATOM     29  C   UNL     1      -4.777  -0.372   0.017  0.00  0.00    +0.129 A 
BRANCH  29  30
ATOM     30  O   UNL     1      -3.595  -1.040   0.002  0.00  0.00    -0.506 OA
ATOM     31  H   UNL     1      -3.246  -1.242   0.880  0.00  0.00    +0.292 HD
ENDBRANCH  29  30
BRANCH  27  32
ATOM     32  O   UNL     1      -8.347  -1.081   0.035  0.00  0.00    -0.507 OA
ATOM     33  H   UNL     1      -8.689  -1.276  -0.848  0.00  0.00    +0.292 HD
ENDBRANCH  27  32
ENDBRANCH  23  24
ENDBRANCH  20  22
ENDBRANCH   1  18
TORSDOF 7
