REMARK  Name = ZINC21080488
REMARK  8 active torsions:
REMARK  status: ('A' for Active; 'I' for Inactive)
REMARK    1  A    between atoms: C_3  and  N_9
REMARK    2  A    between atoms: C_10  and  C_12
REMARK    3  A    between atoms: C_12  and  C_13
REMARK    4  A    between atoms: C_13  and  S_14
REMARK    5  A    between atoms: S_14  and  C_15
REMARK    6  A    between atoms: N_20  and  N_21
REMARK    7  A    between atoms: C_22  and  C_23
REMARK    8  A    between atoms: C_28  and  O_29
REMARK                            x       y       z     vdW  Elec       q    Type
REMARK                         _______ _______ _______ _____ _____    ______ ____
ROOT
ATOM      1  C   UNL     1      -7.634   0.738  -0.518  0.00  0.00    +0.210 A 
ATOM      2  N   UNL     1      -8.984   0.916  -0.628  0.00  0.00    -0.186 NA
ATOM      3  C   UNL     1      -9.570  -0.318  -0.685  0.00  0.00    +0.232 A 
ATOM      4  N   UNL     1      -8.622  -1.220  -0.613  0.00  0.00    -0.245 N 
ATOM      5  N   UNL     1      -7.395  -0.552  -0.512  0.00  0.00    -0.144 NA
ATOM      6  N   UNL     1     -10.930  -0.571  -0.799  0.00  0.00    -0.205 N 
ATOM      7  H   UNL     1     -11.642   0.266  -0.851  0.00  0.00    +0.177 HD
ATOM      8  H   UNL     1      -8.878  -2.290  -0.638  0.00  0.00    +0.192 HD
ENDROOT
BRANCH   6   9
ATOM      9  N   UNL     1     -11.395  -1.891  -0.847  0.00  0.00    -0.187 NA
ATOM     10  C   UNL     1     -12.668  -2.128  -0.953  0.00  0.00    +0.142 C 
BRANCH  10  11
ATOM     11  C   UNL     1     -13.157  -3.517  -1.004  0.00  0.00    +0.037 A 
ATOM     12  C   UNL     1     -14.525  -3.775  -1.118  0.00  0.00    +0.033 A 
ATOM     13  C   UNL     1     -14.977  -5.079  -1.165  0.00  0.00    +0.042 A 
ATOM     14  C   UNL     1     -14.079  -6.131  -1.099  0.00  0.00    +0.023 A 
ATOM     15  C   UNL     1     -12.723  -5.887  -0.986  0.00  0.00    +0.047 A 
ATOM     16  C   UNL     1     -12.252  -4.585  -0.943  0.00  0.00    +0.126 A 
ATOM     17 CL   UNL     1     -16.677  -5.400  -1.306  0.00  0.00    -0.084 Cl
BRANCH  16  18
ATOM     18  O   UNL     1     -10.919  -4.345  -0.837  0.00  0.00    -0.506 OA
ATOM     19  H   UNL     1     -10.211  -5.185  -0.789  0.00  0.00    +0.292 HD
ENDBRANCH  16  18
ENDBRANCH  10  11
ENDBRANCH   6   9
BRANCH   1  20
ATOM     20  S   UNL     1      -6.426   2.016  -0.410  0.00  0.00    -0.084 S 
BRANCH  20  21
ATOM     21  C   UNL     1      -4.852   1.123  -0.286  0.00  0.00    +0.086 C 
BRANCH  21  22
ATOM     22  C   UNL     1      -3.703   2.127  -0.184  0.00  0.00    +0.107 C 
BRANCH  22  24
ATOM     23  N   UNL     1      -1.238   2.069   0.019  0.00  0.00    -0.284 N 
ATOM     24  C   UNL     1      -2.395   1.385  -0.081  0.00  0.00    +0.218 C 
ATOM     25  O   UNL     1      -2.384   0.172  -0.088  0.00  0.00    -0.275 OA
ATOM     26  H   UNL     1      -1.253   3.164   0.117  0.00  0.00    +0.155 HD
BRANCH  23  29
ATOM     27  C   UNL     1       1.283  -0.526  -0.640  0.00  0.00    +0.022 A 
ATOM     28  C   UNL     1       0.075   0.144  -0.617  0.00  0.00    +0.026 A 
ATOM     29  C   UNL     1      -0.016   1.385  -0.001  0.00  0.00    +0.052 A 
ATOM     30  C   UNL     1       1.108   1.950   0.589  0.00  0.00    +0.064 A 
ATOM     31  C   UNL     1       2.313   1.275   0.562  0.00  0.00    +0.041 A 
ATOM     32  C   UNL     1       2.401   0.038  -0.052  0.00  0.00    +0.042 A 
ATOM     33 CL   UNL     1       3.917  -0.808  -0.084  0.00  0.00    -0.083 Cl
ATOM     34 CL   UNL     1       0.998   3.502   1.359  0.00  0.00    -0.082 Cl
ENDBRANCH  23  29
ENDBRANCH  22  24
ENDBRANCH  21  22
ENDBRANCH  20  21
ENDBRANCH   1  20
TORSDOF 8
