REMARK  Name = ZINC12691717
REMARK  15 active torsions:
REMARK  status: ('A' for Active; 'I' for Inactive)
REMARK    1  A    between atoms: C_1  and  C_2
REMARK    2  A    between atoms: C_2  and  N_3
REMARK    3  A    between atoms: N_3  and  C_4
REMARK    4  A    between atoms: N_3  and  C_8
REMARK    5  A    between atoms: C_4  and  C_5
REMARK    6  A    between atoms: C_5  and  C_6
REMARK    7  A    between atoms: C_11  and  C_15
REMARK    8  A    between atoms: C_12  and  C_14
REMARK    9  A    between atoms: C_15  and  N_55
REMARK   10  A    between atoms: C_16  and  C_18
REMARK   11  A    between atoms: C_16  and  C_19
REMARK   12  A    between atoms: C_16  and  N_55
REMARK   13  A    between atoms: C_19  and  C_21
REMARK   14  A    between atoms: C_19  and  O_28
REMARK   15  A    between atoms: C_24  and  O_27
REMARK                            x       y       z     vdW  Elec       q    Type
REMARK                         _______ _______ _______ _____ _____    ______ ____
ROOT
ATOM      1  N   UNL     1      -0.721   1.581  -1.188  0.00  0.00    +0.385 N 
ATOM      2  H   UNL     1      -1.095   2.518  -0.995  0.00  0.00    -0.085 HD
ATOM      3  H   UNL     1      -0.063   1.630  -1.974  0.00  0.00    -0.085 HD
ENDROOT
BRANCH   1   4
ATOM      4  C   UNL     1      -0.013   1.086   0.008  0.00  0.00    -0.041 C 
ATOM      5  C   UNL     1      -0.729   1.579   1.267  0.00  0.00    -0.011 C 
BRANCH   4   6
ATOM      6  C   UNL     1       1.423   1.615  -0.003  0.00  0.00    +0.130 C 
BRANCH   6   7
ATOM      7  C   UNL     1       2.187   1.018   1.151  0.00  0.00    -0.020 A 
ATOM      8  C   UNL     1       2.044   1.546   2.421  0.00  0.00    +0.009 A 
ATOM      9  C   UNL     1       2.739   0.997   3.481  0.00  0.00    +0.046 A 
ATOM     10  C   UNL     1       3.591  -0.077   3.268  0.00  0.00    +0.117 A 
ATOM     11  C   UNL     1       3.737  -0.601   1.992  0.00  0.00    +0.046 A 
ATOM     12  C   UNL     1       3.035  -0.052   0.936  0.00  0.00    +0.009 A 
BRANCH  10  13
ATOM     13  O   UNL     1       4.281  -0.615   4.308  0.00  0.00    -0.507 OA
ATOM     14  H   UNL     1       5.147  -0.211   4.456  0.00  0.00    +0.292 HD
ENDBRANCH  10  13
ENDBRANCH   6   7
BRANCH   6  15
ATOM     15  O   UNL     1       1.406   3.039   0.122  0.00  0.00    -0.389 OA
ATOM     16  H   UNL     1       0.991   3.357   0.935  0.00  0.00    +0.210 HD
ENDBRANCH   6  15
ENDBRANCH   4   6
ENDBRANCH   1   4
BRANCH   1  17
ATOM     17  C   UNL     1      -1.831   0.676  -1.537  0.00  0.00    -0.046 C 
BRANCH  17  21
ATOM     18  C   UNL     1      -3.827   2.180  -5.005  0.00  0.00    +0.030 A 
ATOM     19  C   UNL     1      -4.363   2.400  -3.742  0.00  0.00    +0.023 A 
ATOM     20  C   UNL     1      -3.716   1.913  -2.624  0.00  0.00    +0.004 A 
ATOM     21  C   UNL     1      -2.535   1.206  -2.760  0.00  0.00    -0.061 A 
ATOM     22  C   UNL     1      -1.995   0.990  -4.014  0.00  0.00    -0.047 A 
ATOM     23  C   UNL     1      -2.640   1.470  -5.137  0.00  0.00    +0.026 A 
ATOM     24  C   UNL     1      -0.705   0.224  -4.157  0.00  0.00    +0.044 C 
BRANCH  18  25
ATOM     25  N   UNL     1      -4.479   2.671  -6.138  0.00  0.00    -0.329 N 
BRANCH  25  27
ATOM     26  C   UNL     1      -4.462   1.127  -8.034  0.00  0.00    +0.024 C 
ATOM     27  C   UNL     1      -3.912   2.438  -7.468  0.00  0.00    +0.102 C 
ENDBRANCH  25  27
BRANCH  25  28
ATOM     28  C   UNL     1      -5.730   3.420  -5.996  0.00  0.00    +0.120 C 
BRANCH  28  29
ATOM     29  C   UNL     1      -5.418   4.910  -5.843  0.00  0.00    +0.137 C 
BRANCH  29  30
ATOM     30  C   UNL     1      -6.676   5.662  -5.701  0.00  0.00    +0.064 C 
ATOM     31  N   UNL     1      -7.646   6.243  -5.591  0.00  0.00    -0.197 NA
ENDBRANCH  29  30
ENDBRANCH  28  29
ENDBRANCH  25  28
ENDBRANCH  18  25
ENDBRANCH  17  21
ENDBRANCH   1  17
TORSDOF 12
