REMARK  Name = ZINC13064447
REMARK  10 active torsions:
REMARK  status: ('A' for Active; 'I' for Inactive)
REMARK    1  A    between atoms: C_1  and  C_2
REMARK    2  A    between atoms: C_2  and  C_3
REMARK    3  A    between atoms: C_3  and  C_5
REMARK    4  A    between atoms: C_3  and  N_75
REMARK    5  A    between atoms: N_9  and  C_10
REMARK    6  A    between atoms: C_16  and  C_17
REMARK    7  A    between atoms: C_16  and  N_75
REMARK    8  A    between atoms: C_20  and  C_23
REMARK    9  A    between atoms: C_24  and  C_25
REMARK   10  A    between atoms: C_24  and  N_75
REMARK                            x       y       z     vdW  Elec       q    Type
REMARK                         _______ _______ _______ _____ _____    ______ ____
ROOT
ATOM      1  N   UNL     1      -1.901   2.581   2.251  0.00  0.00    +0.392 N 
ATOM      2  H   UNL     1      -1.246   3.247   2.678  0.00  0.00    -0.080 HD
ENDROOT
BRANCH   1   3
ATOM      3  C   UNL     1      -1.740   1.264   2.902  0.00  0.00    +0.003 C 
BRANCH   3   4
ATOM      4  C   UNL     1      -2.834   0.323   2.468  0.00  0.00    +0.138 A 
ATOM      5  N   UNL     1      -4.104   0.614   2.319  0.00  0.00    -0.115 NA
ATOM      6  N   UNL     1      -4.715  -0.453   1.936  0.00  0.00    -0.023 NA
ATOM      7  N   UNL     1      -3.870  -1.420   1.844  0.00  0.00    -0.044 NA
ATOM      8  N   UNL     1      -2.699  -0.981   2.164  0.00  0.00    -0.228 N 
BRANCH   8   9
ATOM      9  C   UNL     1      -1.457  -1.757   2.191  0.00  0.00    +0.111 C 
ATOM     10  C   UNL     1      -1.275  -2.476   0.852  0.00  0.00    +0.027 C 
ATOM     11  C   UNL     1       0.022  -3.286   0.880  0.00  0.00    +0.002 C 
ATOM     12  C   UNL     1      -0.044  -4.317   2.009  0.00  0.00    +0.000 C 
ATOM     13  C   UNL     1      -0.226  -3.598   3.347  0.00  0.00    +0.002 C 
ATOM     14  C   UNL     1      -1.524  -2.788   3.319  0.00  0.00    +0.027 C 
ENDBRANCH   8   9
ENDBRANCH   3   4
BRANCH   3  16
ATOM     15  C   UNL     1      -0.611   2.298   4.876  0.00  0.00    +0.002 C 
ATOM     16  C   UNL     1      -1.801   1.452   4.419  0.00  0.00    -0.011 C 
ENDBRANCH   3  16
ENDBRANCH   1   3
BRANCH   1  17
ATOM     17  C   UNL     1      -1.602   2.472   0.808  0.00  0.00    -0.042 C 
BRANCH  17  18
ATOM     18  C   UNL     1      -0.111   2.343   0.632  0.00  0.00    -0.064 A 
ATOM     19  C   UNL     1       0.674   3.476   0.529  0.00  0.00    +0.002 A 
ATOM     20  C   UNL     1       2.040   3.358   0.360  0.00  0.00    +0.003 A 
ATOM     21  C   UNL     1       2.623   2.106   0.296  0.00  0.00    -0.050 A 
ATOM     22  C   UNL     1       1.839   0.972   0.399  0.00  0.00    +0.003 A 
ATOM     23  C   UNL     1       0.471   1.091   0.567  0.00  0.00    +0.002 A 
ATOM     24  C   UNL     1       4.113   1.977   0.113  0.00  0.00    +0.044 C 
ENDBRANCH  17  18
ENDBRANCH   1  17
BRANCH   1  25
ATOM     25  C   UNL     1      -3.281   3.075   2.445  0.00  0.00    -0.036 C 
BRANCH  25  26
ATOM     26  C   UNL     1      -3.298   4.564   2.217  0.00  0.00    +0.001 A 
ATOM     27  C   UNL     1      -3.638   5.058   0.999  0.00  0.00    +0.017 A 
ATOM     28  C   UNL     1      -3.649   6.508   0.811  0.00  0.00    +0.002 A 
ATOM     29  C   UNL     1      -3.996   7.074  -0.422  0.00  0.00    +0.059 A 
ATOM     30  C   UNL     1      -3.993   8.445  -0.571  0.00  0.00    +0.163 A 
ATOM     31  C   UNL     1      -3.646   9.269   0.503  0.00  0.00    +0.164 A 
ATOM     32  C   UNL     1      -3.302   8.718   1.726  0.00  0.00    +0.075 A 
ATOM     33  C   UNL     1      -3.299   7.340   1.892  0.00  0.00    +0.053 A 
ATOM     34  N   UNL     1      -2.957   6.773   3.104  0.00  0.00    -0.322 N 
ATOM     35  H   UNL     1      -2.715   7.347   3.848  0.00  0.00    +0.169 HD
ATOM     36  C   UNL     1      -2.954   5.439   3.267  0.00  0.00    +0.251 A 
ATOM     37  O   UNL     1      -2.647   4.974   4.351  0.00  0.00    -0.268 OA
ATOM     38  O   UNL     1      -3.645  10.623   0.366  0.00  0.00    -0.485 OA
ATOM     39  C   UNL     1      -3.631  11.134  -0.971  0.00  0.00    +0.270 C 
ATOM     40  C   UNL     1      -4.679  10.369  -1.790  0.00  0.00    +0.270 C 
ATOM     41  O   UNL     1      -4.330   8.980  -1.777  0.00  0.00    -0.485 OA
ENDBRANCH  25  26
ENDBRANCH   1  25
TORSDOF 8
