REMARK  Name = ZINC14547809
REMARK  3 active torsions:
REMARK  status: ('A' for Active; 'I' for Inactive)
REMARK    1  A    between atoms: C_9  and  O_30
REMARK    2  A    between atoms: C_10  and  C_11
REMARK    3  A    between atoms: C_22  and  C_27
REMARK                            x       y       z     vdW  Elec       q    Type
REMARK                         _______ _______ _______ _____ _____    ______ ____
ROOT
ATOM      1  C   UNL     1       2.137   0.642  -2.092  0.00  0.00    +0.109 C 
ATOM      2  C   UNL     1       2.241   0.691  -0.565  0.00  0.00    +0.029 C 
ATOM      3  C   UNL     1       1.429  -0.516  -0.007  0.00  0.00    +0.033 C 
ATOM      4  C   UNL     1       0.002  -0.004   0.002  0.00  0.00    -0.030 C 
ATOM      5  C   UNL     1      -0.016   1.306   0.009  0.00  0.00    -0.023 C 
ATOM      6  C   UNL     1       1.394   1.849  -0.001  0.00  0.00    +0.049 C 
ATOM      7  C   UNL     1       1.484   3.090  -0.846  0.00  0.00    -0.019 A 
ATOM      8  C   UNL     1       0.973   4.270  -0.334  0.00  0.00    +0.019 A 
ATOM      9  C   UNL     1       1.051   5.452  -1.071  0.00  0.00    +0.037 A 
ATOM     10  C   UNL     1       1.649   5.449  -2.335  0.00  0.00    +0.015 A 
ATOM     11  C   UNL     1       2.157   4.276  -2.843  0.00  0.00    +0.024 A 
ATOM     12  C   UNL     1       2.076   3.099  -2.104  0.00  0.00    +0.031 A 
ATOM     13  N   UNL     1       2.595   1.923  -2.640  0.00  0.00    -0.336 N 
ATOM     14  H   UNL     1       3.245   1.950  -3.360  0.00  0.00    +0.147 HD
ENDROOT
BRANCH   1  24
ATOM     15  C   UNL     1       1.305  -4.036  -3.992  0.00  0.00    +0.001 A 
ATOM     16  C   UNL     1       0.489  -3.016  -3.504  0.00  0.00    +0.001 A 
ATOM     17  C   UNL     1       1.022  -1.848  -3.054  0.00  0.00    +0.009 A 
ATOM     18  C   UNL     1       2.416  -1.664  -3.078  0.00  0.00    -0.009 A 
ATOM     19  C   UNL     1       3.245  -2.702  -3.574  0.00  0.00    -0.017 A 
ATOM     20  C   UNL     1       2.658  -3.894  -4.031  0.00  0.00    +0.008 A 
ATOM     21  C   UNL     1       4.639  -2.520  -3.600  0.00  0.00    +0.012 A 
ATOM     22  C   UNL     1       5.175  -1.353  -3.150  0.00  0.00    +0.046 A 
ATOM     23  C   UNL     1       4.359  -0.327  -2.666  0.00  0.00    +0.122 A 
ATOM     24  C   UNL     1       3.002  -0.472  -2.622  0.00  0.00    +0.022 A 
BRANCH  23  25
ATOM     25  O   UNL     1       4.924   0.829  -2.229  0.00  0.00    -0.506 OA
ATOM     26  H   UNL     1       5.150   0.826  -1.289  0.00  0.00    +0.292 HD
ENDBRANCH  23  25
ENDBRANCH   1  24
BRANCH   9  27
ATOM     27  C   UNL     1       0.501   6.704  -0.517  0.00  0.00    +0.242 C 
ATOM     28  O   UNL     1      -0.020   6.705   0.581  0.00  0.00    -0.270 OA
ATOM     29  N   UNL     1       0.577   7.846  -1.229  0.00  0.00    -0.325 N 
ATOM     30  H   UNL     1       0.992   7.844  -2.106  0.00  0.00    +0.145 HD
ATOM     31  H   UNL     1       0.215   8.669  -0.865  0.00  0.00    +0.145 HD
ENDBRANCH   9  27
TORSDOF 3
