REMARK  Name = ZINC03448794
REMARK  9 active torsions:
REMARK  status: ('A' for Active; 'I' for Inactive)
REMARK    1  A    between atoms: C_1  and  C_2
REMARK    2  A    between atoms: C_6  and  N_9
REMARK    3  A    between atoms: C_7  and  C_8
REMARK    4  A    between atoms: N_9  and  C_10
REMARK    5  A    between atoms: C_15  and  C_16
REMARK    6  A    between atoms: C_16  and  O_18
REMARK    7  A    between atoms: O_18  and  C_19
REMARK    8  A    between atoms: C_19  and  C_21
REMARK    9  A    between atoms: C_19  and  C_22
REMARK                            x       y       z     vdW  Elec       q    Type
REMARK                         _______ _______ _______ _____ _____    ______ ____
ROOT
ATOM      1  C   UNL     1      -1.250  -2.152  -0.105  0.00  0.00    +0.045 A 
ATOM      2  C   UNL     1      -2.443  -2.851   0.038  0.00  0.00    +0.024 A 
ATOM      3  C   UNL     1      -3.635  -2.166   0.156  0.00  0.00    +0.002 A 
ATOM      4  C   UNL     1      -3.654  -0.780   0.133  0.00  0.00    +0.001 A 
ATOM      5  C   UNL     1      -2.482  -0.070  -0.001  0.00  0.00    +0.017 A 
ATOM      6  C   UNL     1      -1.266  -0.748  -0.128  0.00  0.00    +0.080 A 
ENDROOT
BRANCH   1   7
ATOM      7  N   UNL     1      -0.049  -2.839  -0.223  0.00  0.00    -0.314 N 
ATOM      8  H   UNL     1       0.218  -3.205  -1.081  0.00  0.00    +0.152 HD
BRANCH   7  14
ATOM      9  C   UNL     1       4.192  -4.396   1.712  0.00  0.00    +0.044 C 
ATOM     10  C   UNL     1       2.836  -3.756   1.861  0.00  0.00    -0.046 A 
ATOM     11  C   UNL     1       2.406  -3.331   3.104  0.00  0.00    +0.004 A 
ATOM     12  C   UNL     1       1.162  -2.743   3.246  0.00  0.00    +0.002 A 
ATOM     13  C   UNL     1       0.346  -2.579   2.144  0.00  0.00    +0.023 A 
ATOM     14  C   UNL     1       0.775  -3.004   0.893  0.00  0.00    +0.035 A 
ATOM     15  C   UNL     1       2.023  -3.599   0.756  0.00  0.00    -0.026 A 
ATOM     16  C   UNL     1       2.491  -4.067  -0.598  0.00  0.00    +0.046 C 
ENDBRANCH   7  14
ENDBRANCH   1   7
BRANCH   6  17
ATOM     17  C   UNL     1      -0.009   0.004  -0.279  0.00  0.00    +0.342 C 
ATOM     18  O   UNL     1       1.050  -0.588  -0.344  0.00  0.00    -0.245 OA
BRANCH  17  19
ATOM     19  O   UNL     1      -0.033   1.350  -0.345  0.00  0.00    -0.449 OA
BRANCH  19  20
ATOM     20  C   UNL     1       1.243   2.026  -0.493  0.00  0.00    +0.259 C 
ATOM     21  C   UNL     1       1.820   2.337   0.889  0.00  0.00    +0.062 C 
BRANCH  20  22
ATOM     22  C   UNL     1       1.045   3.312  -1.255  0.00  0.00    +0.261 C 
ATOM     23  O   UNL     1      -0.073   3.672  -1.556  0.00  0.00    -0.271 OA
ATOM     24  N   UNL     1       2.111   4.061  -1.602  0.00  0.00    -0.237 N 
ATOM     25  C   UNL     1       1.933   5.210  -2.283  0.00  0.00    +0.303 C 
ATOM     26  O   UNL     1       0.813   5.571  -2.584  0.00  0.00    -0.253 OA
ATOM     27  N   UNL     1       2.999   5.959  -2.629  0.00  0.00    -0.313 N 
ATOM     28  H   UNL     1       3.005   3.772  -1.361  0.00  0.00    +0.159 HD
ATOM     29  H   UNL     1       3.893   5.671  -2.389  0.00  0.00    +0.146 HD
ATOM     30  H   UNL     1       2.872   6.786  -3.119  0.00  0.00    +0.146 HD
ENDBRANCH  20  22
ENDBRANCH  19  20
ENDBRANCH  17  19
ENDBRANCH   6  17
TORSDOF 6
