REMARK  Name = ZINC36206248
REMARK  13 active torsions:
REMARK  status: ('A' for Active; 'I' for Inactive)
REMARK    1  A    between atoms: C_1  and  C_2
REMARK    2  A    between atoms: C_2  and  C_3
REMARK    3  A    between atoms: C_2  and  O_4
REMARK    4  A    between atoms: O_4  and  C_5
REMARK    5  A    between atoms: C_5  and  C_6
REMARK    6  A    between atoms: C_6  and  C_8
REMARK    7  A    between atoms: C_6  and  O_35
REMARK    8  A    between atoms: C_8  and  N_9
REMARK    9  A    between atoms: N_9  and  C_10
REMARK   10  A    between atoms: N_9  and  C_16
REMARK   11  A    between atoms: C_10  and  C_11
REMARK   12  A    between atoms: C_16  and  C_17
REMARK   13  A    between atoms: C_23  and  C_28
REMARK                            x       y       z     vdW  Elec       q    Type
REMARK                         _______ _______ _______ _____ _____    ______ ____
ROOT
ATOM      1  C   UNL     1      -0.167  -2.401   6.840  0.00  0.00    -0.003 C 
ENDROOT
BRANCH   1   2
ATOM      2  C   UNL     1       0.701  -2.927   7.955  0.00  0.00    +0.094 A 
ATOM      3  N   UNL     1       0.119  -3.390   9.091  0.00  0.00    -0.312 N 
ATOM      4  H   UNL     1      -0.848  -3.375   9.170  0.00  0.00    +0.170 HD
ATOM      5  C   UNL     1       0.857  -3.869  10.109  0.00  0.00    +0.260 A 
ATOM      6  O   UNL     1       0.320  -4.281  11.123  0.00  0.00    -0.267 OA
ATOM      7  C   UNL     1       2.283  -3.886   9.984  0.00  0.00    +0.080 A 
ATOM      8  C   UNL     1       3.287  -4.349  10.934  0.00  0.00    +0.006 A 
ATOM      9  C   UNL     1       4.596  -4.267  10.592  0.00  0.00    +0.056 A 
ATOM     10  S   UNL     1       4.551  -3.557   8.958  0.00  0.00    -0.076 S 
ATOM     11  C   UNL     1       2.794  -3.388   8.774  0.00  0.00    +0.116 A 
ATOM     12  N   UNL     1       1.998  -2.935   7.809  0.00  0.00    -0.229 NA
BRANCH   8  13
ATOM     13  C   UNL     1       2.884  -4.899  12.251  0.00  0.00    +0.019 A 
ATOM     14  C   UNL     1       3.230  -4.231  13.424  0.00  0.00    +0.011 A 
ATOM     15  C   UNL     1       2.852  -4.747  14.647  0.00  0.00    +0.001 A 
ATOM     16  C   UNL     1       2.131  -5.926  14.711  0.00  0.00    +0.003 A 
ATOM     17  C   UNL     1       1.784  -6.595  13.552  0.00  0.00    +0.039 A 
ATOM     18  C   UNL     1       2.152  -6.086  12.320  0.00  0.00    +0.131 A 
ATOM     19  F   UNL     1       1.809  -6.737  11.188  0.00  0.00    -0.205 F 
ENDBRANCH   8  13
ENDBRANCH   1   2
BRANCH   1  20
ATOM     20  N   UNL     1       0.682  -1.967   5.723  0.00  0.00    +0.391 N 
ATOM     21  H   UNL     1       1.369  -1.308   6.058  0.00  0.00    -0.080 HD
BRANCH  20  22
ATOM     22  C   UNL     1      -0.151  -1.327   4.696  0.00  0.00    -0.044 C 
BRANCH  22  23
ATOM     23  C   UNL     1      -0.703  -0.006   5.237  0.00  0.00    +0.124 C 
BRANCH  23  24
ATOM     24  O   UNL     1      -1.648  -0.275   6.274  0.00  0.00    -0.391 OA
ATOM     25  H   UNL     1      -2.405  -0.805   5.989  0.00  0.00    +0.210 HD
ENDBRANCH  23  24
BRANCH  23  26
ATOM     26  C   UNL     1      -1.391   0.761   4.106  0.00  0.00    +0.189 C 
BRANCH  26  27
ATOM     27  O   UNL     1      -1.803   2.043   4.582  0.00  0.00    -0.375 OA
BRANCH  27  29
ATOM     28  C   UNL     1      -3.966   2.575   3.643  0.00  0.00    +0.037 C 
ATOM     29  C   UNL     1      -2.460   2.845   3.599  0.00  0.00    +0.112 C 
ATOM     30  C   UNL     1      -2.199   4.324   3.889  0.00  0.00    +0.037 C 
ENDBRANCH  27  29
ENDBRANCH  26  27
ENDBRANCH  23  26
ENDBRANCH  22  23
ENDBRANCH  20  22
BRANCH  20  31
ATOM     31  C   UNL     1       1.363  -3.133   5.144  0.00  0.00    -0.002 C 
BRANCH  31  32
ATOM     32  C   UNL     1       2.342  -2.672   4.094  0.00  0.00    +0.089 A 
ATOM     33  C   UNL     1       3.654  -2.445   4.287  0.00  0.00    +0.042 A 
ATOM     34  C   UNL     1       4.185  -2.031   3.044  0.00  0.00    +0.041 A 
ATOM     35  C   UNL     1       3.166  -2.030   2.166  0.00  0.00    +0.195 A 
ATOM     36  O   UNL     1       2.054  -2.425   2.806  0.00  0.00    -0.470 OA
ENDBRANCH  31  32
ENDBRANCH  20  31
ENDBRANCH   1  20
TORSDOF 11
