REMARK  Name = ZINC06162957
REMARK  11 active torsions:
REMARK  status: ('A' for Active; 'I' for Inactive)
REMARK    1  A    between atoms: C_1  and  O_2
REMARK    2  A    between atoms: O_2  and  C_3
REMARK    3  A    between atoms: C_10  and  C_15
REMARK    4  A    between atoms: C_15  and  C_17
REMARK    5  A    between atoms: C_15  and  N_68
REMARK    6  A    between atoms: N_21  and  C_22
REMARK    7  A    between atoms: C_22  and  C_23
REMARK    8  A    between atoms: C_29  and  C_30
REMARK    9  A    between atoms: C_29  and  N_68
REMARK   10  A    between atoms: C_36  and  C_37
REMARK   11  A    between atoms: C_36  and  N_68
REMARK                            x       y       z     vdW  Elec       q    Type
REMARK                         _______ _______ _______ _____ _____    ______ ____
ROOT
ATOM      1  C   UNL     1      -3.142   2.012   0.463  0.00  0.00    +0.040 C 
ENDROOT
BRANCH   1   9
ATOM      2  C   UNL     1       2.439   4.458  -0.674  0.00  0.00    +0.121 A 
ATOM      3  C   UNL     1       1.974   5.701  -1.099  0.00  0.00    +0.047 A 
ATOM      4  C   UNL     1       0.624   5.972  -1.130  0.00  0.00    +0.030 A 
ATOM      5  C   UNL     1      -0.289   4.999  -0.737  0.00  0.00    +0.049 A 
ATOM      6  C   UNL     1       0.176   3.743  -0.306  0.00  0.00    +0.002 A 
ATOM      7  C   UNL     1       1.550   3.479  -0.278  0.00  0.00    +0.055 A 
ATOM      8  C   UNL     1      -0.796   2.728   0.105  0.00  0.00    +0.017 A 
ATOM      9  C   UNL     1      -2.116   3.036   0.052  0.00  0.00    +0.011 A 
ATOM     10  C   UNL     1      -2.531   4.313  -0.382  0.00  0.00    +0.251 A 
ATOM     11  O   UNL     1      -3.722   4.571  -0.417  0.00  0.00    -0.268 OA
ATOM     12  N   UNL     1      -1.646   5.251  -0.762  0.00  0.00    -0.322 N 
ATOM     13  H   UNL     1      -1.966   6.117  -1.059  0.00  0.00    +0.169 HD
BRANCH   2  15
ATOM     14  C   UNL     1       4.641   5.264  -1.071  0.00  0.00    +0.277 C 
ATOM     15  O   UNL     1       3.775   4.208  -0.649  0.00  0.00    -0.495 OA
ENDBRANCH   2  15
ENDBRANCH   1   9
BRANCH   1  16
ATOM     16  C   UNL     1      -4.021   1.681  -0.715  0.00  0.00    +0.143 A 
ATOM     17  N   UNL     1      -4.954   2.441  -1.235  0.00  0.00    -0.115 NA
ATOM     18  N   UNL     1      -5.477   1.808  -2.227  0.00  0.00    -0.023 NA
ATOM     19  N   UNL     1      -4.908   0.659  -2.349  0.00  0.00    -0.044 NA
ATOM     20  N   UNL     1      -4.004   0.544  -1.435  0.00  0.00    -0.228 N 
BRANCH  20  21
ATOM     21  C   UNL     1      -3.126  -0.609  -1.221  0.00  0.00    +0.178 C 
BRANCH  21  22
ATOM     22  C   UNL     1      -3.828  -1.624  -0.317  0.00  0.00    +0.140 C 
ATOM     23  C   UNL     1      -2.873  -2.797  -0.007  0.00  0.00    +0.035 C 
ATOM     24  C   UNL     1      -3.828  -4.021  -0.058  0.00  0.00    +0.031 C 
ATOM     25  C   UNL     1      -4.813  -3.579  -1.170  0.00  0.00    +0.160 C 
ATOM     26  O   UNL     1      -4.972  -2.163  -0.988  0.00  0.00    -0.375 OA
ENDBRANCH  21  22
ENDBRANCH  20  21
ENDBRANCH   1  16
BRANCH   1  27
ATOM     27  N   UNL     1      -3.980   2.579   1.541  0.00  0.00    +0.397 N 
ATOM     28  H   UNL     1      -4.452   3.420   1.190  0.00  0.00    -0.079 HD
BRANCH  27  29
ATOM     29  C   UNL     1      -3.135   2.949   2.696  0.00  0.00    -0.039 C 
BRANCH  29  30
ATOM     30  C   UNL     1      -2.676   4.374   2.517  0.00  0.00    -0.046 A 
ATOM     31  C   UNL     1      -3.552   5.426   2.738  0.00  0.00    +0.005 A 
ATOM     32  C   UNL     1      -3.087   6.720   2.562  0.00  0.00    +0.020 A 
ATOM     33  C   UNL     1      -1.775   6.917   2.174  0.00  0.00    +0.111 A 
ATOM     34  N   UNL     1      -0.970   5.892   1.973  0.00  0.00    -0.263 NA
ATOM     35  C   UNL     1      -1.377   4.648   2.137  0.00  0.00    +0.112 A 
ENDBRANCH  29  30
ENDBRANCH  27  29
BRANCH  27  36
ATOM     36  C   UNL     1      -5.001   1.595   1.958  0.00  0.00    -0.001 C 
BRANCH  36  37
ATOM     37  C   UNL     1      -6.151   1.653   0.985  0.00  0.00    +0.089 A 
ATOM     38  C   UNL     1      -6.434   0.732   0.046  0.00  0.00    +0.042 A 
ATOM     39  C   UNL     1      -7.589   1.183  -0.633  0.00  0.00    +0.041 A 
ATOM     40  C   UNL     1      -7.938   2.355  -0.074  0.00  0.00    +0.195 A 
ATOM     41  O   UNL     1      -7.063   2.635   0.905  0.00  0.00    -0.470 OA
ENDBRANCH  36  37
ENDBRANCH  27  36
ENDBRANCH   1  27
TORSDOF 10
