REMARK  Name = ZINC09730523
REMARK  7 active torsions:
REMARK  status: ('A' for Active; 'I' for Inactive)
REMARK    1  A    between atoms: C_7  and  C_11
REMARK    2  A    between atoms: C_14  and  S_19
REMARK    3  A    between atoms: N_15  and  C_16
REMARK    4  A    between atoms: S_19  and  C_20
REMARK    5  A    between atoms: C_20  and  C_21
REMARK    6  A    between atoms: N_23  and  C_24
REMARK    7  A    between atoms: C_25  and  C_33
REMARK                            x       y       z     vdW  Elec       q    Type
REMARK                         _______ _______ _______ _____ _____    ______ ____
ROOT
ATOM      1  S   UNL     1      -0.968   4.043   0.116  0.00  0.00    -0.077 S 
ENDROOT
BRANCH   1   5
ATOM      2  C   UNL     1      -4.507   5.697  -0.001  0.00  0.00    +0.167 A 
ATOM      3  N   UNL     1      -4.787   4.415   0.052  0.00  0.00    -0.128 NA
ATOM      4  N   UNL     1      -3.701   3.729   0.096  0.00  0.00    -0.122 NA
ATOM      5  C   UNL     1      -2.661   4.529   0.073  0.00  0.00    +0.193 A 
ATOM      6  N   UNL     1      -3.136   5.811   0.017  0.00  0.00    -0.299 N 
BRANCH   2  13
ATOM      7  C   UNL     1      -9.157   5.840  -0.475  0.00  0.00    +0.001 A 
ATOM      8  C   UNL     1      -9.654   7.136  -0.482  0.00  0.00    +0.002 A 
ATOM      9  C   UNL     1      -8.805   8.214  -0.358  0.00  0.00    +0.026 A 
ATOM     10  C   UNL     1      -7.436   8.004  -0.224  0.00  0.00    +0.047 A 
ATOM     11  C   UNL     1      -6.939   6.689  -0.223  0.00  0.00    +0.010 A 
ATOM     12  C   UNL     1      -7.816   5.612  -0.345  0.00  0.00    +0.011 A 
ATOM     13  C   UNL     1      -5.480   6.806  -0.063  0.00  0.00    +0.044 A 
ATOM     14  C   UNL     1      -5.202   8.134   0.011  0.00  0.00    +0.095 A 
ATOM     15  N   UNL     1      -6.359   8.852  -0.084  0.00  0.00    -0.360 N 
ATOM     16  H   UNL     1      -6.414   9.820  -0.058  0.00  0.00    +0.165 HD
ENDBRANCH   2  13
BRANCH   6  17
ATOM     17  C   UNL     1      -2.350   7.046  -0.020  0.00  0.00    +0.091 C 
ATOM     18  C   UNL     1      -0.863   6.927  -0.360  0.00  0.00    +0.027 C 
ATOM     19  C   UNL     1      -1.297   7.246   1.073  0.00  0.00    +0.027 C 
ENDBRANCH   6  17
ENDBRANCH   1   5
BRANCH   1  20
ATOM     20  C   UNL     1      -1.159   2.245   0.192  0.00  0.00    +0.173 C 
BRANCH  20  21
ATOM     21  C   UNL     1       0.201   1.597   0.237  0.00  0.00    +0.228 C 
ATOM     22  O   UNL     1       1.201   2.283   0.215  0.00  0.00    -0.275 OA
ATOM     23  N   UNL     1       0.306   0.254   0.298  0.00  0.00    -0.279 N 
ATOM     24  H   UNL     1      -0.494  -0.294   0.316  0.00  0.00    +0.155 HD
BRANCH  23  25
ATOM     25  C   UNL     1       1.557  -0.342   0.334  0.00  0.00    +0.084 A 
ATOM     26  C   UNL     1       1.867  -1.693   0.402  0.00  0.00    +0.068 A 
ATOM     27  C   UNL     1       3.272  -2.060   0.424  0.00  0.00    -0.023 A 
ATOM     28  C   UNL     1       4.138  -1.024   0.385  0.00  0.00    -0.004 A 
ATOM     29  S   UNL     1       3.114   0.419   0.312  0.00  0.00    -0.077 S 
ATOM     30  C   UNL     1       5.634  -1.095   0.401  0.00  0.00    +0.043 C 
ATOM     31  C   UNL     1       6.046  -2.506   0.846  0.00  0.00    +0.005 C 
ATOM     32  C   UNL     1       5.236  -3.531   0.047  0.00  0.00    +0.005 C 
ATOM     33  C   UNL     1       3.772  -3.498   0.491  0.00  0.00    +0.037 C 
BRANCH  26  34
ATOM     34  C   UNL     1       0.814  -2.713   0.445  0.00  0.00    +0.244 C 
ATOM     35  O   UNL     1       0.384  -3.188  -0.590  0.00  0.00    -0.270 OA
ATOM     36  N   UNL     1       0.323  -3.124   1.631  0.00  0.00    -0.325 N 
ATOM     37  H   UNL     1       0.666  -2.746   2.455  0.00  0.00    +0.145 HD
ATOM     38  H   UNL     1      -0.373  -3.799   1.660  0.00  0.00    +0.145 HD
ENDBRANCH  26  34
ENDBRANCH  23  25
ENDBRANCH  20  21
ENDBRANCH   1  20
TORSDOF 7
