REMARK  Name = ZINC39344846
REMARK  13 active torsions:
REMARK  status: ('A' for Active; 'I' for Inactive)
REMARK    1  A    between atoms: C_1  and  C_2
REMARK    2  A    between atoms: C_2  and  C_3
REMARK    3  A    between atoms: C_3  and  C_5
REMARK    4  A    between atoms: C_3  and  N_6
REMARK    5  A    between atoms: N_6  and  C_7
REMARK    6  A    between atoms: N_13  and  C_26
REMARK    7  A    between atoms: C_14  and  C_22
REMARK    8  A    between atoms: C_16  and  N_18
REMARK    9  A    between atoms: C_19  and  C_21
REMARK   10  A    between atoms: C_22  and  O_24
REMARK   11  A    between atoms: O_24  and  C_25
REMARK   12  A    between atoms: C_26  and  C_27
REMARK   13  A    between atoms: C_27  and  C_28
REMARK                            x       y       z     vdW  Elec       q    Type
REMARK                         _______ _______ _______ _____ _____    ______ ____
ROOT
ATOM      1  C   UNL     1      -3.476  -0.049   1.337  0.00  0.00    +0.044 A 
ATOM      2  C   UNL     1      -4.106   0.309   2.527  0.00  0.00    +0.033 A 
ATOM      3  C   UNL     1      -5.484   0.407   2.540  0.00  0.00    +0.015 A 
ATOM      4  C   UNL     1      -6.210   0.151   1.385  0.00  0.00    +0.105 A 
ATOM      5  N   UNL     1      -5.567  -0.189   0.268  0.00  0.00    -0.348 N 
ATOM      6  C   UNL     1      -4.255  -0.287   0.215  0.00  0.00    +0.107 A 
ATOM      7  N   UNL     1      -7.578   0.301   1.598  0.00  0.00    -0.301 N 
ATOM      8  C   UNL     1      -7.835   0.687   2.988  0.00  0.00    +0.208 C 
ATOM      9  C   UNL     1      -6.448   0.766   3.647  0.00  0.00    +0.138 C 
ATOM     10  H   UNL     1      -6.083  -0.366  -0.534  0.00  0.00    +0.167 HD
ENDROOT
BRANCH   9  11
ATOM     11  N   UNL     1      -6.188   2.125   4.130  0.00  0.00    -0.306 N 
ATOM     12  C   UNL     1      -5.268   2.333   5.093  0.00  0.00    +0.210 C 
ATOM     13  O   UNL     1      -4.655   1.396   5.559  0.00  0.00    -0.276 OA
ATOM     14  C   UNL     1      -5.001   3.730   5.590  0.00  0.00    +0.109 C 
ATOM     15  H   UNL     1      -6.678   2.874   3.758  0.00  0.00    +0.149 HD
ENDBRANCH   9  11
BRANCH   1  16
ATOM     16  N   UNL     1      -2.082  -0.162   1.273  0.00  0.00    -0.340 N 
ATOM     17  H   UNL     1      -1.545   0.006   2.063  0.00  0.00    +0.146 HD
BRANCH  16  18
ATOM     18  C   UNL     1      -1.433  -0.534   0.013  0.00  0.00    +0.067 C 
ATOM     19  C   UNL     1      -1.416  -2.058  -0.121  0.00  0.00    +0.028 C 
BRANCH  18  21
ATOM     20  C   UNL     1      -0.019   1.526   0.010  0.00  0.00    +0.005 C 
ATOM     21  C   UNL     1       0.002  -0.004   0.002  0.00  0.00    +0.018 C 
ENDBRANCH  18  21
ENDBRANCH  16  18
ENDBRANCH   1  16
BRANCH   8  22
ATOM     22  C   UNL     1      -8.518   2.029   3.040  0.00  0.00    +0.330 C 
ATOM     23  O   UNL     1      -8.477   2.766   2.083  0.00  0.00    -0.249 OA
BRANCH  22  24
ATOM     24  O   UNL     1      -9.173   2.406   4.149  0.00  0.00    -0.467 OA
ATOM     25  C   UNL     1      -9.798   3.691   4.129  0.00  0.00    +0.280 C 
ENDBRANCH  22  24
ENDBRANCH   8  22
BRANCH   7  26
ATOM     26  C   UNL     1      -8.612   0.103   0.578  0.00  0.00    +0.112 C 
BRANCH  26  27
ATOM     27  C   UNL     1      -9.068  -1.357   0.592  0.00  0.00    +0.056 C 
BRANCH  27  28
ATOM     28  C   UNL     1     -10.131  -1.561  -0.457  0.00  0.00    -0.021 A 
ATOM     29  C   UNL     1      -9.911  -1.846  -1.877  0.00  0.00    +0.003 A 
ATOM     30  C   UNL     1      -8.773  -2.010  -2.669  0.00  0.00    +0.010 A 
ATOM     31  C   UNL     1      -8.907  -2.276  -4.002  0.00  0.00    +0.001 A 
ATOM     32  C   UNL     1     -10.166  -2.384  -4.577  0.00  0.00    +0.002 A 
ATOM     33  C   UNL     1     -11.303  -2.225  -3.813  0.00  0.00    +0.026 A 
ATOM     34  C   UNL     1     -11.189  -1.955  -2.454  0.00  0.00    +0.047 A 
ATOM     35  N   UNL     1     -12.108  -1.750  -1.448  0.00  0.00    -0.360 N 
ATOM     36  C   UNL     1     -11.459  -1.523  -0.265  0.00  0.00    +0.087 A 
ATOM     37  H   UNL     1     -13.071  -1.767  -1.561  0.00  0.00    +0.165 HD
ENDBRANCH  27  28
ENDBRANCH  26  27
ENDBRANCH   7  26
TORSDOF 9
