REMARK  Name = ZINC03347866
REMARK  8 active torsions:
REMARK  status: ('A' for Active; 'I' for Inactive)
REMARK    1  A    between atoms: C_1  and  C_2
REMARK    2  A    between atoms: C_5  and  N_9
REMARK    3  A    between atoms: C_7  and  C_8
REMARK    4  A    between atoms: C_13  and  S_15
REMARK    5  A    between atoms: S_15  and  C_16
REMARK    6  A    between atoms: C_16  and  C_17
REMARK    7  A    between atoms: N_22  and  C_23
REMARK    8  A    between atoms: C_23  and  C_24
REMARK                            x       y       z     vdW  Elec       q    Type
REMARK                         _______ _______ _______ _____ _____    ______ ____
ROOT
ATOM      1  S   UNL     1      -7.872   1.806  -0.388  0.00  0.00    -0.088 S 
ENDROOT
BRANCH   1   6
ATOM      2  N   UNL     1      -2.454   3.823   0.046  0.00  0.00    -0.292 N 
ATOM      3  C   UNL     1      -3.648   3.118  -0.052  0.00  0.00    +0.187 A 
ATOM      4  N   UNL     1      -3.850   1.815  -0.081  0.00  0.00    -0.125 NA
ATOM      5  N   UNL     1      -5.131   1.323  -0.178  0.00  0.00    -0.133 NA
ATOM      6  C   UNL     1      -6.151   2.157  -0.252  0.00  0.00    +0.160 A 
ATOM      7  S   UNL     1      -5.320   3.736  -0.178  0.00  0.00    -0.024 S 
ATOM      8  H   UNL     1      -2.466   4.788   0.141  0.00  0.00    +0.154 HD
BRANCH   2  13
ATOM      9  C   UNL     1       2.493   1.054  -0.116  0.00  0.00    +0.044 C 
ATOM     10  C   UNL     1       1.178   1.790  -0.073  0.00  0.00    -0.047 A 
ATOM     11  C   UNL     1       1.096   3.019   0.555  0.00  0.00    +0.005 A 
ATOM     12  C   UNL     1      -0.108   3.693   0.601  0.00  0.00    +0.023 A 
ATOM     13  C   UNL     1      -1.235   3.141   0.006  0.00  0.00    +0.033 A 
ATOM     14  C   UNL     1      -1.149   1.906  -0.624  0.00  0.00    +0.027 A 
ATOM     15  C   UNL     1       0.057   1.234  -0.661  0.00  0.00    -0.046 A 
ATOM     16  C   UNL     1       0.152  -0.106  -1.345  0.00  0.00    +0.044 C 
ENDBRANCH   2  13
ENDBRANCH   1   6
BRANCH   1  17
ATOM     17  C   UNL     1      -7.951  -0.006  -0.406  0.00  0.00    +0.172 C 
BRANCH  17  18
ATOM     18  C   UNL     1      -9.388  -0.445  -0.520  0.00  0.00    +0.231 C 
ATOM     19  O   UNL     1     -10.272   0.382  -0.583  0.00  0.00    -0.274 OA
ATOM     20  N   UNL     1      -9.691  -1.758  -0.552  0.00  0.00    -0.239 N 
ATOM     21  C   UNL     1     -10.976  -2.151  -0.654  0.00  0.00    +0.306 C 
ATOM     22  O   UNL     1     -11.862  -1.321  -0.717  0.00  0.00    -0.252 OA
ATOM     23  N   UNL     1     -11.279  -3.464  -0.686  0.00  0.00    -0.292 N 
ATOM     24  H   UNL     1      -8.984  -2.421  -0.501  0.00  0.00    +0.159 HD
ATOM     25  H   UNL     1     -10.572  -4.126  -0.635  0.00  0.00    +0.151 HD
BRANCH  23  26
ATOM     26  C   UNL     1     -12.676  -3.891  -0.797  0.00  0.00    +0.180 C 
BRANCH  26  27
ATOM     27  C   UNL     1     -12.741  -5.397  -0.811  0.00  0.00    +0.122 A 
ATOM     28  C   UNL     1     -12.860  -6.189   0.269  0.00  0.00    +0.046 A 
ATOM     29  C   UNL     1     -12.882  -7.522  -0.202  0.00  0.00    +0.041 A 
ATOM     30  C   UNL     1     -12.776  -7.464  -1.542  0.00  0.00    +0.195 A 
ATOM     31  O   UNL     1     -12.697  -6.174  -1.906  0.00  0.00    -0.466 OA
ENDBRANCH  26  27
ENDBRANCH  23  26
ENDBRANCH  17  18
ENDBRANCH   1  17
TORSDOF 6
