REMARK  Name = ZINC39393656
REMARK  7 active torsions:
REMARK  status: ('A' for Active; 'I' for Inactive)
REMARK    1  A    between atoms: C_1  and  C_2
REMARK    2  A    between atoms: C_2  and  C_3
REMARK    3  A    between atoms: N_9  and  C_10
REMARK    4  A    between atoms: C_10  and  C_11
REMARK    5  A    between atoms: C_15  and  C_18
REMARK    6  A    between atoms: N_20  and  C_21
REMARK    7  A    between atoms: C_21  and  C_22
REMARK                            x       y       z     vdW  Elec       q    Type
REMARK                         _______ _______ _______ _____ _____    ______ ____
ROOT
ATOM      1  C   UNL     1      -1.138   1.955  -3.773  0.00  0.00    +0.003 A 
ATOM      2  N   UNL     1      -0.714   1.771  -5.046  0.00  0.00    -0.327 N 
ATOM      3  C   UNL     1      -1.494   2.101  -6.092  0.00  0.00    +0.261 A 
ATOM      4  O   UNL     1      -1.094   1.928  -7.231  0.00  0.00    -0.267 OA
ATOM      5  C   UNL     1      -2.782   2.651  -5.866  0.00  0.00    +0.101 A 
ATOM      6  C   UNL     1      -3.212   2.837  -4.553  0.00  0.00    +0.020 A 
ATOM      7  C   UNL     1      -2.365   2.473  -3.507  0.00  0.00    +0.020 A 
ATOM      8  H   UNL     1       0.166   1.395  -5.206  0.00  0.00    +0.169 HD
ENDROOT
BRANCH   5   9
ATOM      9  C   UNL     1      -3.648   3.018  -6.996  0.00  0.00    +0.249 C 
ATOM     10  O   UNL     1      -4.702   3.592  -6.794  0.00  0.00    -0.270 OA
ATOM     11  N   UNL     1      -3.275   2.719  -8.256  0.00  0.00    -0.309 N 
ATOM     12  H   UNL     1      -2.474   2.195  -8.413  0.00  0.00    +0.149 HD
BRANCH  11  13
ATOM     13  C   UNL     1      -4.079   3.186  -9.389  0.00  0.00    +0.138 C 
BRANCH  13  14
ATOM     14  C   UNL     1      -3.441   2.713 -10.696  0.00  0.00    +0.150 C 
ATOM     15  N   UNL     1      -3.290   1.252 -10.713  0.00  0.00    -0.330 N 
ATOM     16  C   UNL     1      -1.997   0.739 -10.800  0.00  0.00    +0.042 A 
ATOM     17  C   UNL     1      -1.658  -0.626 -10.829  0.00  0.00    +0.024 A 
ATOM     18  C   UNL     1      -0.347  -1.033 -10.916  0.00  0.00    +0.002 A 
ATOM     19  C   UNL     1       0.684  -0.113 -10.979  0.00  0.00    +0.001 A 
ATOM     20  C   UNL     1       0.380   1.238 -10.954  0.00  0.00    +0.016 A 
ATOM     21  C   UNL     1      -0.933   1.644 -10.866  0.00  0.00    +0.031 A 
ATOM     22  S   UNL     1      -1.688   3.254 -10.810  0.00  0.00    -0.099 S 
ATOM     23  H   UNL     1      -4.061   0.666 -10.665  0.00  0.00    +0.147 HD
ENDBRANCH  13  14
ENDBRANCH  11  13
ENDBRANCH   5   9
BRANCH   1  24
ATOM     24  C   UNL     1      -0.234   1.571  -2.629  0.00  0.00    -0.024 C 
BRANCH  24  30
ATOM     25  C   UNL     1       0.544  -0.388  -3.770  0.00  0.00    -0.068 C 
ATOM     26  C   UNL     1       0.734  -1.903  -3.667  0.00  0.00    -0.015 C 
ATOM     27  C   UNL     1      -0.635  -2.575  -3.526  0.00  0.00    -0.003 C 
ATOM     28  C   UNL     1      -1.354  -1.995  -2.305  0.00  0.00    -0.019 C 
ATOM     29  C   UNL     1      -1.466  -0.477  -2.459  0.00  0.00    -0.078 C 
ATOM     30  N   UNL     1      -0.124   0.108  -2.561  0.00  0.00    +0.385 N 
ATOM     31  H   UNL     1       0.417  -0.149  -1.749  0.00  0.00    -0.081 HD
BRANCH  25  33
ATOM     32  C   UNL     1       2.576  -0.174  -5.208  0.00  0.00    +0.002 C 
ATOM     33  C   UNL     1       1.910   0.288  -3.911  0.00  0.00    -0.019 C 
ENDBRANCH  25  33
ENDBRANCH  24  30
ENDBRANCH   1  24
TORSDOF 6
