REMARK  Name = ZINC59020902
REMARK  8 active torsions:
REMARK  status: ('A' for Active; 'I' for Inactive)
REMARK    1  A    between atoms: C_1  and  C_2
REMARK    2  A    between atoms: C_2  and  C_25
REMARK    3  A    between atoms: N_3  and  N_4
REMARK    4  A    between atoms: C_7  and  S_10
REMARK    5  A    between atoms: S_10  and  C_11
REMARK    6  A    between atoms: C_11  and  C_12
REMARK    7  A    between atoms: N_14  and  C_15
REMARK    8  A    between atoms: C_16  and  C_23
REMARK                            x       y       z     vdW  Elec       q    Type
REMARK                         _______ _______ _______ _____ _____    ______ ____
ROOT
ATOM      1  N   UNL     1      -1.029  -1.642   1.344  0.00  0.00    -0.205 N 
ATOM      2  C   UNL     1      -1.534  -2.008   2.578  0.00  0.00    +0.232 A 
ATOM      3  N   UNL     1      -1.485  -1.288   3.679  0.00  0.00    -0.186 NA
ATOM      4  C   UNL     1      -2.072  -1.954   4.679  0.00  0.00    +0.211 A 
ATOM      5  N   UNL     1      -2.503  -3.108   4.227  0.00  0.00    -0.144 NA
ATOM      6  N   UNL     1      -2.170  -3.164   2.864  0.00  0.00    -0.245 N 
ATOM      7  H   UNL     1      -1.118  -2.241   0.586  0.00  0.00    +0.177 HD
ATOM      8  H   UNL     1      -2.359  -3.890   2.249  0.00  0.00    +0.192 HD
ENDROOT
BRANCH   1  11
ATOM      9  C   UNL     1       0.815   1.237  -0.140  0.00  0.00    +0.068 C 
ATOM     10  C   UNL     1      -0.010  -0.015   0.009  0.00  0.00    +0.063 C 
ATOM     11  N   UNL     1      -0.389  -0.406   1.188  0.00  0.00    -0.184 NA
BRANCH  10  12
ATOM     12  C   UNL     1      -0.386  -0.797  -1.183  0.00  0.00    -0.002 A 
ATOM     13  C   UNL     1      -1.654  -1.377  -1.270  0.00  0.00    +0.011 A 
ATOM     14  C   UNL     1      -2.000  -2.106  -2.388  0.00  0.00    +0.016 A 
ATOM     15  C   UNL     1      -1.094  -2.264  -3.423  0.00  0.00    +0.018 A 
ATOM     16  C   UNL     1       0.165  -1.692  -3.343  0.00  0.00    +0.016 A 
ATOM     17  C   UNL     1       0.522  -0.956  -2.233  0.00  0.00    +0.011 A 
ATOM     18 BR   UNL     1      -1.577  -3.267  -4.952  0.00  0.00    -0.050 Br
ENDBRANCH  10  12
ENDBRANCH   1  11
BRANCH   4  19
ATOM     19  S   UNL     1      -2.239  -1.377   6.335  0.00  0.00    -0.075 S 
BRANCH  19  20
ATOM     20  C   UNL     1      -3.111  -2.722   7.183  0.00  0.00    +0.173 C 
BRANCH  20  21
ATOM     21  C   UNL     1      -3.321  -2.352   8.629  0.00  0.00    +0.228 C 
ATOM     22  O   UNL     1      -2.922  -1.285   9.046  0.00  0.00    -0.275 OA
ATOM     23  N   UNL     1      -3.952  -3.206   9.459  0.00  0.00    -0.278 N 
ATOM     24  H   UNL     1      -4.271  -4.060   9.125  0.00  0.00    +0.155 HD
BRANCH  23  25
ATOM     25  C   UNL     1      -4.146  -2.865  10.790  0.00  0.00    +0.090 A 
ATOM     26  C   UNL     1      -4.761  -3.611  11.777  0.00  0.00    +0.084 A 
ATOM     27  C   UNL     1      -4.838  -3.022  13.113  0.00  0.00    -0.018 A 
ATOM     28  C   UNL     1      -4.286  -1.798  13.205  0.00  0.00    -0.004 A 
ATOM     29  S   UNL     1      -3.680  -1.456  11.572  0.00  0.00    -0.077 S 
ATOM     30  C   UNL     1      -4.396  -1.236  14.596  0.00  0.00    +0.043 C 
ATOM     31  C   UNL     1      -5.480  -2.099  15.281  0.00  0.00    +0.010 C 
ATOM     32  C   UNL     1      -5.385  -3.416  14.483  0.00  0.00    +0.037 C 
BRANCH  26  33
ATOM     33  C   UNL     1      -5.301  -4.909  11.503  0.00  0.00    +0.102 C 
ATOM     34  N   UNL     1      -5.729  -5.938  11.286  0.00  0.00    -0.191 NA
ENDBRANCH  26  33
ENDBRANCH  23  25
ENDBRANCH  20  21
ENDBRANCH  19  20
ENDBRANCH   4  19
TORSDOF 7
