REMARK  Name = ZINC13038269
REMARK  10 active torsions:
REMARK  status: ('A' for Active; 'I' for Inactive)
REMARK    1  A    between atoms: C_1  and  C_2
REMARK    2  A    between atoms: C_2  and  C_3
REMARK    3  A    between atoms: C_4  and  C_27
REMARK    4  A    between atoms: C_15  and  C_17
REMARK    5  A    between atoms: C_17  and  O_18
REMARK    6  A    between atoms: O_18  and  C_19
REMARK    7  A    between atoms: C_24  and  C_25
REMARK    8  A    between atoms: C_27  and  O_29
REMARK    9  A    between atoms: O_29  and  C_30
REMARK   10  A    between atoms: C_30  and  C_31
REMARK                            x       y       z     vdW  Elec       q    Type
REMARK                         _______ _______ _______ _____ _____    ______ ____
ROOT
ATOM      1  C   UNL     1      -2.467  -2.721   0.121  0.00  0.00    +0.025 C 
ATOM      2  C   UNL     1      -1.256  -2.103  -0.082  0.00  0.00    +0.116 C 
ATOM      3  C   UNL     1      -0.017  -2.873  -0.211  0.00  0.00    +0.141 C 
ATOM      4  N   UNL     1       0.299  -3.918   0.473  0.00  0.00    -0.230 NA
ATOM      5  C   UNL     1      -0.434  -4.508   1.462  0.00  0.00    +0.087 A 
ATOM      6  C   UNL     1       0.221  -4.994   2.596  0.00  0.00    +0.030 A 
ATOM      7  C   UNL     1      -0.496  -5.631   3.591  0.00  0.00    +0.002 A 
ATOM      8  C   UNL     1      -1.862  -5.795   3.469  0.00  0.00    +0.002 A 
ATOM      9  C   UNL     1      -2.524  -5.303   2.355  0.00  0.00    +0.025 A 
ATOM     10  C   UNL     1      -1.821  -4.645   1.362  0.00  0.00    +0.057 A 
ATOM     11  N   UNL     1      -2.524  -4.071   0.287  0.00  0.00    -0.315 N 
ATOM     12  N   UNL     1       0.897  -2.438  -1.152  0.00  0.00    -0.267 N 
ATOM     13  C   UNL     1       2.057  -3.103  -1.321  0.00  0.00    +0.256 C 
ATOM     14  O   UNL     1       2.299  -4.081  -0.648  0.00  0.00    -0.272 OA
ATOM     15  H   UNL     1      -3.039  -4.625  -0.320  0.00  0.00    +0.152 HD
ATOM     16  H   UNL     1       0.703  -1.655  -1.691  0.00  0.00    +0.156 HD
ENDROOT
BRANCH   1  18
ATOM     17  C   UNL     1      -4.390  -1.925  -1.227  0.00  0.00    +0.010 C 
ATOM     18  C   UNL     1      -3.733  -1.905   0.155  0.00  0.00    +0.048 C 
ENDBRANCH   1  18
BRANCH   2  19
ATOM     19  C   UNL     1      -1.203  -0.643  -0.164  0.00  0.00    +0.344 C 
ATOM     20  O   UNL     1      -0.832   0.008   0.795  0.00  0.00    -0.245 OA
BRANCH  19  21
ATOM     21  O   UNL     1      -1.565  -0.018  -1.304  0.00  0.00    -0.461 OA
BRANCH  21  22
ATOM     22  C   UNL     1      -1.489   1.409  -1.314  0.00  0.00    +0.229 C 
ATOM     23  C   UNL     1      -1.936   1.934  -2.679  0.00  0.00    +0.048 C 
ENDBRANCH  21  22
ENDBRANCH  19  21
ENDBRANCH   2  19
BRANCH  13  24
ATOM     24  C   UNL     1       3.054  -2.629  -2.348  0.00  0.00    +0.324 C 
BRANCH  24  25
ATOM     25  O   UNL     1       4.194  -3.491  -2.338  0.00  0.00    -0.482 OA
BRANCH  25  26
ATOM     26  C   UNL     1       5.194  -3.201  -3.212  0.00  0.00    +0.124 A 
ATOM     27  C   UNL     1       5.080  -2.110  -4.061  0.00  0.00    +0.047 A 
ATOM     28  C   UNL     1       6.098  -1.817  -4.948  0.00  0.00    +0.023 A 
ATOM     29  C   UNL     1       7.230  -2.611  -4.989  0.00  0.00    +0.041 A 
ATOM     30  C   UNL     1       7.346  -3.699  -4.144  0.00  0.00    +0.027 A 
ATOM     31  C   UNL     1       6.332  -3.992  -3.251  0.00  0.00    -0.007 A 
ATOM     32  C   UNL     1       6.461  -5.175  -2.325  0.00  0.00    +0.047 C 
ATOM     33 CL   UNL     1       8.508  -2.240  -6.105  0.00  0.00    -0.084 Cl
ENDBRANCH  25  26
ENDBRANCH  24  25
ENDBRANCH  13  24
TORSDOF 7
