REMARK  Name = ZINC39464280
REMARK  6 active torsions:
REMARK  status: ('A' for Active; 'I' for Inactive)
REMARK    1  A    between atoms: C_4  and  O_37
REMARK    2  A    between atoms: C_5  and  C_7
REMARK    3  A    between atoms: C_12  and  C_13
REMARK    4  A    between atoms: C_18  and  O_19
REMARK    5  A    between atoms: P_24  and  C_30
REMARK    6  A    between atoms: C_35  and  O_36
REMARK                            x       y       z     vdW  Elec       q    Type
REMARK                         _______ _______ _______ _____ _____    ______ ____
ROOT
ATOM      1  C   UNL     1       1.245  -2.164  -0.022  0.00  0.00    -0.006 A 
ATOM      2  C   UNL     1       0.745  -2.869  -1.112  0.00  0.00    +0.013 A 
ATOM      3  C   UNL     1       0.768  -4.253  -1.122  0.00  0.00    -0.041 A 
ATOM      4  C   UNL     1       1.288  -4.949  -0.048  0.00  0.00    -0.023 A 
ATOM      5  C   UNL     1       1.791  -4.260   1.045  0.00  0.00    +0.014 A 
ATOM      6  C   UNL     1       1.781  -2.870   1.067  0.00  0.00    -0.006 A 
ATOM      7  C   UNL     1       1.330  -6.455  -0.016  0.00  0.00    +0.129 C 
ATOM      8  C   UNL     1       2.683  -6.904   0.543  0.00  0.00    +0.194 C 
ATOM      9  O   UNL     1       2.672  -8.339   0.681  0.00  0.00    -0.311 OA
ATOM     10  P   UNL     1       2.193  -9.232  -0.591  0.00  0.00    +0.318 P 
ATOM     11  O   UNL     1       3.308  -9.389  -1.552  0.00  0.00    -0.266 OA
ATOM     12  N   UNL     1       0.954  -8.388  -1.286  0.00  0.00    -0.175 NA
ATOM     13  N   UNL     1       1.117  -7.019  -1.349  0.00  0.00    -0.225 NA
ATOM     14  C   UNL     1      -0.065  -6.421  -1.989  0.00  0.00    +0.108 C 
ATOM     15  C   UNL     1       0.214  -4.969  -2.328  0.00  0.00    +0.052 C 
ATOM     16  H   UNL     1       0.166  -8.834  -1.636  0.00  0.00    +0.151 HD
ENDROOT
BRANCH   1  21
ATOM     17  C   UNL     1      -0.017   1.376   0.010  0.00  0.00    +0.001 A 
ATOM     18  C   UNL     1       1.169   2.089   0.002  0.00  0.00    +0.004 A 
ATOM     19  C   UNL     1       2.382   1.426  -0.013  0.00  0.00    +0.046 A 
ATOM     20  C   UNL     1       2.416   0.041  -0.021  0.00  0.00    +0.125 A 
ATOM     21  C   UNL     1       1.219  -0.683  -0.013  0.00  0.00    +0.024 A 
ATOM     22  C   UNL     1       0.002  -0.004   0.002  0.00  0.00    +0.012 A 
BRANCH  20  23
ATOM     23  O   UNL     1       3.607  -0.611  -0.037  0.00  0.00    -0.506 OA
ATOM     24  H   UNL     1       3.961  -0.805   0.842  0.00  0.00    +0.292 HD
ENDBRANCH  20  23
ENDBRANCH   1  21
BRANCH   6  25
ATOM     25  C   UNL     1       2.327  -2.139   2.235  0.00  0.00    +0.024 A 
ATOM     26  C   UNL     1       3.687  -2.213   2.534  0.00  0.00    +0.012 A 
ATOM     27  C   UNL     1       4.190  -1.530   3.622  0.00  0.00    +0.001 A 
ATOM     28  C   UNL     1       3.350  -0.771   4.418  0.00  0.00    +0.004 A 
ATOM     29  C   UNL     1       2.001  -0.691   4.131  0.00  0.00    +0.046 A 
ATOM     30  C   UNL     1       1.482  -1.367   3.038  0.00  0.00    +0.125 A 
BRANCH  30  31
ATOM     31  O   UNL     1       0.157  -1.284   2.751  0.00  0.00    -0.506 OA
ATOM     32  H   UNL     1      -0.382  -1.962   3.181  0.00  0.00    +0.292 HD
ENDBRANCH  30  31
ENDBRANCH   6  25
BRANCH  10  33
ATOM     33  C   UNL     1       1.614 -10.858  -0.033  0.00  0.00    +0.094 A 
ATOM     34  C   UNL     1       0.283 -11.045   0.286  0.00  0.00    +0.018 A 
ATOM     35  C   UNL     1      -0.159 -12.284   0.712  0.00  0.00    +0.001 A 
ATOM     36  C   UNL     1       0.729 -13.339   0.819  0.00  0.00    +0.004 A 
ATOM     37  C   UNL     1       2.060 -13.157   0.500  0.00  0.00    +0.046 A 
ATOM     38  C   UNL     1       2.506 -11.916   0.068  0.00  0.00    +0.131 A 
BRANCH  38  39
ATOM     39  O   UNL     1       3.814 -11.736  -0.252  0.00  0.00    -0.506 OA
ATOM     40  H   UNL     1       4.366 -11.458   0.492  0.00  0.00    +0.292 HD
ENDBRANCH  38  39
ENDBRANCH  10  33
TORSDOF 6
