REMARK  Name = ZINC60041178
REMARK  11 active torsions:
REMARK  status: ('A' for Active; 'I' for Inactive)
REMARK    1  A    between atoms: C_1  and  C_2
REMARK    2  A    between atoms: C_2  and  C_3
REMARK    3  A    between atoms: C_3  and  C_4
REMARK    4  A    between atoms: C_4  and  N_5
REMARK    5  A    between atoms: C_6  and  C_8
REMARK    6  A    between atoms: C_12  and  C_28
REMARK    7  A    between atoms: N_14  and  C_16
REMARK    8  A    between atoms: C_16  and  C_17
REMARK    9  A    between atoms: N_19  and  C_20
REMARK   10  A    between atoms: C_25  and  C_26
REMARK   11  A    between atoms: C_26  and  C_27
REMARK                            x       y       z     vdW  Elec       q    Type
REMARK                         _______ _______ _______ _____ _____    ______ ____
ROOT
ATOM      1  C   UNL     1       2.274  -4.307  -3.949  0.00  0.00    +0.058 C 
ATOM      2  C   UNL     1       1.543  -3.802  -5.197  0.00  0.00    +0.009 C 
ATOM      3  C   UNL     1       2.231  -4.366  -6.443  0.00  0.00    -0.015 C 
ATOM      4  C   UNL     1       2.250  -5.894  -6.361  0.00  0.00    -0.071 C 
ATOM      5  N   UNL     1       2.985  -6.314  -5.162  0.00  0.00    +0.388 N 
ATOM      6  C   UNL     1       2.292  -5.837  -3.959  0.00  0.00    -0.065 C 
ATOM      7  C   UNL     1       2.937  -6.463  -7.604  0.00  0.00    -0.013 C 
ATOM      8  H   UNL     1       3.917  -5.927  -5.187  0.00  0.00    -0.081 HD
ENDROOT
BRANCH   1  10
ATOM      9  N   UNL     1       1.419  -2.498  -2.495  0.00  0.00    -0.315 N 
ATOM     10  C   UNL     1       1.559  -3.820  -2.715  0.00  0.00    +0.214 C 
ATOM     11  O   UNL     1       1.109  -4.618  -1.920  0.00  0.00    -0.276 OA
ATOM     12  H   UNL     1       1.778  -1.859  -3.131  0.00  0.00    +0.149 HD
BRANCH   9  13
ATOM     13  C   UNL     1       0.723  -2.024  -1.296  0.00  0.00    +0.104 C 
BRANCH  13  14
ATOM     14  C   UNL     1       0.704  -0.495  -1.288  0.00  0.00    +0.018 C 
BRANCH  14  16
ATOM     15  C   UNL     1      -0.042   1.530  -0.027  0.00  0.00    +0.004 C 
ATOM     16  C   UNL     1      -0.022  -0.000  -0.035  0.00  0.00    -0.002 C 
ENDBRANCH  14  16
ENDBRANCH  13  14
ENDBRANCH   9  13
ENDBRANCH   1  10
BRANCH   5  17
ATOM     17  C   UNL     1       3.068  -7.780  -5.128  0.00  0.00    +0.019 C 
BRANCH  17  18
ATOM     18  C   UNL     1       3.926  -8.209  -3.966  0.00  0.00    +0.201 C 
ATOM     19  O   UNL     1       4.420  -7.375  -3.237  0.00  0.00    -0.278 OA
ATOM     20  N   UNL     1       4.144  -9.519  -3.736  0.00  0.00    -0.287 N 
ATOM     21  H   UNL     1       3.686 -10.187  -4.269  0.00  0.00    +0.155 HD
BRANCH  20  22
ATOM     22  C   UNL     1       5.032  -9.914  -2.730  0.00  0.00    +0.036 A 
ATOM     23  C   UNL     1       6.049  -9.059  -2.323  0.00  0.00    +0.023 A 
ATOM     24  C   UNL     1       6.924  -9.452  -1.330  0.00  0.00    +0.002 A 
ATOM     25  C   UNL     1       6.789 -10.696  -0.740  0.00  0.00    +0.000 A 
ATOM     26  C   UNL     1       5.778 -11.549  -1.142  0.00  0.00    +0.005 A 
ATOM     27  C   UNL     1       4.896 -11.159  -2.131  0.00  0.00    -0.026 A 
BRANCH  27  28
ATOM     28  C   UNL     1       3.790 -12.087  -2.564  0.00  0.00    +0.033 C 
ATOM     29  C   UNL     1       4.245 -12.888  -3.785  0.00  0.00    +0.009 C 
ENDBRANCH  27  28
ENDBRANCH  20  22
ENDBRANCH  17  18
ENDBRANCH   5  17
TORSDOF 8
