REMARK  Name = ZINC05343877
REMARK  6 active torsions:
REMARK  status: ('A' for Active; 'I' for Inactive)
REMARK    1  A    between atoms: C_4  and  O_33
REMARK    2  A    between atoms: C_5  and  C_7
REMARK    3  A    between atoms: N_15  and  C_25
REMARK    4  A    between atoms: C_16  and  C_18
REMARK    5  A    between atoms: C_21  and  O_24
REMARK    6  A    between atoms: C_25  and  C_26
REMARK                            x       y       z     vdW  Elec       q    Type
REMARK                         _______ _______ _______ _____ _____    ______ ____
ROOT
ATOM      1  C   UNL     1       1.347  -2.467   0.163  0.00  0.00    +0.102 A 
ATOM      2  C   UNL     1       0.145  -3.184   0.163  0.00  0.00    +0.035 A 
ATOM      3  C   UNL     1       0.501  -4.516   0.081  0.00  0.00    +0.126 A 
ATOM      4  N   UNL     1       1.866  -4.542   0.036  0.00  0.00    -0.272 N 
ATOM      5  H   UNL     1       2.406  -5.346  -0.024  0.00  0.00    +0.189 HD
ATOM      6  N   UNL     1       2.329  -3.344   0.080  0.00  0.00    -0.173 NA
ATOM      7  C   UNL     1      -0.722  -5.327   0.077  0.00  0.00    +0.266 C 
ATOM      8  O   UNL     1      -0.750  -6.541   0.013  0.00  0.00    -0.268 OA
ATOM      9  N   UNL     1      -1.808  -4.536   0.154  0.00  0.00    -0.281 N 
ATOM     10  C   UNL     1      -1.357  -3.139   0.213  0.00  0.00    +0.142 C 
ENDROOT
BRANCH   1  15
ATOM     11  C   UNL     1       0.838   1.200  -0.494  0.00  0.00    +0.001 A 
ATOM     12  C   UNL     1       1.758   1.764   0.372  0.00  0.00    +0.004 A 
ATOM     13  C   UNL     1       2.546   0.959   1.172  0.00  0.00    +0.046 A 
ATOM     14  C   UNL     1       2.419  -0.419   1.111  0.00  0.00    +0.126 A 
ATOM     15  C   UNL     1       1.490  -0.992   0.236  0.00  0.00    +0.044 A 
ATOM     16  C   UNL     1       0.701  -0.172  -0.566  0.00  0.00    +0.014 A 
BRANCH  14  17
ATOM     17  O   UNL     1       3.194  -1.212   1.896  0.00  0.00    -0.506 OA
ATOM     18  H   UNL     1       2.804  -1.413   2.758  0.00  0.00    +0.292 HD
ENDBRANCH  14  17
ENDBRANCH   1  15
BRANCH  10  19
ATOM     19  C   UNL     1      -1.815  -2.502   1.500  0.00  0.00    -0.022 A 
ATOM     20  C   UNL     1      -1.591  -3.142   2.705  0.00  0.00    +0.009 A 
ATOM     21  C   UNL     1      -2.010  -2.560   3.886  0.00  0.00    +0.046 A 
ATOM     22  C   UNL     1      -2.655  -1.333   3.862  0.00  0.00    +0.117 A 
ATOM     23  C   UNL     1      -2.878  -0.692   2.652  0.00  0.00    +0.046 A 
ATOM     24  C   UNL     1      -2.453  -1.276   1.474  0.00  0.00    +0.009 A 
BRANCH  22  25
ATOM     25  O   UNL     1      -3.069  -0.758   5.022  0.00  0.00    -0.507 OA
ATOM     26  H   UNL     1      -2.410  -0.181   5.432  0.00  0.00    +0.292 HD
ENDBRANCH  22  25
ENDBRANCH  10  19
BRANCH   9  27
ATOM     27  C   UNL     1      -3.200  -4.991   0.174  0.00  0.00    +0.144 C 
BRANCH  27  28
ATOM     28  C   UNL     1      -3.632  -5.221   1.599  0.00  0.00    -0.030 A 
ATOM     29  C   UNL     1      -3.455  -6.462   2.183  0.00  0.00    +0.008 A 
ATOM     30  C   UNL     1      -3.850  -6.675   3.490  0.00  0.00    +0.038 A 
ATOM     31  C   UNL     1      -4.424  -5.644   4.215  0.00  0.00    +0.123 A 
ATOM     32  C   UNL     1      -4.601  -4.402   3.630  0.00  0.00    +0.038 A 
ATOM     33  C   UNL     1      -4.200  -4.190   2.324  0.00  0.00    +0.008 A 
ATOM     34  F   UNL     1      -4.812  -5.851   5.493  0.00  0.00    -0.205 F 
ENDBRANCH  27  28
ENDBRANCH   9  27
TORSDOF 6
