REMARK  Name = ZINC13100778
REMARK  10 active torsions:
REMARK  status: ('A' for Active; 'I' for Inactive)
REMARK    1  A    between atoms: C_1  and  C_2
REMARK    2  A    between atoms: C_2  and  N_3
REMARK    3  A    between atoms: N_3  and  C_4
REMARK    4  A    between atoms: C_4  and  C_5
REMARK    5  A    between atoms: C_6  and  C_8
REMARK    6  A    between atoms: C_9  and  C_26
REMARK    7  A    between atoms: C_14  and  C_16
REMARK    8  A    between atoms: C_18  and  O_24
REMARK    9  A    between atoms: C_19  and  O_23
REMARK   10  A    between atoms: O_24  and  C_25
REMARK                            x       y       z     vdW  Elec       q    Type
REMARK                         _______ _______ _______ _____ _____    ______ ____
ROOT
ATOM      1  C   UNL     1       0.822   1.819  -0.276  0.00  0.00    +0.056 C 
ATOM      2  C   UNL     1      -0.350   1.206  -0.007  0.00  0.00    +0.017 C 
ATOM      3  N   UNL     1      -0.392  -0.115   0.339  0.00  0.00    -0.300 N 
ATOM      4  C   UNL     1       0.695  -0.891   0.438  0.00  0.00    +0.135 C 
ATOM      5  S   UNL     1       0.501  -2.533   0.882  0.00  0.00    -0.019 S 
ATOM      6  N   UNL     1       1.935  -0.422   0.201  0.00  0.00    -0.315 N 
ATOM      7  C   UNL     1       2.089   0.992  -0.180  0.00  0.00    +0.139 C 
ATOM      8  C   UNL     1      -1.634   1.990  -0.097  0.00  0.00    +0.061 C 
ATOM      9  H   UNL     1      -1.257  -0.512   0.523  0.00  0.00    +0.154 HD
ATOM     10  H   UNL     1       2.709  -1.002   0.278  0.00  0.00    +0.149 HD
ENDROOT
BRANCH   7  11
ATOM     11  C   UNL     1       2.777   1.041  -1.520  0.00  0.00    -0.018 A 
ATOM     12  C   UNL     1       3.830   1.913  -1.723  0.00  0.00    +0.055 A 
ATOM     13  C   UNL     1       4.468   1.956  -2.952  0.00  0.00    +0.163 A 
ATOM     14  C   UNL     1       4.039   1.127  -3.984  0.00  0.00    +0.177 A 
ATOM     15  C   UNL     1       2.979   0.259  -3.776  0.00  0.00    +0.086 A 
ATOM     16  C   UNL     1       2.350   0.218  -2.545  0.00  0.00    +0.029 A 
ATOM     17 CL   UNL     1       2.440  -0.777  -5.061  0.00  0.00    -0.080 Cl
BRANCH  14  18
ATOM     18  O   UNL     1       4.659   1.169  -5.194  0.00  0.00    -0.502 OA
ATOM     19  H   UNL     1       4.274   1.806  -5.812  0.00  0.00    +0.292 HD
ENDBRANCH  14  18
BRANCH  13  20
ATOM     20  O   UNL     1       5.508   2.809  -3.151  0.00  0.00    -0.491 OA
ATOM     21  C   UNL     1       5.894   3.630  -2.047  0.00  0.00    +0.277 C 
ENDBRANCH  13  20
ENDBRANCH   7  11
BRANCH   1  23
ATOM     22  N   UNL     1       0.861   4.137   0.322  0.00  0.00    -0.298 N 
ATOM     23  C   UNL     1       0.867   3.188  -0.635  0.00  0.00    +0.246 C 
ATOM     24  O   UNL     1       0.911   3.508  -1.810  0.00  0.00    -0.270 OA
BRANCH  22  26
ATOM     25  C   UNL     1      -0.662   5.995  -0.138  0.00  0.00    +0.024 C 
ATOM     26  C   UNL     1       0.800   5.553  -0.050  0.00  0.00    +0.104 C 
ENDBRANCH  22  26
BRANCH  22  27
ATOM     27  C   UNL     1       0.916   3.753   1.734  0.00  0.00    +0.104 C 
ATOM     28  C   UNL     1       2.373   3.727   2.200  0.00  0.00    +0.024 C 
ENDBRANCH  22  27
ENDBRANCH   1  23
TORSDOF 6
