REMARK  Name = ZINC63985519
REMARK  11 active torsions:
REMARK  status: ('A' for Active; 'I' for Inactive)
REMARK    1  A    between atoms: C_1  and  C_2
REMARK    2  A    between atoms: C_2  and  C_3
REMARK    3  A    between atoms: C_2  and  C_4
REMARK    4  A    between atoms: C_4  and  C_5
REMARK    5  A    between atoms: C_5  and  N_6
REMARK    6  A    between atoms: N_9  and  C_29
REMARK    7  A    between atoms: N_15  and  C_18
REMARK    8  A    between atoms: C_18  and  C_19
REMARK    9  A    between atoms: C_29  and  C_30
REMARK   10  A    between atoms: C_30  and  C_31
REMARK   11  A    between atoms: C_31  and  C_32
REMARK                            x       y       z     vdW  Elec       q    Type
REMARK                         _______ _______ _______ _____ _____    ______ ____
ROOT
ATOM      1  N   UNL     1      -2.760  -2.630  -0.014  0.00  0.00    -0.271 N 
ATOM      2  C   UNL     1      -3.414  -2.947   1.120  0.00  0.00    +0.312 C 
ATOM      3  O   UNL     1      -2.950  -2.793   2.233  0.00  0.00    -0.252 OA
ATOM      4  N   UNL     1      -4.631  -3.453   0.884  0.00  0.00    -0.224 N 
ATOM      5  C   UNL     1      -4.894  -3.515  -0.438  0.00  0.00    +0.247 C 
ATOM      6  O   UNL     1      -5.907  -3.922  -0.966  0.00  0.00    -0.273 OA
ATOM      7  C   UNL     1      -3.664  -2.964  -1.121  0.00  0.00    +0.112 C 
ATOM      8  C   UNL     1      -4.012  -1.716  -1.925  0.00  0.00    +0.017 C 
ATOM      9  C   UNL     1      -2.757  -1.212  -2.644  0.00  0.00    -0.076 C 
ATOM     10  N   UNL     1      -2.243  -2.263  -3.531  0.00  0.00    +0.381 N 
ATOM     11  C   UNL     1      -1.824  -3.425  -2.738  0.00  0.00    -0.076 C 
ATOM     12  C   UNL     1      -3.039  -4.023  -2.023  0.00  0.00    +0.017 C 
ATOM     13  H   UNL     1      -2.967  -2.541  -4.176  0.00  0.00    -0.082 HD
ENDROOT
BRANCH   1  14
ATOM     14  C   UNL     1      -1.416  -2.058  -0.121  0.00  0.00    +0.110 C 
BRANCH  14  15
ATOM     15  C   UNL     1      -1.414  -0.646   0.468  0.00  0.00    +0.022 C 
BRANCH  15  17
ATOM     16  C   UNL     1      -0.083   1.454   0.714  0.00  0.00    +0.007 C 
ATOM     17  C   UNL     1      -0.046   0.001   0.238  0.00  0.00    -0.016 C 
ATOM     18  C   UNL     1       1.019  -0.766   1.023  0.00  0.00    +0.007 C 
ENDBRANCH  15  17
ENDBRANCH  14  15
ENDBRANCH   1  14
BRANCH  10  19
ATOM     19  C   UNL     1      -1.093  -1.746  -4.285  0.00  0.00    -0.050 C 
BRANCH  19  20
ATOM     20  C   UNL     1      -0.634  -2.796  -5.298  0.00  0.00    +0.086 C 
ATOM     21  C   UNL     1       0.428  -2.216  -6.205  0.00  0.00    +0.005 C 
ATOM     22  C   UNL     1      -0.075  -2.279  -7.459  0.00  0.00    -0.004 A 
ATOM     23  C   UNL     1       0.460  -1.879  -8.766  0.00  0.00    +0.010 A 
ATOM     24  C   UNL     1      -0.296  -2.071  -9.871  0.00  0.00    +0.001 A 
ATOM     25  C   UNL     1      -1.575  -2.641  -9.799  0.00  0.00    +0.002 A 
ATOM     26  C   UNL     1      -2.134  -3.033  -8.635  0.00  0.00    +0.026 A 
ATOM     27  C   UNL     1      -1.428  -2.878  -7.410  0.00  0.00    +0.043 A 
ATOM     28  N   UNL     1      -1.749  -3.176  -6.173  0.00  0.00    -0.380 N 
ATOM     29  H   UNL     1      -2.583  -3.579  -5.885  0.00  0.00    +0.160 HD
ENDBRANCH  19  20
ENDBRANCH  10  19
BRANCH   4  30
ATOM     30  C   UNL     1      -5.561  -3.884   1.930  0.00  0.00    +0.118 C 
BRANCH  30  31
ATOM     31  C   UNL     1      -6.446  -2.706   2.343  0.00  0.00    +0.024 C 
BRANCH  31  32
ATOM     32  C   UNL     1      -7.417  -3.156   3.436  0.00  0.00    +0.037 C 
BRANCH  32  33
ATOM     33  C   UNL     1      -8.288  -1.996   3.843  0.00  0.00    -0.044 A 
ATOM     34  C   UNL     1      -7.901  -1.141   4.864  0.00  0.00    +0.023 A 
ATOM     35  C   UNL     1      -8.726  -0.087   5.209  0.00  0.00    +0.111 A 
ATOM     36  N   UNL     1      -9.869   0.108   4.581  0.00  0.00    -0.263 NA
ATOM     37  C   UNL     1     -10.270  -0.685   3.607  0.00  0.00    +0.111 A 
ATOM     38  C   UNL     1      -9.494  -1.755   3.202  0.00  0.00    +0.023 A 
ENDBRANCH  32  33
ENDBRANCH  31  32
ENDBRANCH  30  31
ENDBRANCH   4  30
TORSDOF 9
