REMARK  Name = ZINC36569671
REMARK  5 active torsions:
REMARK  status: ('A' for Active; 'I' for Inactive)
REMARK    1  A    between atoms: C_1  and  C_2
REMARK    2  A    between atoms: C_2  and  C_4
REMARK    3  A    between atoms: C_2  and  N_17
REMARK    4  A    between atoms: C_4  and  N_6
REMARK    5  A    between atoms: C_18  and  C_20
REMARK                            x       y       z     vdW  Elec       q    Type
REMARK                         _______ _______ _______ _____ _____    ______ ____
ROOT
ATOM      1  C   UNL     1      -0.023   1.511   0.001  0.00  0.00    +0.038 C 
ATOM      2  C   UNL     1      -0.011  -0.019   0.002  0.00  0.00    +0.158 C 
ENDROOT
BRANCH   2   3
ATOM      3  N   UNL     1       0.665  -0.503  -1.204  0.00  0.00    -0.301 N 
ATOM      4  C   UNL     1      -0.024  -0.638  -2.354  0.00  0.00    +0.258 C 
ATOM      5  O   UNL     1      -1.203  -0.359  -2.391  0.00  0.00    -0.272 OA
ATOM      6  H   UNL     1       1.609  -0.726  -1.174  0.00  0.00    +0.150 HD
BRANCH   4   7
ATOM      7  C   UNL     1       0.672  -1.137  -3.595  0.00  0.00    +0.296 C 
ATOM      8  C   UNL     1       1.119  -2.590  -3.389  0.00  0.00    +0.283 C 
ATOM      9  O   UNL     1       1.762  -3.035  -4.588  0.00  0.00    -0.484 OA
ATOM     10  C   UNL     1       1.131  -2.755  -5.761  0.00  0.00    +0.162 A 
ATOM     11  C   UNL     1       1.486  -3.449  -6.908  0.00  0.00    +0.049 A 
ATOM     12  C   UNL     1       0.856  -3.173  -8.107  0.00  0.00    +0.004 A 
ATOM     13  C   UNL     1      -0.130  -2.206  -8.166  0.00  0.00    +0.004 A 
ATOM     14  C   UNL     1      -0.490  -1.512  -7.026  0.00  0.00    +0.049 A 
ATOM     15  C   UNL     1       0.138  -1.784  -5.819  0.00  0.00    +0.163 A 
ATOM     16  O   UNL     1      -0.233  -1.098  -4.704  0.00  0.00    -0.473 OA
ENDBRANCH   4   7
ENDBRANCH   2   3
BRANCH   2  17
ATOM     17  C   UNL     1       0.722  -0.514   1.222  0.00  0.00    +0.258 C 
ATOM     18  O   UNL     1       1.715  -1.205   1.097  0.00  0.00    -0.272 OA
BRANCH  17  19
ATOM     19  N   UNL     1       0.284  -0.195   2.436  0.00  0.00    -0.155 NA
ATOM     20  C   UNL     1       0.868  -0.717   3.513  0.00  0.00    +0.164 A 
ATOM     21  N   UNL     1       1.980  -1.493   3.563  0.00  0.00    -0.335 N 
ATOM     22  H   UNL     1       2.446  -1.728   2.745  0.00  0.00    +0.168 HD
ATOM     23  C   UNL     1       2.446  -1.948   4.782  0.00  0.00    +0.055 A 
ATOM     24  C   UNL     1       3.561  -2.752   5.059  0.00  0.00    +0.027 A 
ATOM     25  C   UNL     1       3.866  -3.103   6.353  0.00  0.00    +0.002 A 
ATOM     26  C   UNL     1       3.085  -2.677   7.415  0.00  0.00    +0.001 A 
ATOM     27  C   UNL     1       1.980  -1.883   7.168  0.00  0.00    +0.017 A 
ATOM     28  C   UNL     1       1.674  -1.530   5.875  0.00  0.00    +0.039 A 
ATOM     29  S   UNL     1       0.399  -0.556   5.119  0.00  0.00    -0.052 S 
ENDBRANCH  17  19
ENDBRANCH   2  17
TORSDOF 4
