REMARK  Name = ZINC34798122
REMARK  7 active torsions:
REMARK  status: ('A' for Active; 'I' for Inactive)
REMARK    1  A    between atoms: C_3  and  C_6
REMARK    2  A    between atoms: C_6  and  C_8
REMARK    3  A    between atoms: C_6  and  N_29
REMARK    4  A    between atoms: C_8  and  N_9
REMARK    5  A    between atoms: C_10  and  C_12
REMARK    6  A    between atoms: N_17  and  S_19
REMARK    7  A    between atoms: S_19  and  C_22
REMARK                            x       y       z     vdW  Elec       q    Type
REMARK                         _______ _______ _______ _____ _____    ______ ____
ROOT
ATOM      1  N   UNL     1       5.570   0.024  -1.357  0.00  0.00    -0.316 N 
ATOM      2  C   UNL     1       6.234  -0.409  -2.448  0.00  0.00    +0.217 C 
ATOM      3  O   UNL     1       5.635  -0.605  -3.484  0.00  0.00    -0.275 OA
ATOM      4  H   UNL     1       6.049   0.180  -0.529  0.00  0.00    +0.149 HD
ENDROOT
BRANCH   2   5
ATOM      5  C   UNL     1       7.720  -0.652  -2.379  0.00  0.00    +0.091 C 
ATOM      6  C   UNL     1       8.015  -1.717  -1.320  0.00  0.00    +0.015 C 
ATOM      7  C   UNL     1       9.526  -1.940  -1.226  0.00  0.00    +0.018 C 
ATOM      8  C   UNL     1      10.049  -2.441  -2.576  0.00  0.00    +0.109 C 
ATOM      9  N   UNL     1       9.643  -1.493  -3.623  0.00  0.00    -0.176 NA
ATOM     10  C   UNL     1       8.222  -1.138  -3.742  0.00  0.00    +0.122 C 
BRANCH   9  11
ATOM     11  S   UNL     1      10.765  -0.837  -4.648  0.00  0.00    +0.061 S 
ATOM     12  O   UNL     1      10.216   0.384  -5.124  0.00  0.00    -0.153 OA
ATOM     13  O   UNL     1      12.015  -0.899  -3.976  0.00  0.00    -0.153 OA
BRANCH  11  14
ATOM     14  C   UNL     1      10.888  -1.910  -6.041  0.00  0.00    +0.106 A 
ATOM     15  C   UNL     1      11.798  -2.951  -6.033  0.00  0.00    +0.030 A 
ATOM     16  C   UNL     1      11.895  -3.793  -7.125  0.00  0.00    +0.022 A 
ATOM     17  C   UNL     1      11.082  -3.593  -8.226  0.00  0.00    +0.041 A 
ATOM     18  C   UNL     1      10.172  -2.551  -8.233  0.00  0.00    +0.022 A 
ATOM     19  C   UNL     1      10.071  -1.714  -7.139  0.00  0.00    +0.030 A 
ATOM     20 CL   UNL     1      11.204  -4.650  -9.598  0.00  0.00    -0.084 Cl
ENDBRANCH  11  14
ENDBRANCH   9  11
ENDBRANCH   2   5
BRANCH   1  21
ATOM     21  C   UNL     1       4.126   0.260  -1.425  0.00  0.00    +0.096 C 
BRANCH  21  22
ATOM     22  C   UNL     1       3.602   0.617  -0.032  0.00  0.00    +0.016 C 
BRANCH  22  23
ATOM     23  N   UNL     1       3.974  -0.441   0.917  0.00  0.00    +0.387 N 
ATOM     24  C   UNL     1       3.460  -1.729   0.439  0.00  0.00    -0.078 C 
ATOM     25  C   UNL     1       3.913  -2.846   1.381  0.00  0.00    -0.019 C 
ATOM     26  C   UNL     1       3.374  -2.570   2.788  0.00  0.00    -0.004 C 
ATOM     27  C   UNL     1       3.856  -1.191   3.247  0.00  0.00    -0.019 C 
ATOM     28  C   UNL     1       3.405  -0.135   2.235  0.00  0.00    -0.078 C 
ATOM     29  H   UNL     1       4.980  -0.488   0.989  0.00  0.00    -0.081 HD
ENDBRANCH  22  23
BRANCH  22  32
ATOM     30  C   UNL     1       0.039   1.555  -0.081  0.00  0.00    +0.041 A 
ATOM     31  C   UNL     1       1.408   1.896   0.004  0.00  0.00    +0.043 A 
ATOM     32  C   UNL     1       2.102   0.746  -0.077  0.00  0.00    +0.093 A 
ATOM     33  O   UNL     1       1.230  -0.267  -0.207  0.00  0.00    -0.469 OA
ATOM     34  C   UNL     1      -0.023   0.217  -0.210  0.00  0.00    +0.195 A 
ENDBRANCH  22  32
ENDBRANCH  21  22
ENDBRANCH   1  21
TORSDOF 7
