REMARK  Name = ZINC01022609
REMARK  7 active torsions:
REMARK  status: ('A' for Active; 'I' for Inactive)
REMARK    1  A    between atoms: C_1  and  C_2
REMARK    2  A    between atoms: C_2  and  C_32
REMARK    3  A    between atoms: C_6  and  C_23
REMARK    4  A    between atoms: C_8  and  C_21
REMARK    5  A    between atoms: C_9  and  N_20
REMARK    6  A    between atoms: N_10  and  C_11
REMARK    7  A    between atoms: C_15  and  N_17
REMARK                            x       y       z     vdW  Elec       q    Type
REMARK                         _______ _______ _______ _____ _____    ______ ____
ROOT
ATOM      1  C   UNL     1       2.507   6.745   2.558  0.00  0.00    +0.011 C 
ATOM      2  C   UNL     1       3.245   6.165   1.350  0.00  0.00    -0.023 C 
ATOM      3  C   UNL     1       2.329   5.190   0.607  0.00  0.00    +0.058 C 
ATOM      4  C   UNL     1       1.110   5.925   0.106  0.00  0.00    +0.025 C 
ATOM      5  C   UNL     1       1.177   7.227  -0.242  0.00  0.00    +0.025 C 
ATOM      6  C   UNL     1      -0.036   7.952  -0.768  0.00  0.00    +0.097 C 
ATOM      7  C   UNL     1      -1.298   7.216  -0.424  0.00  0.00    +0.077 C 
ATOM      8  C   UNL     1      -1.270   5.909  -0.064  0.00  0.00    +0.107 C 
ATOM      9  N   UNL     1      -0.071   5.236   0.009  0.00  0.00    -0.260 N 
ATOM     10  C   UNL     1       2.380   7.946  -0.130  0.00  0.00    +0.162 C 
ATOM     11  O   UNL     1       2.409   9.115  -0.460  0.00  0.00    -0.292 OA
ATOM     12  C   UNL     1       3.632   7.295   0.391  0.00  0.00    +0.086 C 
ATOM     13  C   UNL     1       4.503   5.431   1.820  0.00  0.00    +0.011 C 
ENDROOT
BRANCH   9  14
ATOM     14  C   UNL     1      -0.058   3.837  -0.021  0.00  0.00    +0.042 A 
ATOM     15  C   UNL     1      -0.203   3.114   1.156  0.00  0.00    +0.024 A 
ATOM     16  C   UNL     1      -0.190   1.733   1.123  0.00  0.00    +0.004 A 
ATOM     17  C   UNL     1      -0.032   1.070  -0.081  0.00  0.00    +0.033 A 
ATOM     18  C   UNL     1       0.118   1.787  -1.253  0.00  0.00    +0.128 A 
ATOM     19  C   UNL     1       0.100   3.168  -1.228  0.00  0.00    +0.056 A 
BRANCH  18  20
ATOM     20  N   UNL     1       0.292   1.073  -2.538  0.00  0.00    +0.056 N 
ATOM     21  O   UNL     1       0.304  -0.144  -2.562  0.00  0.00    -0.126 OA
ATOM     22  O   UNL     1       0.425   1.704  -3.572  0.00  0.00    -0.126 OA
ENDBRANCH  18  20
ENDBRANCH   9  14
BRANCH   6  23
ATOM     23  C   UNL     1       0.072   8.075  -2.266  0.00  0.00    -0.035 A 
ATOM     24  C   UNL     1       0.158   6.939  -3.048  0.00  0.00    +0.004 A 
ATOM     25  C   UNL     1       0.253   7.052  -4.423  0.00  0.00    +0.000 A 
ATOM     26  C   UNL     1       0.271   8.301  -5.014  0.00  0.00    +0.000 A 
ATOM     27  C   UNL     1       0.189   9.438  -4.231  0.00  0.00    +0.000 A 
ATOM     28  C   UNL     1       0.090   9.325  -2.857  0.00  0.00    +0.004 A 
ENDBRANCH   6  23
BRANCH   8  29
ATOM     29  N   UNL     1      -2.442   5.256   0.233  0.00  0.00    -0.345 N 
ATOM     30  H   UNL     1      -2.419   4.350   0.579  0.00  0.00    +0.144 HD
ATOM     31  H   UNL     1      -3.293   5.702   0.097  0.00  0.00    +0.144 HD
ENDBRANCH   8  29
BRANCH   7  32
ATOM     32  C   UNL     1      -2.552   7.905  -0.483  0.00  0.00    +0.099 C 
ATOM     33  N   UNL     1      -3.547   8.451  -0.529  0.00  0.00    -0.191 NA
ENDBRANCH   7  32
TORSDOF 5
