REMARK  Name = ZINC20693786
REMARK  9 active torsions:
REMARK  status: ('A' for Active; 'I' for Inactive)
REMARK    1  A    between atoms: C_1  and  C_2
REMARK    2  A    between atoms: C_5  and  N_9
REMARK    3  A    between atoms: C_7  and  C_8
REMARK    4  A    between atoms: N_9  and  S_10
REMARK    5  A    between atoms: S_10  and  C_13
REMARK    6  A    between atoms: C_26  and  C_29
REMARK    7  A    between atoms: C_33  and  O_36
REMARK    8  A    between atoms: C_34  and  O_35
REMARK    9  A    between atoms: O_36  and  C_37
REMARK                            x       y       z     vdW  Elec       q    Type
REMARK                         _______ _______ _______ _____ _____    ______ ____
ROOT
ATOM      1  C   UNL     1      -0.145   8.162  -1.462  0.00  0.00    +0.109 A 
ATOM      2  C   UNL     1      -0.255   8.198  -0.084  0.00  0.00    +0.030 A 
ATOM      3  C   UNL     1      -0.901   7.173   0.578  0.00  0.00    +0.025 A 
ATOM      4  C   UNL     1      -1.437   6.111  -0.141  0.00  0.00    +0.031 A 
ATOM      5  C   UNL     1      -1.332   6.073  -1.522  0.00  0.00    -0.018 A 
ATOM      6  C   UNL     1      -0.678   7.109  -2.176  0.00  0.00    +0.034 A 
ATOM      7  C   UNL     1      -1.901   4.956  -2.338  0.00  0.00    +0.049 C 
ATOM      8  C   UNL     1      -0.818   4.028  -2.836  0.00  0.00    -0.023 C 
ATOM      9  C   UNL     1      -1.247   2.789  -2.837  0.00  0.00    -0.030 C 
ATOM     10  C   UNL     1      -2.679   2.723  -2.344  0.00  0.00    +0.033 C 
ATOM     11  C   UNL     1      -2.842   4.040  -1.530  0.00  0.00    +0.029 C 
ATOM     12  C   UNL     1      -2.257   3.790  -0.137  0.00  0.00    +0.109 C 
ATOM     13  N   UNL     1      -2.086   5.078   0.544  0.00  0.00    -0.336 N 
ATOM     14  H   UNL     1      -2.464   5.213   1.568  0.00  0.00    +0.147 HD
ENDROOT
BRANCH  12  15
ATOM     15  C   UNL     1      -0.920   3.106  -0.266  0.00  0.00    +0.018 A 
ATOM     16  C   UNL     1       0.233   3.859  -0.392  0.00  0.00    +0.009 A 
ATOM     17  C   UNL     1       1.460   3.234  -0.511  0.00  0.00    +0.004 A 
ATOM     18  C   UNL     1       1.540   1.854  -0.504  0.00  0.00    +0.049 A 
ATOM     19  C   UNL     1       0.389   1.094  -0.379  0.00  0.00    +0.162 A 
ATOM     20  C   UNL     1      -0.848   1.722  -0.265  0.00  0.00    +0.163 A 
BRANCH  20  21
ATOM     21  O   UNL     1      -1.981   0.981  -0.147  0.00  0.00    -0.503 OA
ATOM     22  H   UNL     1      -1.922  -0.118  -0.146  0.00  0.00    +0.292 HD
ENDBRANCH  20  21
BRANCH  19  23
ATOM     23  O   UNL     1       0.466  -0.264  -0.372  0.00  0.00    -0.491 OA
ATOM     24  C   UNL     1       1.767  -0.841  -0.499  0.00  0.00    +0.277 C 
ENDBRANCH  19  23
ENDBRANCH  12  15
BRANCH   1  25
ATOM     25  S   UNL     1       0.681   9.468  -2.310  0.00  0.00    +0.072 S 
ATOM     26  O   UNL     1       0.096   9.546  -3.603  0.00  0.00    -0.150 OA
ATOM     27  O   UNL     1       0.711  10.575  -1.420  0.00  0.00    -0.150 OA
BRANCH  25  28
ATOM     28  N   UNL     1       2.252   8.993  -2.529  0.00  0.00    -0.216 N 
ATOM     29  H   UNL     1       3.067   9.546  -2.039  0.00  0.00    +0.174 HD
BRANCH  28  34
ATOM     30  C   UNL     1       3.433   4.518  -5.806  0.00  0.00    +0.044 C 
ATOM     31  C   UNL     1       3.119   5.707  -4.935  0.00  0.00    -0.047 A 
ATOM     32  C   UNL     1       3.195   5.594  -3.559  0.00  0.00    +0.005 A 
ATOM     33  C   UNL     1       2.912   6.683  -2.758  0.00  0.00    +0.025 A 
ATOM     34  C   UNL     1       2.542   7.891  -3.336  0.00  0.00    +0.048 A 
ATOM     35  C   UNL     1       2.467   8.001  -4.719  0.00  0.00    +0.028 A 
ATOM     36  C   UNL     1       2.755   6.909  -5.514  0.00  0.00    -0.046 A 
ATOM     37  C   UNL     1       2.674   7.028  -7.014  0.00  0.00    +0.044 C 
ENDBRANCH  28  34
ENDBRANCH  25  28
ENDBRANCH   1  25
TORSDOF 6
