REMARK  Name = ZINC36779138
REMARK  15 active torsions:
REMARK  status: ('A' for Active; 'I' for Inactive)
REMARK    1  A    between atoms: C_1  and  C_2
REMARK    2  A    between atoms: C_2  and  C_3
REMARK    3  A    between atoms: C_3  and  C_5
REMARK    4  A    between atoms: C_3  and  N_23
REMARK    5  A    between atoms: C_5  and  C_7
REMARK    6  A    between atoms: C_5  and  O_22
REMARK    7  A    between atoms: C_9  and  C_18
REMARK    8  A    between atoms: C_10  and  O_17
REMARK    9  A    between atoms: C_11  and  C_13
REMARK   10  A    between atoms: C_13  and  C_14
REMARK   11  A    between atoms: C_13  and  C_15
REMARK   12  A    between atoms: C_13  and  C_16
REMARK   13  A    between atoms: C_18  and  C_19
REMARK   14  A    between atoms: C_18  and  C_20
REMARK   15  A    between atoms: C_18  and  C_21
REMARK                            x       y       z     vdW  Elec       q    Type
REMARK                         _______ _______ _______ _____ _____    ______ ____
ROOT
ATOM      1  C   UNL     1       1.384  -2.537   2.519  0.00  0.00    -0.020 A 
ATOM      2  C   UNL     1       0.733  -2.591   3.738  0.00  0.00    +0.013 A 
ATOM      3  C   UNL     1       1.399  -3.048   4.859  0.00  0.00    +0.000 A 
ATOM      4  C   UNL     1       2.722  -3.453   4.761  0.00  0.00    +0.124 A 
ATOM      5  C   UNL     1       3.374  -3.397   3.537  0.00  0.00    +0.000 A 
ATOM      6  C   UNL     1       2.701  -2.944   2.418  0.00  0.00    +0.013 A 
ENDROOT
BRANCH   5   7
ATOM      7  C   UNL     1       4.811  -3.836   3.427  0.00  0.00    -0.009 C 
ATOM      8  C   UNL     1       5.284  -3.675   1.981  0.00  0.00    +0.015 C 
ATOM      9  C   UNL     1       5.679  -2.974   4.347  0.00  0.00    +0.015 C 
ATOM     10  C   UNL     1       4.930  -5.303   3.842  0.00  0.00    +0.015 C 
ENDBRANCH   5   7
BRANCH   3  11
ATOM     11  C   UNL     1       0.689  -3.107   6.186  0.00  0.00    -0.009 C 
ATOM     12  C   UNL     1      -0.748  -2.608   6.019  0.00  0.00    +0.015 C 
ATOM     13  C   UNL     1       0.671  -4.550   6.692  0.00  0.00    +0.015 C 
ATOM     14  C   UNL     1       1.421  -2.221   7.196  0.00  0.00    +0.015 C 
ENDBRANCH   3  11
BRANCH   4  15
ATOM     15  O   UNL     1       3.380  -3.902   5.862  0.00  0.00    -0.506 OA
ATOM     16  H   UNL     1       3.305  -4.856   6.003  0.00  0.00    +0.292 HD
ENDBRANCH   4  15
BRANCH   1  17
ATOM     17  C   UNL     1       0.655  -2.037   1.299  0.00  0.00    +0.130 C 
BRANCH  17  18
ATOM     18  O   UNL     1      -0.716  -2.434   1.367  0.00  0.00    -0.389 OA
ATOM     19  H   UNL     1      -1.186  -2.093   2.139  0.00  0.00    +0.210 HD
ENDBRANCH  17  18
BRANCH  17  20
ATOM     20  C   UNL     1       0.742  -0.511   1.242  0.00  0.00    -0.042 C 
BRANCH  20  21
ATOM     21  N   UNL     1       2.151  -0.103   1.171  0.00  0.00    +0.382 N 
ATOM     22  H   UNL     1       2.574  -0.495   0.344  0.00  0.00    -0.090 HD
ATOM     23  H   UNL     1       2.209   0.904   1.134  0.00  0.00    -0.090 HD
ATOM     24  H   UNL     1       2.639  -0.437   1.989  0.00  0.00    -0.090 HD
ENDBRANCH  20  21
BRANCH  20  26
ATOM     25  C   UNL     1      -0.019   1.526   0.010  0.00  0.00    +0.002 C 
ATOM     26  C   UNL     1       0.002  -0.004   0.002  0.00  0.00    -0.017 C 
ENDBRANCH  20  26
ENDBRANCH  17  20
ENDBRANCH   1  17
TORSDOF 8
