REMARK  Name = ZINC19803468
REMARK  3 active torsions:
REMARK  status: ('A' for Active; 'I' for Inactive)
REMARK    1  A    between atoms: C_1  and  C_2
REMARK    2  A    between atoms: N_12  and  C_13
REMARK    3  A    between atoms: C_18  and  N_19
REMARK                            x       y       z     vdW  Elec       q    Type
REMARK                         _______ _______ _______ _____ _____    ______ ____
ROOT
ATOM      1  C   UNL     1      -0.019   1.526   0.010  0.00  0.00    +0.028 C 
ATOM      2  C   UNL     1       0.002  -0.004   0.002  0.00  0.00    +0.076 C 
ATOM      3  C   UNL     1      -1.434  -0.543   0.033  0.00  0.00    +0.027 C 
ATOM      4  C   UNL     1      -1.390  -2.069  -0.046  0.00  0.00    +0.039 C 
ATOM      5  C   UNL     1      -0.450  -2.624   0.992  0.00  0.00    -0.026 A 
ATOM      6  C   UNL     1      -0.584  -3.947   1.378  0.00  0.00    +0.005 A 
ATOM      7  C   UNL     1       0.264  -4.486   2.325  0.00  0.00    +0.000 A 
ATOM      8  C   UNL     1       1.255  -3.707   2.894  0.00  0.00    +0.002 A 
ATOM      9  C   UNL     1       1.395  -2.387   2.516  0.00  0.00    +0.024 A 
ATOM     10  C   UNL     1       0.540  -1.841   1.564  0.00  0.00    +0.037 A 
ATOM     11  N   UNL     1       0.695  -0.499   1.200  0.00  0.00    -0.296 N 
ENDROOT
BRANCH  11  12
ATOM     12  C   UNL     1       1.495   0.359   1.964  0.00  0.00    +0.055 A 
ATOM     13  C   UNL     1       0.941   1.071   3.018  0.00  0.00    +0.025 A 
ATOM     14  C   UNL     1       1.733   1.917   3.772  0.00  0.00    +0.002 A 
ATOM     15  C   UNL     1       3.077   2.058   3.478  0.00  0.00    +0.002 A 
ATOM     16  C   UNL     1       3.637   1.352   2.429  0.00  0.00    +0.024 A 
ATOM     17  C   UNL     1       2.852   0.496   1.672  0.00  0.00    +0.046 A 
BRANCH  17  18
ATOM     18  N   UNL     1       3.418  -0.224   0.614  0.00  0.00    -0.357 N 
ATOM     19  H   UNL     1       2.867  -0.820   0.082  0.00  0.00    +0.142 HD
ATOM     20  H   UNL     1       4.362  -0.128   0.412  0.00  0.00    +0.142 HD
ENDBRANCH  17  18
ENDBRANCH  11  12
TORSDOF 2
