REMARK  Name = ZINC16671330
REMARK  10 active torsions:
REMARK  status: ('A' for Active; 'I' for Inactive)
REMARK    1  A    between atoms: C_1  and  C_2
REMARK    2  A    between atoms: C_5  and  N_8
REMARK    3  A    between atoms: N_8  and  C_9
REMARK    4  A    between atoms: N_8  and  S_23
REMARK    5  A    between atoms: C_9  and  C_10
REMARK    6  A    between atoms: N_12  and  N_13
REMARK    7  A    between atoms: C_14  and  C_15
REMARK    8  A    between atoms: C_14  and  C_16
REMARK    9  A    between atoms: C_21  and  O_22
REMARK   10  A    between atoms: S_23  and  C_26
REMARK                            x       y       z     vdW  Elec       q    Type
REMARK                         _______ _______ _______ _____ _____    ______ ____
ROOT
ATOM      1  N   UNL     1       0.058  -4.167  -0.021  0.00  0.00    -0.194 N 
ENDROOT
BRANCH   1   6
ATOM      2  C   UNL     1      -0.980   1.395  -0.394  0.00  0.00    +0.044 C 
ATOM      3  C   UNL     1      -0.704  -0.083  -0.295  0.00  0.00    -0.050 A 
ATOM      4  C   UNL     1      -1.242  -0.950  -1.229  0.00  0.00    +0.005 A 
ATOM      5  C   UNL     1      -0.991  -2.305  -1.141  0.00  0.00    +0.025 A 
ATOM      6  C   UNL     1      -0.197  -2.797  -0.113  0.00  0.00    +0.052 A 
ATOM      7  C   UNL     1       0.341  -1.924   0.823  0.00  0.00    +0.025 A 
ATOM      8  C   UNL     1       0.091  -0.570   0.726  0.00  0.00    +0.005 A 
ENDBRANCH   1   6
BRANCH   1   9
ATOM      9  S   UNL     1      -0.415  -5.009   1.325  0.00  0.00    +0.075 S 
ATOM     10  O   UNL     1       0.406  -6.168   1.388  0.00  0.00    -0.150 OA
ATOM     11  O   UNL     1      -0.488  -4.069   2.387  0.00  0.00    -0.150 OA
BRANCH   9  12
ATOM     12  C   UNL     1      -2.059  -5.572   1.036  0.00  0.00    +0.109 A 
ATOM     13  C   UNL     1      -3.134  -4.781   1.398  0.00  0.00    +0.029 A 
ATOM     14  C   UNL     1      -4.424  -5.222   1.172  0.00  0.00    +0.002 A 
ATOM     15  C   UNL     1      -4.640  -6.454   0.583  0.00  0.00    +0.000 A 
ATOM     16  C   UNL     1      -3.566  -7.244   0.220  0.00  0.00    +0.002 A 
ATOM     17  C   UNL     1      -2.275  -6.801   0.442  0.00  0.00    +0.029 A 
ENDBRANCH   9  12
ENDBRANCH   1   9
BRANCH   1  18
ATOM     18  C   UNL     1       0.744  -4.860  -1.115  0.00  0.00    +0.228 C 
BRANCH  18  19
ATOM     19  C   UNL     1       2.235  -4.717  -0.943  0.00  0.00    +0.251 C 
ATOM     20  O   UNL     1       2.680  -4.098   0.001  0.00  0.00    -0.272 OA
ATOM     21  N   UNL     1       3.073  -5.277  -1.837  0.00  0.00    -0.205 N 
ATOM     22  H   UNL     1       2.717  -5.772  -2.591  0.00  0.00    +0.177 HD
BRANCH  21  23
ATOM     23  N   UNL     1       4.458  -5.145  -1.677  0.00  0.00    -0.184 NA
ATOM     24  C   UNL     1       5.266  -5.684  -2.538  0.00  0.00    +0.067 C 
ATOM     25  C   UNL     1       4.713  -6.454  -3.710  0.00  0.00    +0.068 C 
BRANCH  24  26
ATOM     26  C   UNL     1       6.723  -5.545  -2.370  0.00  0.00    +0.039 A 
ATOM     27  C   UNL     1       7.595  -6.119  -3.298  0.00  0.00    +0.013 A 
ATOM     28  C   UNL     1       8.958  -5.984  -3.135  0.00  0.00    +0.001 A 
ATOM     29  C   UNL     1       9.466  -5.282  -2.056  0.00  0.00    +0.004 A 
ATOM     30  C   UNL     1       8.614  -4.710  -1.131  0.00  0.00    +0.046 A 
ATOM     31  C   UNL     1       7.242  -4.830  -1.282  0.00  0.00    +0.126 A 
BRANCH  31  32
ATOM     32  O   UNL     1       6.403  -4.263  -0.377  0.00  0.00    -0.506 OA
ATOM     33  H   UNL     1       6.176  -4.841   0.365  0.00  0.00    +0.292 HD
ENDBRANCH  31  32
ENDBRANCH  24  26
ENDBRANCH  21  23
ENDBRANCH  18  19
ENDBRANCH   1  18
TORSDOF 8
