REMARK  Name = ZINC40152850
REMARK  9 active torsions:
REMARK  status: ('A' for Active; 'I' for Inactive)
REMARK    1  A    between atoms: C_1  and  C_2
REMARK    2  A    between atoms: C_7  and  S_28
REMARK    3  A    between atoms: C_12  and  C_14
REMARK    4  A    between atoms: C_14  and  N_15
REMARK    5  A    between atoms: N_15  and  C_16
REMARK    6  A    between atoms: N_15  and  C_24
REMARK    7  A    between atoms: C_16  and  C_17
REMARK    8  A    between atoms: C_24  and  C_25
REMARK    9  A    between atoms: S_28  and  N_31
REMARK                            x       y       z     vdW  Elec       q    Type
REMARK                         _______ _______ _______ _____ _____    ______ ____
ROOT
ATOM      1  C   UNL     1      -0.388   1.605   0.662  0.00  0.00    +0.029 C 
ATOM      2  C   UNL     1      -0.489   0.078   0.669  0.00  0.00    +0.083 C 
ATOM      3  C   UNL     1      -1.925  -0.359   1.004  0.00  0.00    +0.059 C 
ATOM      4  C   UNL     1      -1.791  -1.161   2.279  0.00  0.00    -0.022 A 
ATOM      5  C   UNL     1      -2.741  -1.804   3.049  0.00  0.00    +0.034 A 
ATOM      6  C   UNL     1      -2.365  -2.483   4.192  0.00  0.00    +0.105 A 
ATOM      7  C   UNL     1      -1.033  -2.518   4.565  0.00  0.00    +0.030 A 
ATOM      8  C   UNL     1      -0.082  -1.878   3.800  0.00  0.00    +0.026 A 
ATOM      9  C   UNL     1      -0.455  -1.190   2.643  0.00  0.00    +0.040 A 
ATOM     10  N   UNL     1       0.344  -0.483   1.736  0.00  0.00    -0.270 N 
ATOM     11  C   UNL     1       1.681  -0.339   1.829  0.00  0.00    +0.203 C 
ATOM     12  O   UNL     1       2.282   0.295   0.988  0.00  0.00    -0.277 OA
ENDROOT
BRANCH   6  13
ATOM     13  S   UNL     1      -3.578  -3.303   5.172  0.00  0.00    +0.056 S 
ATOM     14  O   UNL     1      -3.040  -3.405   6.484  0.00  0.00    -0.153 OA
ATOM     15  O   UNL     1      -4.817  -2.662   4.905  0.00  0.00    -0.153 OA
BRANCH  13  16
ATOM     16  N   UNL     1      -3.711  -4.849   4.595  0.00  0.00    -0.204 NA
ATOM     17  H   UNL     1      -3.956  -5.572   5.194  0.00  0.00    +0.144 HD
ATOM     18  H   UNL     1      -3.543  -5.033   3.657  0.00  0.00    +0.144 HD
ENDBRANCH  13  16
ENDBRANCH   6  13
BRANCH  11  19
ATOM     19  C   UNL     1       2.428  -0.965   2.978  0.00  0.00    +0.020 C 
BRANCH  19  20
ATOM     20  N   UNL     1       3.837  -0.551   2.929  0.00  0.00    +0.394 N 
ATOM     21  H   UNL     1       4.215  -0.751   2.016  0.00  0.00    -0.080 HD
BRANCH  20  22
ATOM     22  C   UNL     1       3.933   0.891   3.193  0.00  0.00    -0.042 C 
BRANCH  22  23
ATOM     23  C   UNL     1       5.361   1.339   3.023  0.00  0.00    -0.064 A 
ATOM     24  C   UNL     1       6.227   1.313   4.101  0.00  0.00    +0.003 A 
ATOM     25  C   UNL     1       7.537   1.724   3.945  0.00  0.00    +0.015 A 
ATOM     26  C   UNL     1       7.983   2.160   2.710  0.00  0.00    +0.018 A 
ATOM     27  C   UNL     1       7.117   2.186   1.632  0.00  0.00    +0.015 A 
ATOM     28  C   UNL     1       5.808   1.770   1.788  0.00  0.00    +0.003 A 
ATOM     29 BR   UNL     1       9.776   2.722   2.497  0.00  0.00    -0.050 Br
ENDBRANCH  22  23
ENDBRANCH  20  22
BRANCH  20  30
ATOM     30  C   UNL     1       4.599  -1.287   3.947  0.00  0.00    +0.019 C 
BRANCH  30  31
ATOM     31  C   UNL     1       4.636  -2.749   3.587  0.00  0.00    +0.194 C 
ATOM     32  O   UNL     1       4.112  -3.135   2.563  0.00  0.00    -0.278 OA
ATOM     33  N   UNL     1       5.253  -3.628   4.401  0.00  0.00    -0.331 N 
ATOM     34  H   UNL     1       5.673  -3.320   5.219  0.00  0.00    +0.145 HD
ATOM     35  H   UNL     1       5.277  -4.570   4.169  0.00  0.00    +0.145 HD
ENDBRANCH  30  31
ENDBRANCH  20  30
ENDBRANCH  19  20
ENDBRANCH  11  19
TORSDOF 8
