REMARK  Name = ZINC35293436
REMARK  7 active torsions:
REMARK  status: ('A' for Active; 'I' for Inactive)
REMARK    1  A    between atoms: C_1  and  C_2
REMARK    2  A    between atoms: C_5  and  N_9
REMARK    3  A    between atoms: C_6  and  C_8
REMARK    4  A    between atoms: C_10  and  C_20
REMARK    5  A    between atoms: C_12  and  C_14
REMARK    6  A    between atoms: C_17  and  C_19
REMARK    7  A    between atoms: N_22  and  C_23
REMARK                            x       y       z     vdW  Elec       q    Type
REMARK                         _______ _______ _______ _____ _____    ______ ____
ROOT
ATOM      1  N   UNL     1       0.593  -4.120   0.029  0.00  0.00    -0.227 N 
ATOM      2  C   UNL     1       0.173  -4.935  -0.989  0.00  0.00    +0.130 A 
ATOM      3  C   UNL     1      -0.099  -6.169  -0.441  0.00  0.00    +0.066 A 
ATOM      4  C   UNL     1       0.165  -6.089   0.937  0.00  0.00    +0.129 A 
ATOM      5  N   UNL     1       0.582  -4.868   1.213  0.00  0.00    -0.163 NA
ENDROOT
BRANCH   1  10
ATOM      6  C   UNL     1       2.127   1.320  -0.467  0.00  0.00    +0.044 C 
ATOM      7  C   UNL     1       1.719  -0.125  -0.335  0.00  0.00    -0.050 A 
ATOM      8  C   UNL     1       2.352  -1.092  -1.095  0.00  0.00    +0.005 A 
ATOM      9  C   UNL     1       1.981  -2.417  -0.977  0.00  0.00    +0.028 A 
ATOM     10  C   UNL     1       0.971  -2.778  -0.093  0.00  0.00    +0.069 A 
ATOM     11  C   UNL     1       0.339  -1.804   0.669  0.00  0.00    -0.025 A 
ATOM     12  C   UNL     1       0.718  -0.481   0.549  0.00  0.00    +0.008 A 
ATOM     13  C   UNL     1      -0.757  -2.191   1.629  0.00  0.00    +0.046 C 
ENDBRANCH   1  10
BRANCH   4  14
ATOM     14  C   UNL     1       0.007  -7.189   1.912  0.00  0.00    +0.155 A 
ATOM     15  C   UNL     1       0.256  -7.114   3.246  0.00  0.00    +0.052 A 
ATOM     16  C   UNL     1      -0.028  -8.386   3.784  0.00  0.00    +0.045 A 
ATOM     17  C   UNL     1      -0.431  -9.166   2.762  0.00  0.00    +0.103 A 
ATOM     18  O   UNL     1      -0.414  -8.438   1.633  0.00  0.00    -0.458 OA
ATOM     19  C   UNL     1      -0.839 -10.613   2.869  0.00  0.00    +0.086 C 
ENDBRANCH   4  14
BRANCH   2  20
ATOM     20  C   UNL     1       0.037  -4.561  -2.406  0.00  0.00    +0.263 C 
ATOM     21  O   UNL     1       0.355  -3.446  -2.774  0.00  0.00    -0.269 OA
ATOM     22  N   UNL     1      -0.439  -5.454  -3.296  0.00  0.00    -0.299 N 
ATOM     23  H   UNL     1      -0.627  -6.364  -3.017  0.00  0.00    +0.150 HD
BRANCH  22  24
ATOM     24  C   UNL     1      -0.674  -5.051  -4.684  0.00  0.00    +0.159 C 
ATOM     25  C   UNL     1      -1.554  -6.091  -5.380  0.00  0.00    +0.032 C 
ATOM     26  C   UNL     1      -1.243  -7.486  -4.871  0.00  0.00    +0.004 C 
ATOM     27  C   UNL     1       0.143  -7.979  -5.242  0.00  0.00    +0.019 C 
ATOM     28  C   UNL     1       1.222  -7.162  -4.527  0.00  0.00    +0.104 C 
ATOM     29  N   UNL     1       1.524  -5.971  -5.338  0.00  0.00    -0.314 N 
ATOM     30  C   UNL     1       0.648  -4.965  -5.419  0.00  0.00    +0.233 C 
ATOM     31  O   UNL     1       0.906  -3.985  -6.085  0.00  0.00    -0.274 OA
ATOM     32  H   UNL     1       2.367  -5.914  -5.816  0.00  0.00    +0.149 HD
ENDBRANCH  22  24
ENDBRANCH   2  20
TORSDOF 4
