REMARK  Name = ZINC31155012
REMARK  7 active torsions:
REMARK  status: ('A' for Active; 'I' for Inactive)
REMARK    1  A    between atoms: C_1  and  C_2
REMARK    2  A    between atoms: C_8  and  C_32
REMARK    3  A    between atoms: C_12  and  O_23
REMARK    4  A    between atoms: C_20  and  O_22
REMARK    5  A    between atoms: C_26  and  O_31
REMARK    6  A    between atoms: C_28  and  C_29
REMARK    7  A    between atoms: C_28  and  C_30
REMARK                            x       y       z     vdW  Elec       q    Type
REMARK                         _______ _______ _______ _____ _____    ______ ____
ROOT
ATOM      1  C   UNL     1      -0.184   1.727   0.367  0.00  0.00    +0.011 C 
ATOM      2  C   UNL     1       0.027   0.244   0.114  0.00  0.00    +0.031 C 
ATOM      3  C   UNL     1      -1.283  -0.499  -0.090  0.00  0.00    +0.007 C 
ATOM      4  C   UNL     1      -2.001  -0.786   1.224  0.00  0.00    +0.005 C 
ATOM      5  C   UNL     1      -1.112  -1.559   2.208  0.00  0.00    +0.007 C 
ATOM      6  C   UNL     1       0.139  -0.727   2.478  0.00  0.00    +0.012 C 
ATOM      7  C   UNL     1       0.874  -0.426   1.179  0.00  0.00    +0.123 C 
ATOM      8  C   UNL     1       1.439  -1.730   0.559  0.00  0.00    +0.091 C 
ATOM      9  C   UNL     1       2.736  -1.234  -0.055  0.00  0.00    +0.040 A 
ATOM     10  C   UNL     1       3.558  -1.764  -1.031  0.00  0.00    +0.124 A 
ATOM     11  C   UNL     1       4.715  -1.090  -1.399  0.00  0.00    +0.054 A 
ATOM     12  C   UNL     1       5.029   0.108  -0.791  0.00  0.00    +0.020 A 
ATOM     13  C   UNL     1       4.192   0.647   0.170  0.00  0.00    +0.028 A 
ATOM     14  C   UNL     1       3.030  -0.017   0.545  0.00  0.00    +0.134 A 
ATOM     15  O   UNL     1       2.063   0.334   1.440  0.00  0.00    -0.484 OA
ATOM     16  C   UNL     1       4.806   1.953   0.619  0.00  0.00    +0.202 C 
ATOM     17  O   UNL     1       6.184   1.904   0.207  0.00  0.00    -0.343 OA
ATOM     18  C   UNL     1       6.195   1.056  -0.956  0.00  0.00    +0.280 C 
ATOM     19  C   UNL     1      -0.277   0.554   3.206  0.00  0.00    +0.013 C 
ATOM     20  C   UNL     1      -0.897   0.190   4.556  0.00  0.00    +0.032 C 
ATOM     21  C   UNL     1      -2.135  -0.672   4.363  0.00  0.00    +0.120 C 
ATOM     22  C   UNL     1      -1.906  -1.881   3.466  0.00  0.00    -0.005 C 
ATOM     23  C   UNL     1      -1.266  -3.018   4.274  0.00  0.00    +0.014 C 
ATOM     24  C   UNL     1      -3.304  -2.415   3.067  0.00  0.00    +0.014 C 
ATOM     25  C   UNL     1       1.143  -1.459   3.385  0.00  0.00    +0.015 C 
ENDROOT
BRANCH  18  26
ATOM     26  O   UNL     1       6.031   1.838  -2.140  0.00  0.00    -0.363 OA
ATOM     27  H   UNL     1       6.749   2.466  -2.300  0.00  0.00    +0.213 HD
ENDBRANCH  18  26
BRANCH  10  28
ATOM     28  O   UNL     1       3.236  -2.942  -1.628  0.00  0.00    -0.506 OA
ATOM     29  H   UNL     1       2.690  -2.845  -2.420  0.00  0.00    +0.292 HD
ENDBRANCH  10  28
BRANCH  21  30
ATOM     30  O   UNL     1      -3.203   0.124   3.838  0.00  0.00    -0.391 OA
ATOM     31  H   UNL     1      -3.459   0.863   4.407  0.00  0.00    +0.210 HD
ENDBRANCH  21  30
TORSDOF 3
