REMARK  Name = ZINC34107818
REMARK  3 active torsions:
REMARK  status: ('A' for Active; 'I' for Inactive)
REMARK    1  A    between atoms: C_4  and  C_7
REMARK    2  A    between atoms: N_24  and  C_27
REMARK    3  A    between atoms: C_27  and  C_28
REMARK                            x       y       z     vdW  Elec       q    Type
REMARK                         _______ _______ _______ _____ _____    ______ ____
ROOT
ATOM      1  C   UNL     1       3.704  -0.681   0.049  0.00  0.00    +0.158 A 
ATOM      2  C   UNL     1       4.963   0.062  -0.147  0.00  0.00    +0.300 A 
ATOM      3  O   UNL     1       4.965   1.278  -0.249  0.00  0.00    -0.263 OA
ATOM      4  N   UNL     1       6.105  -0.635  -0.209  0.00  0.00    -0.181 NA
ATOM      5  C   UNL     1       6.101  -1.940  -0.099  0.00  0.00    +0.201 A 
ATOM      6  N   UNL     1       4.967  -2.687   0.084  0.00  0.00    -0.170 N 
ATOM      7  N   UNL     1       3.736  -1.980   0.160  0.00  0.00    -0.156 NA
ATOM      8  C   UNL     1       5.088  -4.021   0.183  0.00  0.00    +0.288 A 
ATOM      9  O   UNL     1       4.114  -4.729   0.346  0.00  0.00    -0.265 OA
ATOM     10  C   UNL     1       6.446  -4.601   0.087  0.00  0.00    +0.095 A 
ATOM     11  C   UNL     1       6.844  -5.921   0.155  0.00  0.00    +0.065 C 
ATOM     12  C   UNL     1       5.983  -7.121   0.170  0.00  0.00    +0.010 A 
ATOM     13  C   UNL     1       4.603  -7.305   0.124  0.00  0.00    +0.010 A 
ATOM     14  C   UNL     1       4.082  -8.582   0.154  0.00  0.00    +0.001 A 
ATOM     15  C   UNL     1       4.928  -9.676   0.230  0.00  0.00    +0.002 A 
ATOM     16  C   UNL     1       6.297  -9.505   0.276  0.00  0.00    +0.024 A 
ATOM     17  C   UNL     1       6.843  -8.227   0.246  0.00  0.00    +0.045 A 
ATOM     18  N   UNL     1       8.160  -7.783   0.279  0.00  0.00    -0.262 N 
ATOM     19  C   UNL     1       8.227  -6.442   0.223  0.00  0.00    +0.253 C 
ATOM     20  O   UNL     1       9.244  -5.775   0.230  0.00  0.00    -0.270 OA
ATOM     21  S   UNL     1       7.429  -3.127  -0.140  0.00  0.00    -0.043 S 
ENDROOT
BRANCH   1  25
ATOM     22  C   UNL     1       0.004   1.399   0.270  0.00  0.00    +0.000 A 
ATOM     23  C   UNL     1       0.158   0.195   0.933  0.00  0.00    +0.001 A 
ATOM     24  C   UNL     1       1.357  -0.485   0.865  0.00  0.00    +0.010 A 
ATOM     25  C   UNL     1       2.414   0.044   0.126  0.00  0.00    +0.007 A 
ATOM     26  C   UNL     1       2.252   1.258  -0.541  0.00  0.00    +0.010 A 
ATOM     27  C   UNL     1       1.049   1.929  -0.466  0.00  0.00    +0.001 A 
ENDBRANCH   1  25
BRANCH  18  28
ATOM     28  C   UNL     1       9.327  -8.666   0.359  0.00  0.00    +0.150 C 
BRANCH  28  29
ATOM     29  C   UNL     1       9.781  -9.025  -1.033  0.00  0.00    -0.011 A 
ATOM     30  C   UNL     1       9.427 -10.243  -1.583  0.00  0.00    +0.006 A 
ATOM     31  C   UNL     1       9.843 -10.572  -2.859  0.00  0.00    +0.000 A 
ATOM     32  C   UNL     1      10.615  -9.685  -3.586  0.00  0.00    +0.001 A 
ATOM     33  C   UNL     1      10.970  -8.467  -3.037  0.00  0.00    +0.020 A 
ATOM     34  C   UNL     1      10.548  -8.134  -1.761  0.00  0.00    +0.046 A 
ATOM     35 CL   UNL     1      10.988  -6.602  -1.073  0.00  0.00    -0.083 Cl
ENDBRANCH  28  29
ENDBRANCH  18  28
TORSDOF 3
