REMARK  Name = ZINC13064354
REMARK  12 active torsions:
REMARK  status: ('A' for Active; 'I' for Inactive)
REMARK    1  A    between atoms: C_1  and  C_2
REMARK    2  A    between atoms: C_2  and  C_3
REMARK    3  A    between atoms: C_3  and  C_5
REMARK    4  A    between atoms: C_3  and  N_73
REMARK    5  A    between atoms: N_9  and  C_10
REMARK    6  A    between atoms: C_10  and  C_11
REMARK    7  A    between atoms: C_11  and  C_12
REMARK    8  A    between atoms: C_18  and  C_19
REMARK    9  A    between atoms: C_18  and  N_73
REMARK   10  A    between atoms: C_24  and  O_31
REMARK   11  A    between atoms: O_31  and  C_32
REMARK   12  A    between atoms: C_33  and  N_73
REMARK                            x       y       z     vdW  Elec       q    Type
REMARK                         _______ _______ _______ _____ _____    ______ ____
ROOT
ATOM      1  N   UNL     1      -8.462  -1.268   4.378  0.00  0.00    +0.391 N 
ATOM      2  H   UNL     1      -7.717  -1.914   4.092  0.00  0.00    -0.080 HD
ENDROOT
BRANCH   1   3
ATOM      3  C   UNL     1      -8.423  -1.110   5.847  0.00  0.00    -0.067 C 
ATOM      4  C   UNL     1      -9.486  -0.110   6.307  0.00  0.00    -0.015 C 
ATOM      5  C   UNL     1      -9.424   0.035   7.829  0.00  0.00    -0.002 C 
ATOM      6  C   UNL     1      -8.038   0.541   8.237  0.00  0.00    -0.000 C 
ATOM      7  C   UNL     1      -6.975  -0.459   7.776  0.00  0.00    -0.002 C 
ATOM      8  C   UNL     1      -7.038  -0.605   6.255  0.00  0.00    -0.015 C 
ENDBRANCH   1   3
BRANCH   1   9
ATOM      9  C   UNL     1      -9.767  -1.827   3.964  0.00  0.00    +0.003 C 
BRANCH   9  10
ATOM     10  C   UNL     1     -10.767  -0.721   3.745  0.00  0.00    +0.138 A 
ATOM     11  N   UNL     1     -10.860   0.396   4.425  0.00  0.00    -0.115 NA
ATOM     12  N   UNL     1     -11.837   1.079   3.936  0.00  0.00    -0.023 NA
ATOM     13  N   UNL     1     -12.369   0.426   2.962  0.00  0.00    -0.044 NA
ATOM     14  N   UNL     1     -11.734  -0.686   2.810  0.00  0.00    -0.231 N 
BRANCH  14  15
ATOM     15  C   UNL     1     -12.015  -1.719   1.810  0.00  0.00    +0.152 C 
BRANCH  15  16
ATOM     16  C   UNL     1     -13.023  -2.719   2.379  0.00  0.00    +0.058 C 
BRANCH  16  17
ATOM     17  C   UNL     1     -13.312  -3.782   1.350  0.00  0.00    -0.046 A 
ATOM     18  C   UNL     1     -14.348  -3.610   0.452  0.00  0.00    +0.004 A 
ATOM     19  C   UNL     1     -14.610  -4.582  -0.496  0.00  0.00    +0.000 A 
ATOM     20  C   UNL     1     -13.843  -5.731  -0.537  0.00  0.00    +0.000 A 
ATOM     21  C   UNL     1     -12.810  -5.906   0.365  0.00  0.00    +0.000 A 
ATOM     22  C   UNL     1     -12.545  -4.931   1.309  0.00  0.00    +0.004 A 
ENDBRANCH  16  17
ENDBRANCH  15  16
ENDBRANCH  14  15
ENDBRANCH   9  10
BRANCH   9  24
ATOM     23  C   UNL     1      -9.338  -3.971   5.174  0.00  0.00    +0.002 C 
ATOM     24  C   UNL     1     -10.282  -2.773   5.051  0.00  0.00    -0.011 C 
ENDBRANCH   9  24
ENDBRANCH   1   9
BRANCH   1  25
ATOM     25  C   UNL     1      -8.242   0.039   3.723  0.00  0.00    -0.036 C 
BRANCH  25  26
ATOM     26  C   UNL     1      -8.025  -0.187   2.249  0.00  0.00    +0.001 A 
ATOM     27  C   UNL     1      -9.071  -0.090   1.389  0.00  0.00    +0.017 A 
ATOM     28  C   UNL     1      -8.828  -0.315  -0.035  0.00  0.00    -0.001 A 
ATOM     29  C   UNL     1      -9.868  -0.229  -0.969  0.00  0.00    +0.013 A 
ATOM     30  C   UNL     1      -9.611  -0.439  -2.292  0.00  0.00    +0.046 A 
ATOM     31  C   UNL     1      -8.321  -0.750  -2.721  0.00  0.00    +0.122 A 
ATOM     32  C   UNL     1      -7.279  -0.840  -1.815  0.00  0.00    +0.072 A 
ATOM     33  C   UNL     1      -7.522  -0.624  -0.464  0.00  0.00    +0.053 A 
ATOM     34  N   UNL     1      -6.503  -0.708   0.461  0.00  0.00    -0.322 N 
ATOM     35  H   UNL     1      -5.604  -0.921   0.165  0.00  0.00    +0.169 HD
ATOM     36  C   UNL     1      -6.737  -0.499   1.769  0.00  0.00    +0.251 A 
ATOM     37  O   UNL     1      -5.812  -0.582   2.559  0.00  0.00    -0.268 OA
BRANCH  31  38
ATOM     38  O   UNL     1      -8.084  -0.961  -4.042  0.00  0.00    -0.495 OA
ATOM     39  C   UNL     1      -9.201  -0.853  -4.926  0.00  0.00    +0.277 C 
ENDBRANCH  31  38
ENDBRANCH  25  26
ENDBRANCH   1  25
TORSDOF 10
