REMARK  Name = ZINC48363970
REMARK  6 active torsions:
REMARK  status: ('A' for Active; 'I' for Inactive)
REMARK    1  A    between atoms: C_4  and  C_7
REMARK    2  A    between atoms: C_7  and  C_13
REMARK    3  A    between atoms: C_13  and  N_14
REMARK    4  A    between atoms: C_15  and  C_17
REMARK    5  A    between atoms: C_17  and  S_18
REMARK    6  A    between atoms: S_18  and  C_19
REMARK                            x       y       z     vdW  Elec       q    Type
REMARK                         _______ _______ _______ _____ _____    ______ ____
ROOT
ATOM      1  N   UNL     1       4.795   1.006  -1.406  0.00  0.00    -0.314 N 
ATOM      2  C   UNL     1       5.359   1.516  -2.518  0.00  0.00    +0.223 C 
ATOM      3  O   UNL     1       5.576   0.799  -3.472  0.00  0.00    -0.275 OA
ATOM      4  H   UNL     1       4.621   1.580  -0.643  0.00  0.00    +0.149 HD
ENDROOT
BRANCH   1   5
ATOM      5  C   UNL     1       4.444  -0.415  -1.349  0.00  0.00    +0.116 C 
BRANCH   5   6
ATOM      6  C   UNL     1       3.781  -0.723  -0.004  0.00  0.00    +0.015 C 
ATOM      7  C   UNL     1       4.776  -0.462   1.131  0.00  0.00    +0.041 C 
ATOM      8  C   UNL     1       5.966  -1.415   0.985  0.00  0.00    +0.160 C 
ATOM      9  O   UNL     1       5.497  -2.765   0.996  0.00  0.00    -0.380 OA
ATOM     10  C   UNL     1       4.601  -3.080  -0.071  0.00  0.00    +0.160 C 
ATOM     11  C   UNL     1       3.356  -2.194   0.032  0.00  0.00    +0.041 C 
BRANCH   6  15
ATOM     12  C   UNL     1       0.348   1.768   0.503  0.00  0.00    +0.000 A 
ATOM     13  C   UNL     1       0.373   0.821  -0.504  0.00  0.00    +0.000 A 
ATOM     14  C   UNL     1       1.484   0.015  -0.668  0.00  0.00    +0.004 A 
ATOM     15  C   UNL     1       2.570   0.156   0.174  0.00  0.00    -0.040 A 
ATOM     16  C   UNL     1       2.546   1.103   1.181  0.00  0.00    +0.004 A 
ATOM     17  C   UNL     1       1.435   1.908   1.346  0.00  0.00    +0.000 A 
ENDBRANCH   6  15
ENDBRANCH   5   6
ENDBRANCH   1   5
BRANCH   2  18
ATOM     18  C   UNL     1       5.720   2.978  -2.577  0.00  0.00    +0.173 C 
BRANCH  18  19
ATOM     19  S   UNL     1       6.455   3.355  -4.192  0.00  0.00    -0.075 S 
BRANCH  19  20
ATOM     20  C   UNL     1       6.818   5.077  -4.104  0.00  0.00    +0.210 A 
ATOM     21  N   UNL     1       7.377   5.805  -5.078  0.00  0.00    -0.188 NA
ATOM     22  H   UNL     1       6.982   7.938  -2.871  0.00  0.00    +0.192 HD
ATOM     23  C   UNL     1       7.505   7.053  -4.680  0.00  0.00    +0.209 A 
ATOM     24  N   UNL     1       7.020   7.141  -3.424  0.00  0.00    -0.246 N 
ATOM     25  N   UNL     1       6.578   5.855  -3.076  0.00  0.00    -0.144 NA
ATOM     26  N   UNL     1       8.042   8.091  -5.420  0.00  0.00    -0.328 N 
ATOM     27  H   UNL     1       8.366   7.928  -6.319  0.00  0.00    +0.145 HD
ATOM     28  H   UNL     1       8.094   8.981  -5.039  0.00  0.00    +0.145 HD
ENDBRANCH  19  20
ENDBRANCH  18  19
ENDBRANCH   2  18
TORSDOF 6
