REMARK  Name = ZINC04227939
REMARK  8 active torsions:
REMARK  status: ('A' for Active; 'I' for Inactive)
REMARK    1  A    between atoms: C_1  and  O_2
REMARK    2  A    between atoms: O_2  and  C_3
REMARK    3  A    between atoms: C_6  and  O_9
REMARK    4  A    between atoms: O_9  and  C_10
REMARK    5  A    between atoms: C_11  and  C_31
REMARK    6  A    between atoms: C_18  and  O_22
REMARK    7  A    between atoms: O_22  and  C_23
REMARK    8  A    between atoms: C_23  and  C_24
REMARK                            x       y       z     vdW  Elec       q    Type
REMARK                         _______ _______ _______ _____ _____    ______ ____
ROOT
ATOM      1  C   UNL     1       2.909  -3.876   4.166  0.00  0.00    +0.178 C 
ATOM      2  C   UNL     1       2.347  -4.760   3.300  0.00  0.00    +0.169 C 
ATOM      3  N   UNL     1       2.256  -5.975   3.914  0.00  0.00    -0.260 N 
ATOM      4  N   UNL     1       2.778  -5.853   5.209  0.00  0.00    -0.263 N 
ATOM      5  C   UNL     1       3.189  -4.553   5.365  0.00  0.00    +0.099 C 
ATOM      6  C   UNL     1       3.784  -3.995   6.524  0.00  0.00    +0.048 C 
ATOM      7  C   UNL     1       3.673  -4.649   7.761  0.00  0.00    +0.017 C 
ATOM      8  C   UNL     1       4.245  -4.111   8.873  0.00  0.00    +0.046 C 
ATOM      9  C   UNL     1       4.948  -2.906   8.802  0.00  0.00    +0.125 C 
ATOM     10  C   UNL     1       5.076  -2.239   7.600  0.00  0.00    +0.097 C 
ATOM     11  C   UNL     1       4.502  -2.774   6.442  0.00  0.00    +0.191 C 
ATOM     12  O   UNL     1       4.613  -2.192   5.369  0.00  0.00    -0.287 OA
ATOM     13  H   UNL     1       1.892  -6.785   3.522  0.00  0.00    +0.170 HD
ATOM     14  H   UNL     1       2.841  -6.558   5.871  0.00  0.00    +0.170 HD
ENDROOT
BRANCH   2  15
ATOM     15  C   UNL     1       1.897  -4.450   1.896  0.00  0.00    +0.435 C 
ATOM     16  F   UNL     1       2.251  -3.135   1.573  0.00  0.00    -0.164 F 
ATOM     17  F   UNL     1       2.515  -5.332   1.003  0.00  0.00    -0.164 F 
ATOM     18  F   UNL     1       0.508  -4.594   1.808  0.00  0.00    -0.164 F 
ENDBRANCH   2  15
BRANCH   1  19
ATOM     19  O   UNL     1       3.163  -2.562   3.913  0.00  0.00    -0.452 OA
BRANCH  19  23
ATOM     20  C   UNL     1       0.800   0.262   5.779  0.00  0.00    +0.120 A 
ATOM     21  C   UNL     1       1.888   0.662   5.017  0.00  0.00    +0.049 A 
ATOM     22  C   UNL     1       2.679  -0.283   4.392  0.00  0.00    +0.050 A 
ATOM     23  C   UNL     1       2.385  -1.632   4.527  0.00  0.00    +0.129 A 
ATOM     24  C   UNL     1       1.297  -2.032   5.290  0.00  0.00    +0.050 A 
ATOM     25  C   UNL     1       0.509  -1.087   5.918  0.00  0.00    +0.049 A 
BRANCH  20  27
ATOM     26  C   UNL     1       0.379   2.563   6.207  0.00  0.00    +0.277 C 
ATOM     27  O   UNL     1       0.022   1.192   6.394  0.00  0.00    -0.495 OA
ENDBRANCH  20  27
ENDBRANCH  19  23
ENDBRANCH   1  19
BRANCH   9  28
ATOM     28  O   UNL     1       5.510  -2.388   9.923  0.00  0.00    -0.487 OA
BRANCH  28  29
ATOM     29  C   UNL     1       6.216  -1.153   9.783  0.00  0.00    +0.264 C 
BRANCH  29  30
ATOM     30  C   UNL     1       6.766  -0.735  11.122  0.00  0.00    -0.010 A 
ATOM     31  C   UNL     1       6.007   0.055  11.966  0.00  0.00    +0.008 A 
ATOM     32  C   UNL     1       6.512   0.439  13.194  0.00  0.00    +0.020 A 
ATOM     33  C   UNL     1       7.777   0.033  13.579  0.00  0.00    +0.041 A 
ATOM     34  C   UNL     1       8.536  -0.757  12.735  0.00  0.00    +0.020 A 
ATOM     35  C   UNL     1       8.028  -1.145  11.509  0.00  0.00    +0.008 A 
ATOM     36 CL   UNL     1       8.411   0.515  15.121  0.00  0.00    -0.084 Cl
ENDBRANCH  29  30
ENDBRANCH  28  29
ENDBRANCH   9  28
TORSDOF 7
