REMARK  Name = ZINC14269429
REMARK  7 active torsions:
REMARK  status: ('A' for Active; 'I' for Inactive)
REMARK    1  A    between atoms: C_1  and  C_2
REMARK    2  A    between atoms: C_7  and  N_8
REMARK    3  A    between atoms: N_8  and  C_9
REMARK    4  A    between atoms: C_9  and  N_11
REMARK    5  A    between atoms: C_12  and  C_14
REMARK    6  A    between atoms: C_17  and  C_19
REMARK    7  A    between atoms: C_24  and  N_25
REMARK                            x       y       z     vdW  Elec       q    Type
REMARK                         _______ _______ _______ _____ _____    ______ ____
ROOT
ATOM      1  N   UNL     1       2.787   6.635   2.535  0.00  0.00    -0.261 N 
ATOM      2  C   UNL     1       1.659   6.804   1.817  0.00  0.00    +0.285 C 
ATOM      3  O   UNL     1       1.131   7.899   1.762  0.00  0.00    -0.266 OA
ATOM      4  H   UNL     1       3.208   5.762   2.579  0.00  0.00    +0.157 HD
ENDROOT
BRANCH   2   5
ATOM      5  C   UNL     1       1.069   5.670   1.103  0.00  0.00    +0.190 A 
ATOM      6  C   UNL     1      -0.076   5.704   0.336  0.00  0.00    +0.055 A 
ATOM      7  C   UNL     1      -0.271   4.409  -0.154  0.00  0.00    +0.051 A 
ATOM      8  C   UNL     1       0.750   3.639   0.325  0.00  0.00    +0.138 A 
ATOM      9  O   UNL     1       1.547   4.408   1.086  0.00  0.00    -0.450 OA
BRANCH   8  10
ATOM     10  C   UNL     1       0.942   2.200   0.058  0.00  0.00    +0.047 A 
ATOM     11  C   UNL     1      -0.114   1.305   0.241  0.00  0.00    +0.014 A 
ATOM     12  C   UNL     1       0.072  -0.038  -0.012  0.00  0.00    +0.001 A 
ATOM     13  C   UNL     1       1.303  -0.500  -0.445  0.00  0.00    +0.002 A 
ATOM     14  C   UNL     1       2.354   0.381  -0.628  0.00  0.00    +0.033 A 
ATOM     15  C   UNL     1       2.181   1.727  -0.380  0.00  0.00    +0.137 A 
BRANCH  15  16
ATOM     16  N   UNL     1       3.307   2.668  -0.577  0.00  0.00    +0.057 N 
ATOM     17  O   UNL     1       4.387   2.255  -0.959  0.00  0.00    -0.126 OA
ATOM     18  O   UNL     1       3.153   3.856  -0.357  0.00  0.00    -0.126 OA
ENDBRANCH  15  16
ENDBRANCH   8  10
ENDBRANCH   2   5
BRANCH   1  19
ATOM     19  C   UNL     1       3.330   7.678   3.192  0.00  0.00    +0.141 C 
ATOM     20  S   UNL     1       2.588   9.219   3.114  0.00  0.00    -0.018 S 
BRANCH  19  21
ATOM     21  N   UNL     1       4.458   7.509   3.910  0.00  0.00    -0.296 N 
ATOM     22  H   UNL     1       4.835   6.622   4.019  0.00  0.00    +0.154 HD
BRANCH  21  29
ATOM     23  C   UNL     1       5.360   7.269   6.598  0.00  0.00    +0.046 C 
ATOM     24  C   UNL     1       5.541   8.539   5.807  0.00  0.00    -0.028 A 
ATOM     25  C   UNL     1       6.165   9.629   6.382  0.00  0.00    +0.020 A 
ATOM     26  C   UNL     1       6.327  10.797   5.659  0.00  0.00    +0.018 A 
ATOM     27  C   UNL     1       5.869  10.876   4.355  0.00  0.00    +0.017 A 
ATOM     28  C   UNL     1       5.250   9.787   3.773  0.00  0.00    +0.024 A 
ATOM     29  C   UNL     1       5.086   8.613   4.497  0.00  0.00    +0.036 A 
ATOM     30 BR   UNL     1       7.174  12.289   6.453  0.00  0.00    -0.050 Br
ENDBRANCH  21  29
ENDBRANCH  19  21
ENDBRANCH   1  19
TORSDOF 6
