REMARK  Name = ZINC18270760
REMARK  9 active torsions:
REMARK  status: ('A' for Active; 'I' for Inactive)
REMARK    1  A    between atoms: C_1  and  C_2
REMARK    2  A    between atoms: C_3  and  C_28
REMARK    3  A    between atoms: C_4  and  N_27
REMARK    4  A    between atoms: C_9  and  C_10
REMARK    5  A    between atoms: C_13  and  O_17
REMARK    6  A    between atoms: O_17  and  C_18
REMARK    7  A    between atoms: C_18  and  C_19
REMARK    8  A    between atoms: C_22  and  C_26
REMARK    9  A    between atoms: C_23  and  C_24
REMARK                            x       y       z     vdW  Elec       q    Type
REMARK                         _______ _______ _______ _____ _____    ______ ____
ROOT
ATOM      1  C   UNL     1      -2.924   1.837  -0.548  0.00  0.00    +0.046 C 
ATOM      2  C   UNL     1      -1.558   2.439  -0.756  0.00  0.00    -0.020 A 
ATOM      3  C   UNL     1      -1.415   3.733  -1.269  0.00  0.00    +0.095 A 
ATOM      4  C   UNL     1      -0.121   4.262  -1.443  0.00  0.00    +0.135 A 
ATOM      5  N   UNL     1       0.950   3.554  -1.133  0.00  0.00    -0.230 NA
ATOM      6  C   UNL     1       0.856   2.319  -0.646  0.00  0.00    +0.092 A 
ATOM      7  C   UNL     1      -0.408   1.725  -0.446  0.00  0.00    +0.013 A 
ATOM      8  C   UNL     1      -0.171   0.372   0.096  0.00  0.00    -0.011 C 
ATOM      9  C   UNL     1      -1.141  -0.552   0.436  0.00  0.00    +0.017 C 
ATOM     10  C   UNL     1       1.226   0.192   0.206  0.00  0.00    -0.023 C 
ATOM     11  C   UNL     1       1.868   1.334  -0.228  0.00  0.00    +0.081 C 
ATOM     12  C   UNL     1       1.908  -1.050   0.719  0.00  0.00    +0.046 C 
ENDROOT
BRANCH   9  13
ATOM     13  C   UNL     1      -2.409  -0.104   1.011  0.00  0.00    -0.021 A 
ATOM     14  C   UNL     1      -2.425   0.929   1.961  0.00  0.00    +0.031 A 
ATOM     15  C   UNL     1      -3.622   1.350   2.495  0.00  0.00    +0.085 A 
ATOM     16  C   UNL     1      -4.813   0.746   2.103  0.00  0.00    +0.158 A 
ATOM     17  C   UNL     1      -4.803  -0.282   1.164  0.00  0.00    +0.085 A 
ATOM     18  C   UNL     1      -3.613  -0.708   0.619  0.00  0.00    +0.031 A 
ATOM     19 CL   UNL     1      -6.294  -1.029   0.681  0.00  0.00    -0.080 Cl
ATOM     20 CL   UNL     1      -3.645   2.632   3.666  0.00  0.00    -0.080 Cl
BRANCH  16  21
ATOM     21  O   UNL     1      -5.989   1.161   2.637  0.00  0.00    -0.478 OA
BRANCH  21  22
ATOM     22  C   UNL     1      -6.428   0.506   3.829  0.00  0.00    +0.354 C 
BRANCH  22  23
ATOM     23  C   UNL     1      -7.742   1.096   4.272  0.00  0.00    +0.393 C 
ATOM     24  O   UNL     1      -8.251   1.986   3.632  0.00  0.00    -0.243 OA
ATOM     25  O   UNL     1      -8.348   0.633   5.377  0.00  0.00    -0.243 OA
ENDBRANCH  22  23
ENDBRANCH  21  22
ENDBRANCH  16  21
ENDBRANCH   9  13
BRANCH   4  26
ATOM     26  N   UNL     1       0.031   5.543  -1.945  0.00  0.00    -0.342 N 
ATOM     27  H   UNL     1       0.919   5.914  -2.067  0.00  0.00    +0.144 HD
ATOM     28  H   UNL     1      -0.751   6.069  -2.175  0.00  0.00    +0.144 HD
ENDBRANCH   4  26
BRANCH  11  29
ATOM     29  C   UNL     1       3.286   1.529  -0.266  0.00  0.00    +0.102 C 
ATOM     30  N   UNL     1       4.411   1.684  -0.296  0.00  0.00    -0.191 NA
ENDBRANCH  11  29
BRANCH   3  31
ATOM     31  C   UNL     1      -2.568   4.511  -1.609  0.00  0.00    +0.103 C 
ATOM     32  N   UNL     1      -3.483   5.129  -1.878  0.00  0.00    -0.191 NA
ENDBRANCH   3  31
TORSDOF 7
