REMARK  Name = ZINC39515067
REMARK  9 active torsions:
REMARK  status: ('A' for Active; 'I' for Inactive)
REMARK    1  A    between atoms: C_3  and  C_6
REMARK    2  A    between atoms: C_6  and  C_8
REMARK    3  A    between atoms: C_6  and  N_28
REMARK    4  A    between atoms: C_8  and  N_9
REMARK    5  A    between atoms: C_10  and  C_12
REMARK    6  A    between atoms: C_12  and  N_13
REMARK    7  A    between atoms: C_14  and  C_16
REMARK    8  A    between atoms: C_16  and  N_17
REMARK    9  A    between atoms: C_18  and  C_20
REMARK                            x       y       z     vdW  Elec       q    Type
REMARK                         _______ _______ _______ _____ _____    ______ ____
ROOT
ATOM      1  C   UNL     1       8.220   1.943   2.002  0.00  0.00    +0.200 C 
ENDROOT
BRANCH   1   3
ATOM      2  N   UNL     1       5.900   1.909   1.145  0.00  0.00    -0.312 N 
ATOM      3  C   UNL     1       6.739   1.729   2.184  0.00  0.00    +0.230 C 
ATOM      4  O   UNL     1       6.303   1.395   3.266  0.00  0.00    -0.274 OA
ATOM      5  H   UNL     1       6.249   2.175   0.281  0.00  0.00    +0.149 HD
BRANCH   2   6
ATOM      6  C   UNL     1       4.461   1.700   1.323  0.00  0.00    +0.128 C 
BRANCH   6   7
ATOM      7  C   UNL     1       3.756   1.834  -0.029  0.00  0.00    +0.111 C 
BRANCH   7   8
ATOM      8  N   UNL     1       4.106   3.124  -0.638  0.00  0.00    -0.289 NA
ATOM      9  C   UNL     1       3.740   4.240   0.245  0.00  0.00    +0.113 C 
ATOM     10  C   UNL     1       4.175   5.559  -0.400  0.00  0.00    +0.175 C 
ATOM     11  O   UNL     1       3.574   5.672  -1.693  0.00  0.00    -0.377 OA
ATOM     12  C   UNL     1       3.909   4.601  -2.579  0.00  0.00    +0.175 C 
ATOM     13  C   UNL     1       3.471   3.273  -1.956  0.00  0.00    +0.113 C 
ENDBRANCH   7   8
BRANCH   7  16
ATOM     14  C   UNL     1       4.155  -1.335  -2.105  0.00  0.00    +0.008 A 
ATOM     15  C   UNL     1       3.556  -0.444  -1.235  0.00  0.00    +0.013 A 
ATOM     16  C   UNL     1       4.195   0.714  -0.937  0.00  0.00    +0.008 A 
ATOM     17  S   UNL     1       5.691   0.568  -1.899  0.00  0.00    -0.100 S 
ATOM     18  C   UNL     1       5.364  -1.026  -2.634  0.00  0.00    +0.045 A 
ENDBRANCH   7  16
ENDBRANCH   6   7
ENDBRANCH   2   6
ENDBRANCH   1   3
BRANCH   1  19
ATOM     19  N   UNL     1       8.910   1.687   3.269  0.00  0.00    -0.305 N 
ATOM     20  C   UNL     1      10.249   1.817   3.345  0.00  0.00    +0.231 C 
ATOM     21  O   UNL     1      10.883   2.146   2.365  0.00  0.00    -0.274 OA
ATOM     22  H   UNL     1       8.403   1.424   4.053  0.00  0.00    +0.149 HD
BRANCH  20  23
ATOM     23  C   UNL     1      10.959   1.554   4.648  0.00  0.00    +0.200 C 
BRANCH  23  24
ATOM     24  N   UNL     1      12.398   1.762   4.471  0.00  0.00    -0.303 N 
ATOM     25  C   UNL     1      13.238   1.582   5.510  0.00  0.00    +0.246 C 
ATOM     26  O   UNL     1      12.801   1.248   6.594  0.00  0.00    -0.270 OA
ATOM     27  H   UNL     1      12.747   2.029   3.606  0.00  0.00    +0.150 HD
BRANCH  25  28
ATOM     28  C   UNL     1      14.689   1.792   5.332  0.00  0.00    +0.055 A 
ATOM     29  C   UNL     1      15.194   2.182   4.089  0.00  0.00    +0.016 A 
ATOM     30  C   UNL     1      16.549   2.376   3.929  0.00  0.00    +0.021 A 
ATOM     31  C   UNL     1      17.411   2.185   4.997  0.00  0.00    +0.042 A 
ATOM     32  C   UNL     1      16.919   1.798   6.231  0.00  0.00    +0.040 A 
ATOM     33  C   UNL     1      15.562   1.607   6.407  0.00  0.00    +0.054 A 
ATOM     34 CL   UNL     1      14.944   1.130   7.957  0.00  0.00    -0.083 Cl
ATOM     35 CL   UNL     1      19.116   2.431   4.785  0.00  0.00    -0.083 Cl
ENDBRANCH  25  28
ENDBRANCH  23  24
ENDBRANCH  20  23
ENDBRANCH   1  19
TORSDOF 9
