REMARK  Name = ZINC20885336
REMARK  4 active torsions:
REMARK  status: ('A' for Active; 'I' for Inactive)
REMARK    1  A    between atoms: N_9  and  N_10
REMARK    2  A    between atoms: C_11  and  C_13
REMARK    3  A    between atoms: C_15  and  N_21
REMARK    4  A    between atoms: C_23  and  O_25
REMARK                            x       y       z     vdW  Elec       q    Type
REMARK                         _______ _______ _______ _____ _____    ______ ____
ROOT
ATOM      1  N   UNL     1       5.616  -1.728  -0.061  0.00  0.00    -0.201 N 
ATOM      2  C   UNL     1       6.138  -2.971  -0.072  0.00  0.00    +0.283 C 
ATOM      3  O   UNL     1       5.404  -3.938  -0.070  0.00  0.00    -0.267 OA
ATOM      4  H   UNL     1       6.202  -0.956  -0.062  0.00  0.00    +0.178 HD
ENDROOT
BRANCH   1  13
ATOM      5  C   UNL     1      -0.017   1.383   0.010  0.00  0.00    +0.040 A 
ATOM      6  C   UNL     1       1.158   2.104   0.002  0.00  0.00    +0.031 A 
ATOM      7  C   UNL     1       2.388   1.439  -0.013  0.00  0.00    +0.077 A 
ATOM      8  C   UNL     1       2.398   0.030  -0.021  0.00  0.00    +0.035 A 
ATOM      9  C   UNL     1       1.208  -0.683  -0.013  0.00  0.00    +0.050 A 
ATOM     10  C   UNL     1       0.002  -0.004   0.002  0.00  0.00    +0.124 A 
ATOM     11  F   UNL     1      -1.159  -0.694   0.010  0.00  0.00    -0.205 F 
ATOM     12  C   UNL     1       3.828  -0.356  -0.036  0.00  0.00    +0.152 C 
ATOM     13  N   UNL     1       4.336  -1.567  -0.048  0.00  0.00    -0.174 NA
ATOM     14  C   UNL     1       4.550   0.931  -0.036  0.00  0.00    +0.241 C 
ATOM     15  N   UNL     1       3.668   1.896  -0.023  0.00  0.00    -0.211 NA
BRANCH  14  16
ATOM     16  O   UNL     1       5.896   1.086  -0.048  0.00  0.00    -0.491 OA
ATOM     17  H   UNL     1       6.186   2.008  -0.046  0.00  0.00    +0.294 HD
ENDBRANCH  14  16
ENDBRANCH   1  13
BRANCH   2  18
ATOM     18  C   UNL     1       7.606  -3.156  -0.087  0.00  0.00    +0.149 A 
ATOM     19  C   UNL     1       8.138  -4.442  -0.105  0.00  0.00    +0.094 A 
ATOM     20  C   UNL     1       9.524  -4.600  -0.119  0.00  0.00    +0.067 A 
ATOM     21  C   UNL     1      10.320  -3.456  -0.115  0.00  0.00    +0.100 A 
ATOM     22  C   UNL     1       9.715  -2.209  -0.097  0.00  0.00    +0.150 A 
ATOM     23  N   UNL     1       8.404  -2.092  -0.089  0.00  0.00    -0.228 NA
ATOM     24 CL   UNL     1      10.701  -0.780  -0.092  0.00  0.00    -0.060 Cl
ATOM     25 CL   UNL     1      12.051  -3.591  -0.132  0.00  0.00    -0.078 Cl
ATOM     26 CL   UNL     1       7.093  -5.829  -0.108  0.00  0.00    -0.079 Cl
BRANCH  20  27
ATOM     27  N   UNL     1      10.099  -5.869  -0.137  0.00  0.00    -0.356 N 
ATOM     28  H   UNL     1       9.533  -6.658  -0.139  0.00  0.00    +0.142 HD
ATOM     29  H   UNL     1      11.064  -5.965  -0.147  0.00  0.00    +0.142 HD
ENDBRANCH  20  27
ENDBRANCH   2  18
TORSDOF 4
