REMARK  Name = ZINC02240390
REMARK  10 active torsions:
REMARK  status: ('A' for Active; 'I' for Inactive)
REMARK    1  A    between atoms: C_1  and  C_2
REMARK    2  A    between atoms: C_2  and  C_35
REMARK    3  A    between atoms: C_6  and  C_24
REMARK    4  A    between atoms: C_8  and  C_22
REMARK    5  A    between atoms: C_9  and  N_21
REMARK    6  A    between atoms: N_10  and  C_11
REMARK    7  A    between atoms: C_14  and  S_17
REMARK    8  A    between atoms: S_17  and  N_20
REMARK    9  A    between atoms: C_27  and  O_30
REMARK   10  A    between atoms: O_30  and  C_31
REMARK                            x       y       z     vdW  Elec       q    Type
REMARK                         _______ _______ _______ _____ _____    ______ ____
ROOT
ATOM      1  C   UNL     1       0.149   5.117   2.081  0.00  0.00    +0.011 C 
ATOM      2  C   UNL     1       0.074   5.482   0.597  0.00  0.00    -0.023 C 
ATOM      3  C   UNL     1      -0.007   4.206  -0.243  0.00  0.00    +0.058 C 
ATOM      4  C   UNL     1      -1.257   3.441   0.116  0.00  0.00    +0.025 C 
ATOM      5  C   UNL     1      -2.369   4.082   0.534  0.00  0.00    +0.025 C 
ATOM      6  C   UNL     1      -3.617   3.316   0.895  0.00  0.00    +0.097 C 
ATOM      7  C   UNL     1      -3.582   1.927   0.329  0.00  0.00    +0.077 C 
ATOM      8  C   UNL     1      -2.416   1.366  -0.089  0.00  0.00    +0.107 C 
ATOM      9  N   UNL     1      -1.240   2.075   0.005  0.00  0.00    -0.260 N 
ATOM     10  C   UNL     1      -2.397   5.483   0.650  0.00  0.00    +0.162 C 
ATOM     11  O   UNL     1      -3.420   6.031   1.012  0.00  0.00    -0.292 OA
ATOM     12  C   UNL     1      -1.185   6.316   0.336  0.00  0.00    +0.086 C 
ATOM     13  C   UNL     1       1.317   6.281   0.200  0.00  0.00    +0.011 C 
ENDROOT
BRANCH   9  14
ATOM     14  C   UNL     1      -0.016   1.396  -0.019  0.00  0.00    +0.040 A 
ATOM     15  C   UNL     1       0.617   1.145  -1.230  0.00  0.00    +0.026 A 
ATOM     16  C   UNL     1       1.822   0.471  -1.250  0.00  0.00    +0.030 A 
ATOM     17  C   UNL     1       2.398   0.044  -0.067  0.00  0.00    +0.105 A 
ATOM     18  C   UNL     1       1.770   0.292   1.140  0.00  0.00    +0.030 A 
ATOM     19  C   UNL     1       0.565   0.967   1.167  0.00  0.00    +0.026 A 
BRANCH  17  20
ATOM     20  S   UNL     1       3.935  -0.816  -0.098  0.00  0.00    +0.056 S 
ATOM     21  O   UNL     1       4.585  -0.443  -1.305  0.00  0.00    -0.153 OA
ATOM     22  O   UNL     1       4.531  -0.628   1.178  0.00  0.00    -0.153 OA
BRANCH  20  23
ATOM     23  N   UNL     1       3.590  -2.431  -0.226  0.00  0.00    -0.204 NA
ATOM     24  H   UNL     1       4.209  -3.025  -0.678  0.00  0.00    +0.144 HD
ATOM     25  H   UNL     1       2.768  -2.783   0.152  0.00  0.00    +0.144 HD
ENDBRANCH  20  23
ENDBRANCH  17  20
ENDBRANCH   9  14
BRANCH   6  26
ATOM     26  C   UNL     1      -3.731   3.236   2.395  0.00  0.00    -0.034 A 
ATOM     27  C   UNL     1      -2.735   2.621   3.131  0.00  0.00    +0.008 A 
ATOM     28  C   UNL     1      -2.835   2.551   4.507  0.00  0.00    +0.046 A 
ATOM     29  C   UNL     1      -3.941   3.089   5.150  0.00  0.00    +0.120 A 
ATOM     30  C   UNL     1      -4.941   3.701   4.409  0.00  0.00    +0.046 A 
ATOM     31  C   UNL     1      -4.834   3.773   3.033  0.00  0.00    +0.008 A 
BRANCH  29  32
ATOM     32  O   UNL     1      -4.043   3.017   6.503  0.00  0.00    -0.495 OA
ATOM     33  C   UNL     1      -2.976   2.373   7.201  0.00  0.00    +0.277 C 
ENDBRANCH  29  32
ENDBRANCH   6  26
BRANCH   8  34
ATOM     34  N   UNL     1      -2.410   0.091  -0.601  0.00  0.00    -0.345 N 
ATOM     35  H   UNL     1      -1.568  -0.340  -0.818  0.00  0.00    +0.144 HD
ATOM     36  H   UNL     1      -3.246  -0.378  -0.745  0.00  0.00    +0.144 HD
ENDBRANCH   8  34
BRANCH   7  37
ATOM     37  C   UNL     1      -4.799   1.179   0.223  0.00  0.00    +0.099 C 
ATOM     38  N   UNL     1      -5.765   0.587   0.139  0.00  0.00    -0.191 NA
ENDBRANCH   7  37
TORSDOF 7
