REMARK  Name = ZINC44786279
REMARK  6 active torsions:
REMARK  status: ('A' for Active; 'I' for Inactive)
REMARK    1  A    between atoms: C_1  and  C_2
REMARK    2  A    between atoms: C_2  and  C_4
REMARK    3  A    between atoms: C_2  and  N_11
REMARK    4  A    between atoms: C_12  and  C_14
REMARK    5  A    between atoms: C_14  and  C_19
REMARK    6  A    between atoms: N_20  and  O_21
REMARK                            x       y       z     vdW  Elec       q    Type
REMARK                         _______ _______ _______ _____ _____    ______ ____
ROOT
ATOM      1  N   UNL     1       0.638  -0.528   1.248  0.00  0.00    -0.308 N 
ATOM      2  C   UNL     1      -0.113  -0.724   2.350  0.00  0.00    +0.227 C 
ATOM      3  O   UNL     1      -1.317  -0.586   2.297  0.00  0.00    -0.275 OA
ATOM      4  H   UNL     1       1.590  -0.710   1.271  0.00  0.00    +0.149 HD
ENDROOT
BRANCH   2   5
ATOM      5  C   UNL     1       0.544  -1.115   3.649  0.00  0.00    +0.105 C 
ATOM      6  C   UNL     1      -0.516  -1.222   4.765  0.00  0.00    +0.024 C 
ATOM      7  C   UNL     1      -0.873  -2.728   4.806  0.00  0.00    +0.001 C 
ATOM      8  C   UNL     1       0.495  -3.411   4.558  0.00  0.00    +0.001 C 
ATOM      9  C   UNL     1       1.186  -2.507   3.518  0.00  0.00    +0.024 C 
BRANCH   5  10
ATOM     10  C   UNL     1       1.590  -0.097   4.025  0.00  0.00    +0.147 C 
ATOM     11  N   UNL     1       2.834  -0.438   4.075  0.00  0.00    -0.076 NA
ATOM     12  N   UNL     1       1.218   1.197   4.315  0.00  0.00    -0.343 N 
ATOM     13  H   UNL     1       0.279   1.436   4.349  0.00  0.00    +0.144 HD
ATOM     14  H   UNL     1       1.896   1.870   4.485  0.00  0.00    +0.144 HD
BRANCH  11  15
ATOM     15  O   UNL     1       3.817   0.518   4.428  0.00  0.00    -0.408 OA
ATOM     16  H   UNL     1       4.719   0.170   4.438  0.00  0.00    +0.328 HD
ENDBRANCH  11  15
ENDBRANCH   5  10
ENDBRANCH   2   5
BRANCH   1  18
ATOM     17  C   UNL     1       0.034   1.489   0.004  0.00  0.00    +0.033 C 
ATOM     18  C   UNL     1       0.015  -0.041   0.015  0.00  0.00    +0.102 C 
BRANCH  18  19
ATOM     19  C   UNL     1       0.781  -0.561  -1.174  0.00  0.00    -0.009 A 
ATOM     20  C   UNL     1       2.124  -0.862  -1.053  0.00  0.00    +0.007 A 
ATOM     21  C   UNL     1       2.827  -1.339  -2.144  0.00  0.00    +0.000 A 
ATOM     22  C   UNL     1       2.186  -1.515  -3.356  0.00  0.00    +0.001 A 
ATOM     23  C   UNL     1       0.843  -1.214  -3.479  0.00  0.00    +0.020 A 
ATOM     24  C   UNL     1       0.138  -0.742  -2.386  0.00  0.00    +0.046 A 
ATOM     25 CL   UNL     1      -1.551  -0.369  -2.537  0.00  0.00    -0.083 Cl
ENDBRANCH  18  19
ENDBRANCH   1  18
TORSDOF 5
