REMARK  Name = ZINC39675373
REMARK  12 active torsions:
REMARK  status: ('A' for Active; 'I' for Inactive)
REMARK    1  A    between atoms: C_1  and  C_2
REMARK    2  A    between atoms: C_2  and  S_3
REMARK    3  A    between atoms: S_3  and  C_4
REMARK    4  A    between atoms: C_5  and  C_10
REMARK    5  A    between atoms: C_14  and  C_23
REMARK    6  A    between atoms: N_25  and  C_26
REMARK    7  A    between atoms: C_26  and  C_28
REMARK    8  A    between atoms: C_26  and  C_29
REMARK    9  A    between atoms: C_29  and  C_30
REMARK   10  A    between atoms: C_30  and  C_31
REMARK   11  A    between atoms: C_34  and  O_37
REMARK   12  A    between atoms: O_37  and  C_38
REMARK                            x       y       z     vdW  Elec       q    Type
REMARK                         _______ _______ _______ _____ _____    ______ ____
ROOT
ATOM      1  C   UNL     1      -4.181  -2.457   0.100  0.00  0.00    +0.249 C 
ATOM      2  O   UNL     1      -4.409  -1.269   0.219  0.00  0.00    -0.270 OA
ATOM      3  N   UNL     1      -5.200  -3.329  -0.032  0.00  0.00    -0.296 N 
ATOM      4  C   UNL     1      -5.129  -4.808  -0.081  0.00  0.00    +0.121 C 
ATOM      5  C   UNL     1      -6.352  -5.285   0.734  0.00  0.00    +0.100 C 
ATOM      6  C   UNL     1      -7.344  -4.111   0.676  0.00  0.00    -0.004 C 
ATOM      7  C   UNL     1      -6.646  -3.025  -0.155  0.00  0.00    +0.115 C 
ATOM      8  C   UNL     1      -7.628  -3.590   2.082  0.00  0.00    -0.010 C 
ATOM      9  C   UNL     1      -8.660  -2.461   2.003  0.00  0.00    -0.082 C 
ATOM     10  N   UNL     1      -9.893  -2.965   1.388  0.00  0.00    +0.379 N 
ATOM     11  C   UNL     1      -9.630  -3.378   0.004  0.00  0.00    -0.082 C 
ATOM     12  C   UNL     1      -8.639  -4.546  -0.003  0.00  0.00    -0.010 C 
ATOM     13  H   UNL     1     -10.232  -3.756   1.915  0.00  0.00    -0.086 HD
ATOM     14  H   UNL     1     -10.592  -2.237   1.393  0.00  0.00    -0.086 HD
ENDROOT
BRANCH   1  16
ATOM     15  C   UNL     1      -1.816  -2.331   0.909  0.00  0.00    +0.109 A 
ATOM     16  C   UNL     1      -2.789  -2.945   0.101  0.00  0.00    +0.069 A 
ATOM     17  C   UNL     1      -2.413  -4.026  -0.703  0.00  0.00    +0.017 A 
ATOM     18  C   UNL     1      -1.095  -4.446  -0.666  0.00  0.00    +0.020 A 
ATOM     19  C   UNL     1      -0.194  -3.792   0.155  0.00  0.00    +0.112 A 
ATOM     20  N   UNL     1      -0.566  -2.771   0.902  0.00  0.00    -0.248 NA
BRANCH  15  21
ATOM     21  S   UNL     1      -2.259  -0.966   1.932  0.00  0.00    -0.105 S 
BRANCH  21  23
ATOM     22  C   UNL     1      -0.955   0.671   3.692  0.00  0.00    +0.015 C 
ATOM     23  C   UNL     1      -0.709  -0.517   2.761  0.00  0.00    +0.072 C 
ENDBRANCH  21  23
ENDBRANCH  15  21
ENDBRANCH   1  16
BRANCH   5  24
ATOM     24  C   UNL     1      -5.954  -5.569   2.159  0.00  0.00    +0.218 C 
ATOM     25  O   UNL     1      -5.054  -4.941   2.674  0.00  0.00    -0.275 OA
ATOM     26  N   UNL     1      -6.599  -6.522   2.862  0.00  0.00    -0.312 N 
ATOM     27  H   UNL     1      -7.319  -7.024   2.450  0.00  0.00    +0.149 HD
BRANCH  26  28
ATOM     28  C   UNL     1      -6.212  -6.798   4.247  0.00  0.00    +0.070 C 
ATOM     29  C   UNL     1      -5.043  -7.785   4.263  0.00  0.00    +0.028 C 
BRANCH  28  30
ATOM     30  C   UNL     1      -7.400  -7.404   4.997  0.00  0.00    +0.026 C 
BRANCH  30  31
ATOM     31  C   UNL     1      -8.525  -6.370   5.090  0.00  0.00    +0.037 C 
BRANCH  31  32
ATOM     32  C   UNL     1      -9.695  -6.966   5.829  0.00  0.00    -0.047 A 
ATOM     33  C   UNL     1     -10.680  -7.643   5.132  0.00  0.00    +0.007 A 
ATOM     34  C   UNL     1     -11.754  -8.190   5.807  0.00  0.00    +0.046 A 
ATOM     35  C   UNL     1     -11.844  -8.060   7.185  0.00  0.00    +0.120 A 
ATOM     36  C   UNL     1     -10.855  -7.381   7.882  0.00  0.00    +0.046 A 
ATOM     37  C   UNL     1      -9.780  -6.841   7.203  0.00  0.00    +0.007 A 
BRANCH  35  38
ATOM     38  O   UNL     1     -12.900  -8.597   7.851  0.00  0.00    -0.495 OA
ATOM     39  C   UNL     1     -12.927  -8.425   9.270  0.00  0.00    +0.277 C 
ENDBRANCH  35  38
ENDBRANCH  31  32
ENDBRANCH  30  31
ENDBRANCH  28  30
ENDBRANCH  26  28
ENDBRANCH   5  24
TORSDOF 9
