REMARK  Name = ZINC22238237
REMARK  12 active torsions:
REMARK  status: ('A' for Active; 'I' for Inactive)
REMARK    1  A    between atoms: C_1  and  C_2
REMARK    2  A    between atoms: C_5  and  S_8
REMARK    3  A    between atoms: S_8  and  N_11
REMARK    4  A    between atoms: N_11  and  C_12
REMARK    5  A    between atoms: C_12  and  C_14
REMARK    6  A    between atoms: C_12  and  C_18
REMARK    7  A    between atoms: C_14  and  C_15
REMARK    8  A    between atoms: C_15  and  C_16
REMARK    9  A    between atoms: C_15  and  C_17
REMARK   10  A    between atoms: C_18  and  N_20
REMARK   11  A    between atoms: C_23  and  C_26
REMARK   12  A    between atoms: C_26  and  N_27
REMARK                            x       y       z     vdW  Elec       q    Type
REMARK                         _______ _______ _______ _____ _____    ______ ____
ROOT
ATOM      1  C   UNL     1       2.614  -4.617   1.121  0.00  0.00    +0.164 C 
ENDROOT
BRANCH   1   2
ATOM      2  N   UNL     1       1.726  -4.876  -0.015  0.00  0.00    -0.178 NA
ATOM      3  H   UNL     1       1.738  -5.741  -0.453  0.00  0.00    +0.149 HD
BRANCH   2   4
ATOM      4  S   UNL     1       0.701  -3.690  -0.551  0.00  0.00    +0.059 S 
ATOM      5  O   UNL     1       0.010  -3.204   0.592  0.00  0.00    -0.153 OA
ATOM      6  O   UNL     1       0.024  -4.220  -1.682  0.00  0.00    -0.153 OA
BRANCH   4  11
ATOM      7  C   UNL     1       4.122   0.856  -2.560  0.00  0.00    +0.044 C 
ATOM      8  C   UNL     1       3.267  -0.280  -2.058  0.00  0.00    -0.050 A 
ATOM      9  C   UNL     1       2.883  -1.289  -2.921  0.00  0.00    +0.005 A 
ATOM     10  C   UNL     1       2.100  -2.331  -2.460  0.00  0.00    +0.029 A 
ATOM     11  C   UNL     1       1.700  -2.363  -1.137  0.00  0.00    +0.105 A 
ATOM     12  C   UNL     1       2.085  -1.354  -0.274  0.00  0.00    +0.029 A 
ATOM     13  C   UNL     1       2.873  -0.315  -0.734  0.00  0.00    +0.005 A 
ENDBRANCH   4  11
ENDBRANCH   2   4
ENDBRANCH   1   2
BRANCH   1  14
ATOM     14  C   UNL     1       3.975  -4.219   0.614  0.00  0.00    +0.257 C 
ATOM     15  O   UNL     1       4.184  -4.156  -0.583  0.00  0.00    -0.272 OA
BRANCH  14  16
ATOM     16  N   UNL     1       4.947  -3.936   1.473  0.00  0.00    -0.155 NA
ATOM     17  C   UNL     1       6.153  -3.582   1.024  0.00  0.00    +0.163 A 
ATOM     18  N   UNL     1       7.262  -3.265   1.743  0.00  0.00    -0.341 N 
ATOM     19  C   UNL     1       8.401  -2.930   1.079  0.00  0.00    +0.008 A 
ATOM     20  C   UNL     1       8.356  -2.936  -0.258  0.00  0.00    +0.067 A 
ATOM     21  S   UNL     1       6.671  -3.429  -0.569  0.00  0.00    -0.061 S 
ATOM     22  H   UNL     1       7.242  -3.276   2.712  0.00  0.00    +0.167 HD
BRANCH  19  23
ATOM     23  C   UNL     1       9.663  -2.568   1.819  0.00  0.00    -0.024 C 
BRANCH  23  24
ATOM     24  N   UNL     1       9.447  -1.328   2.576  0.00  0.00    +0.383 N 
ATOM     25  C   UNL     1       9.204  -0.222   1.642  0.00  0.00    -0.078 C 
ATOM     26  C   UNL     1       8.899   1.056   2.426  0.00  0.00    -0.019 C 
ATOM     27  C   UNL     1      10.094   1.396   3.322  0.00  0.00    -0.004 C 
ATOM     28  C   UNL     1      10.385   0.206   4.241  0.00  0.00    -0.019 C 
ATOM     29  C   UNL     1      10.635  -1.040   3.389  0.00  0.00    -0.078 C 
ATOM     30  H   UNL     1       8.646  -1.438   3.179  0.00  0.00    -0.081 HD
ENDBRANCH  23  24
ENDBRANCH  19  23
ENDBRANCH  14  16
ENDBRANCH   1  14
BRANCH   1  31
ATOM     31  C   UNL     1       2.737  -5.884   1.971  0.00  0.00    +0.033 C 
BRANCH  31  32
ATOM     32  C   UNL     1       1.373  -6.228   2.574  0.00  0.00    -0.015 C 
ATOM     33  C   UNL     1       1.461  -7.572   3.300  0.00  0.00    +0.007 C 
ATOM     34  C   UNL     1       0.964  -5.138   3.566  0.00  0.00    +0.007 C 
ENDBRANCH  31  32
ENDBRANCH   1  31
TORSDOF 9
