REMARK  Name = ZINC08868834
REMARK  10 active torsions:
REMARK  status: ('A' for Active; 'I' for Inactive)
REMARK    1  A    between atoms: C_1  and  C_2
REMARK    2  A    between atoms: C_5  and  S_8
REMARK    3  A    between atoms: S_8  and  N_11
REMARK    4  A    between atoms: C_15  and  C_17
REMARK    5  A    between atoms: N_19  and  C_20
REMARK    6  A    between atoms: C_20  and  C_21
REMARK    7  A    between atoms: C_21  and  C_22
REMARK    8  A    between atoms: C_22  and  N_63
REMARK    9  A    between atoms: C_23  and  N_63
REMARK   10  A    between atoms: C_24  and  N_63
REMARK                            x       y       z     vdW  Elec       q    Type
REMARK                         _______ _______ _______ _____ _____    ______ ____
ROOT
ATOM      1  C   UNL     1       4.287  -4.359  -0.309  0.00  0.00    +0.240 C 
ATOM      2  O   UNL     1       5.193  -5.016  -0.775  0.00  0.00    -0.273 OA
ATOM      3  N   UNL     1       4.541  -3.159   0.249  0.00  0.00    -0.249 N 
ATOM      4  C   UNL     1       3.517  -2.442   0.848  0.00  0.00    +0.168 A 
ATOM      5  N   UNL     1       3.586  -1.328   1.537  0.00  0.00    -0.221 NA
ATOM      6  C   UNL     1       2.495  -0.734   2.068  0.00  0.00    +0.115 A 
ATOM      7  C   UNL     1       2.432   0.460   2.827  0.00  0.00    +0.150 A 
ATOM      8  C   UNL     1       1.231   0.929   3.296  0.00  0.00    +0.040 A 
ATOM      9  C   UNL     1       0.043   0.257   3.046  0.00  0.00    +0.004 A 
ATOM     10  C   UNL     1       0.069  -0.913   2.309  0.00  0.00    +0.017 A 
ATOM     11  C   UNL     1       1.266  -1.390   1.835  0.00  0.00    +0.044 A 
ATOM     12  S   UNL     1       1.766  -2.801   0.878  0.00  0.00    -0.052 S 
ATOM     13  F   UNL     1       3.566   1.145   3.091  0.00  0.00    -0.203 F 
ENDROOT
BRANCH   1  18
ATOM     14  N   UNL     1       2.885  -6.313  -0.705  0.00  0.00    -0.165 NA
ATOM     15  C   UNL     1       2.110  -6.499  -1.946  0.00  0.00    +0.110 C 
ATOM     16  C   UNL     1       2.158  -5.122  -2.654  0.00  0.00    +0.019 C 
ATOM     17  C   UNL     1       2.074  -4.146  -1.445  0.00  0.00    +0.031 C 
ATOM     18  C   UNL     1       2.875  -4.886  -0.353  0.00  0.00    +0.166 C 
BRANCH  14  19
ATOM     19  S   UNL     1       3.640  -7.513   0.150  0.00  0.00    +0.062 S 
ATOM     20  O   UNL     1       3.885  -8.572  -0.766  0.00  0.00    -0.153 OA
ATOM     21  O   UNL     1       4.681  -6.890   0.890  0.00  0.00    -0.153 OA
BRANCH  19  26
ATOM     22  C   UNL     1      -0.332  -9.604   4.181  0.00  0.00    +0.044 C 
ATOM     23  C   UNL     1       0.661  -9.082   3.175  0.00  0.00    -0.050 A 
ATOM     24  C   UNL     1       0.733  -9.650   1.917  0.00  0.00    +0.005 A 
ATOM     25  C   UNL     1       1.643  -9.171   0.993  0.00  0.00    +0.029 A 
ATOM     26  C   UNL     1       2.481  -8.124   1.327  0.00  0.00    +0.106 A 
ATOM     27  C   UNL     1       2.412  -7.559   2.587  0.00  0.00    +0.029 A 
ATOM     28  C   UNL     1       1.499  -8.035   3.509  0.00  0.00    +0.005 A 
ENDBRANCH  19  26
ENDBRANCH  14  19
ENDBRANCH   1  18
BRANCH   3  29
ATOM     29  C   UNL     1       5.900  -2.613   0.224  0.00  0.00    +0.114 C 
BRANCH  29  30
ATOM     30  C   UNL     1       6.602  -2.929   1.546  0.00  0.00    +0.001 C 
BRANCH  30  31
ATOM     31  C   UNL     1       8.014  -2.341   1.528  0.00  0.00    -0.078 C 
BRANCH  31  34
ATOM     32  C   UNL     1      10.116  -2.306   2.730  0.00  0.00    -0.097 C 
ATOM     33  C   UNL     1       8.036  -1.952   3.917  0.00  0.00    -0.097 C 
ATOM     34  N   UNL     1       8.685  -2.672   2.802  0.00  0.00    +0.376 N 
ATOM     35  H   UNL     1       8.608  -3.682   2.967  0.00  0.00    -0.083 HD
ENDBRANCH  31  34
ENDBRANCH  30  31
ENDBRANCH  29  30
ENDBRANCH   3  29
TORSDOF 7
