REMARK  Name = ZINC36013810
REMARK  13 active torsions:
REMARK  status: ('A' for Active; 'I' for Inactive)
REMARK    1  A    between atoms: C_1  and  C_2
REMARK    2  A    between atoms: C_2  and  O_3
REMARK    3  A    between atoms: O_3  and  C_4
REMARK    4  A    between atoms: C_4  and  C_6
REMARK    5  A    between atoms: C_7  and  C_25
REMARK    6  A    between atoms: N_8  and  C_24
REMARK    7  A    between atoms: C_12  and  C_14
REMARK    8  A    between atoms: C_18  and  O_22
REMARK    9  A    between atoms: C_19  and  O_20
REMARK   10  A    between atoms: O_20  and  C_21
REMARK   11  A    between atoms: O_22  and  C_23
REMARK   12  A    between atoms: C_25  and  N_26
REMARK   13  A    between atoms: C_32  and  C_34
REMARK                            x       y       z     vdW  Elec       q    Type
REMARK                         _______ _______ _______ _____ _____    ______ ____
ROOT
ATOM      1  C   UNL     1       1.410  -2.102  -2.589  0.00  0.00    +0.080 C 
ATOM      2  C   UNL     1       1.607  -3.428  -2.751  0.00  0.00    +0.041 C 
ATOM      3  N   UNL     1       2.325  -3.910  -3.807  0.00  0.00    -0.260 N 
ATOM      4  C   UNL     1       2.879  -3.131  -4.746  0.00  0.00    +0.307 C 
ATOM      5  O   UNL     1       3.501  -3.653  -5.650  0.00  0.00    -0.252 OA
ATOM      6  N   UNL     1       2.768  -1.788  -4.720  0.00  0.00    -0.288 N 
ATOM      7  C   UNL     1       2.007  -1.169  -3.622  0.00  0.00    +0.147 C 
ATOM      8  C   UNL     1       2.501  -5.360  -3.921  0.00  0.00    +0.139 C 
ATOM      9  H   UNL     1       3.178  -1.243  -5.410  0.00  0.00    +0.151 HD
ENDROOT
BRANCH   7  10
ATOM     10  C   UNL     1       2.925  -0.212  -2.908  0.00  0.00    +0.023 A 
ATOM     11  C   UNL     1       3.416  -0.529  -1.655  0.00  0.00    +0.009 A 
ATOM     12  C   UNL     1       4.259   0.347  -0.997  0.00  0.00    +0.004 A 
ATOM     13  C   UNL     1       4.615   1.545  -1.589  0.00  0.00    +0.049 A 
ATOM     14  C   UNL     1       4.128   1.869  -2.845  0.00  0.00    +0.162 A 
ATOM     15  C   UNL     1       3.284   0.984  -3.510  0.00  0.00    +0.167 A 
BRANCH  15  16
ATOM     16  O   UNL     1       2.807   1.295  -4.745  0.00  0.00    -0.491 OA
ATOM     17  C   UNL     1       1.635   2.110  -4.801  0.00  0.00    +0.277 C 
ENDBRANCH  15  16
BRANCH  14  18
ATOM     18  O   UNL     1       4.477   3.046  -3.429  0.00  0.00    -0.491 OA
ATOM     19  C   UNL     1       5.352   3.902  -2.690  0.00  0.00    +0.277 C 
ENDBRANCH  14  18
ENDBRANCH   7  10
BRANCH   1  20
ATOM     20  C   UNL     1       0.666  -1.602  -1.494  0.00  0.00    +0.339 C 
ATOM     21  O   UNL     1      -0.452  -1.156  -1.672  0.00  0.00    -0.245 OA
BRANCH  20  22
ATOM     22  O   UNL     1       1.196  -1.620  -0.254  0.00  0.00    -0.462 OA
BRANCH  22  24
ATOM     23  C   UNL     1       1.151  -1.177   2.122  0.00  0.00    +0.048 C 
ATOM     24  C   UNL     1       0.349  -1.205   0.820  0.00  0.00    +0.229 C 
ENDBRANCH  22  24
ENDBRANCH  20  22
ENDBRANCH   1  20
BRANCH   2  25
ATOM     25  C   UNL     1       1.027  -4.392  -1.748  0.00  0.00    +0.136 C 
BRANCH  25  26
ATOM     26  N   UNL     1       0.012  -5.229  -2.404  0.00  0.00    -0.294 NA
ATOM     27  C   UNL     1      -1.139  -4.422  -2.831  0.00  0.00    +0.104 C 
ATOM     28  C   UNL     1      -2.085  -5.291  -3.666  0.00  0.00    +0.123 C 
ATOM     29  N   UNL     1      -2.423  -6.493  -2.889  0.00  0.00    -0.299 N 
ATOM     30  C   UNL     1      -1.323  -7.279  -2.310  0.00  0.00    +0.123 C 
ATOM     31  C   UNL     1      -0.406  -6.332  -1.529  0.00  0.00    +0.104 C 
ATOM     32  C   UNL     1      -3.706  -6.865  -2.712  0.00  0.00    +0.219 C 
ATOM     33  O   UNL     1      -4.601  -6.205  -3.197  0.00  0.00    -0.275 OA
BRANCH  32  34
ATOM     34  C   UNL     1      -4.029  -8.101  -1.912  0.00  0.00    +0.075 C 
ATOM     35  C   UNL     1      -3.439  -9.347  -2.604  0.00  0.00    +0.013 C 
ATOM     36  C   UNL     1      -4.502 -10.450  -2.371  0.00  0.00    +0.001 C 
ATOM     37  C   UNL     1      -5.835  -9.675  -2.516  0.00  0.00    +0.001 C 
ATOM     38  C   UNL     1      -5.553  -8.309  -1.857  0.00  0.00    +0.013 C 
ENDBRANCH  32  34
ENDBRANCH  25  26
ENDBRANCH   2  25
TORSDOF 9
