REMARK  Name = ZINC20714510
REMARK  9 active torsions:
REMARK  status: ('A' for Active; 'I' for Inactive)
REMARK    1  A    between atoms: C_1  and  C_2
REMARK    2  A    between atoms: C_2  and  C_3
REMARK    3  A    between atoms: C_2  and  C_4
REMARK    4  A    between atoms: C_4  and  C_5
REMARK    5  A    between atoms: C_5  and  C_7
REMARK    6  A    between atoms: C_5  and  N_11
REMARK    7  A    between atoms: C_7  and  O_9
REMARK    8  A    between atoms: O_9  and  C_10
REMARK    9  A    between atoms: C_23  and  C_25
REMARK                            x       y       z     vdW  Elec       q    Type
REMARK                         _______ _______ _______ _____ _____    ______ ____
ROOT
ATOM      1  N   UNL     1      -0.234  -4.462  -0.599  0.00  0.00    -0.286 N 
ATOM      2  C   UNL     1      -0.296  -3.605  -1.637  0.00  0.00    +0.304 C 
ATOM      3  O   UNL     1      -0.886  -2.548  -1.520  0.00  0.00    -0.253 OA
ATOM      4  N   UNL     1       0.297  -3.919  -2.806  0.00  0.00    -0.273 N 
ATOM      5  C   UNL     1       0.339  -2.953  -3.914  0.00  0.00    +0.116 C 
ATOM      6  C   UNL     1       1.798  -2.574  -4.197  0.00  0.00    +0.076 C 
ATOM      7  C   UNL     1       2.633  -3.830  -4.216  0.00  0.00    +0.066 A 
ATOM      8  C   UNL     1       2.247  -5.010  -3.686  0.00  0.00    +0.064 A 
ATOM      9  N   UNL     1       3.259  -5.895  -3.892  0.00  0.00    -0.346 N 
ATOM     10  H   UNL     1       3.276  -6.826  -3.621  0.00  0.00    +0.167 HD
ATOM     11  C   UNL     1       4.238  -5.229  -4.548  0.00  0.00    +0.197 A 
ATOM     12  N   UNL     1       3.853  -3.995  -4.738  0.00  0.00    -0.240 NA
ATOM     13  C   UNL     1       0.925  -5.238  -3.005  0.00  0.00    +0.158 C 
ATOM     14  H   UNL     1       0.166  -5.337  -0.716  0.00  0.00    +0.151 HD
ENDROOT
BRANCH  13  15
ATOM     15  C   UNL     1       0.046  -6.099  -3.876  0.00  0.00    -0.001 A 
ATOM     16  C   UNL     1      -0.202  -5.732  -5.185  0.00  0.00    +0.007 A 
ATOM     17  C   UNL     1      -1.008  -6.521  -5.984  0.00  0.00    +0.002 A 
ATOM     18  C   UNL     1      -1.567  -7.678  -5.475  0.00  0.00    +0.021 A 
ATOM     19  C   UNL     1      -1.320  -8.047  -4.165  0.00  0.00    +0.060 A 
ATOM     20  C   UNL     1      -0.507  -7.260  -3.366  0.00  0.00    +0.065 A 
ATOM     21 CL   UNL     1      -0.190  -7.726  -1.724  0.00  0.00    -0.082 Cl
ATOM     22 CL   UNL     1      -2.022  -9.500  -3.525  0.00  0.00    -0.082 Cl
ENDBRANCH  13  15
BRANCH   1  23
ATOM     23  C   UNL     1      -0.772  -4.070   0.707  0.00  0.00    +0.183 C 
BRANCH  23  24
ATOM     24  C   UNL     1       0.273  -3.297   1.469  0.00  0.00    +0.327 C 
ATOM     25  O   UNL     1       1.355  -3.094   0.973  0.00  0.00    -0.249 OA
BRANCH  24  26
ATOM     26  O   UNL     1       0.000  -2.834   2.699  0.00  0.00    -0.467 OA
ATOM     27  C   UNL     1       1.037  -2.110   3.364  0.00  0.00    +0.280 C 
ENDBRANCH  24  26
ENDBRANCH  23  24
BRANCH  23  28
ATOM     28  C   UNL     1      -1.157  -5.323   1.496  0.00  0.00    +0.036 C 
BRANCH  28  30
ATOM     29  C   UNL     1      -2.607  -7.358   1.503  0.00  0.00    +0.007 C 
ATOM     30  C   UNL     1      -2.305  -6.042   0.784  0.00  0.00    -0.015 C 
ATOM     31  C   UNL     1      -3.551  -5.154   0.801  0.00  0.00    +0.007 C 
ENDBRANCH  28  30
ENDBRANCH  23  28
ENDBRANCH   1  23
TORSDOF 6
