REMARK  Name = ZINC33692946
REMARK  14 active torsions:
REMARK  status: ('A' for Active; 'I' for Inactive)
REMARK    1  A    between atoms: C_1  and  C_2
REMARK    2  A    between atoms: C_9  and  C_20
REMARK    3  A    between atoms: C_10  and  N_11
REMARK    4  A    between atoms: N_11  and  C_12
REMARK    5  A    between atoms: C_12  and  C_13
REMARK    6  A    between atoms: C_12  and  C_14
REMARK    7  A    between atoms: C_12  and  C_15
REMARK    8  A    between atoms: C_15  and  C_16
REMARK    9  A    between atoms: C_16  and  C_17
REMARK   10  A    between atoms: C_16  and  C_18
REMARK   11  A    between atoms: C_16  and  C_19
REMARK   12  A    between atoms: C_24  and  O_26
REMARK   13  A    between atoms: O_26  and  S_27
REMARK   14  A    between atoms: S_27  and  C_30
REMARK                            x       y       z     vdW  Elec       q    Type
REMARK                         _______ _______ _______ _____ _____    ______ ____
ROOT
ATOM      1  C   UNL     1      -3.140   2.221  -1.786  0.00  0.00    +0.044 C 
ATOM      2  C   UNL     1      -1.683   2.470  -1.493  0.00  0.00    -0.046 A 
ATOM      3  C   UNL     1      -1.237   3.768  -1.185  0.00  0.00    +0.021 A 
ATOM      4  C   UNL     1       0.066   3.998  -0.927  0.00  0.00    +0.094 A 
ATOM      5  N   UNL     1       0.974   2.973  -0.957  0.00  0.00    -0.289 N 
ATOM      6  C   UNL     1       0.566   1.691  -1.251  0.00  0.00    +0.117 A 
ATOM      7  C   UNL     1      -0.796   1.440  -1.522  0.00  0.00    +0.048 A 
ATOM      8  N   UNL     1       1.622   0.895  -1.216  0.00  0.00    -0.338 N 
ATOM      9  C   UNL     1       2.714   1.619  -0.908  0.00  0.00    +0.087 A 
ATOM     10  C   UNL     1       2.323   2.931  -0.741  0.00  0.00    +0.129 A 
ATOM     11  H   UNL     1       1.508  -0.179  -1.425  0.00  0.00    +0.167 HD
ENDROOT
BRANCH   9  12
ATOM     12  C   UNL     1       4.094   1.097  -0.771  0.00  0.00    +0.005 A 
ATOM     13  C   UNL     1       5.180   1.879  -1.166  0.00  0.00    +0.010 A 
ATOM     14  C   UNL     1       6.464   1.391  -1.037  0.00  0.00    +0.004 A 
ATOM     15  C   UNL     1       6.679   0.127  -0.518  0.00  0.00    +0.048 A 
ATOM     16  C   UNL     1       5.604  -0.658  -0.123  0.00  0.00    +0.157 A 
ATOM     17  C   UNL     1       4.311  -0.174  -0.243  0.00  0.00    +0.058 A 
BRANCH  16  18
ATOM     18  O   UNL     1       5.820  -1.899   0.387  0.00  0.00    -0.342 OA
BRANCH  18  19
ATOM     19  S   UNL     1       5.996  -1.925   1.899  0.00  0.00    +0.151 S 
ATOM     20  O   UNL     1       6.415  -3.240   2.236  0.00  0.00    -0.131 OA
ATOM     21  O   UNL     1       6.755  -0.773   2.239  0.00  0.00    -0.131 OA
BRANCH  19  22
ATOM     22  C   UNL     1       4.400  -1.706   2.612  0.00  0.00    +0.128 A 
ATOM     23  C   UNL     1       3.939  -0.435   2.899  0.00  0.00    +0.030 A 
ATOM     24  C   UNL     1       2.685  -0.263   3.454  0.00  0.00    +0.002 A 
ATOM     25  C   UNL     1       1.896  -1.363   3.733  0.00  0.00    +0.000 A 
ATOM     26  C   UNL     1       2.358  -2.635   3.451  0.00  0.00    +0.002 A 
ATOM     27  C   UNL     1       3.610  -2.806   2.891  0.00  0.00    +0.030 A 
ENDBRANCH  19  22
ENDBRANCH  18  19
ENDBRANCH  16  18
ENDBRANCH   9  12
BRANCH  10  28
ATOM     28  N   UNL     1       3.147   4.008  -0.414  0.00  0.00    -0.323 N 
ATOM     29  H   UNL     1       4.210   4.006  -0.133  0.00  0.00    +0.148 HD
BRANCH  28  30
ATOM     30  C   UNL     1       2.407   5.276  -0.482  0.00  0.00    +0.028 C 
ATOM     31  C   UNL     1       1.679   5.370  -1.824  0.00  0.00    +0.031 C 
ATOM     32  C   UNL     1       1.386   5.332   0.657  0.00  0.00    +0.031 C 
BRANCH  30  33
ATOM     33  C   UNL     1       3.385   6.445  -0.348  0.00  0.00    +0.031 C 
BRANCH  33  34
ATOM     34  C   UNL     1       2.602   7.755  -0.240  0.00  0.00    -0.036 C 
ATOM     35  C   UNL     1       1.991   7.870   1.158  0.00  0.00    +0.010 C 
ATOM     36  C   UNL     1       3.545   8.934  -0.483  0.00  0.00    +0.010 C 
ATOM     37  C   UNL     1       1.486   7.770  -1.287  0.00  0.00    +0.010 C 
ENDBRANCH  33  34
ENDBRANCH  30  33
ENDBRANCH  28  30
ENDBRANCH  10  28
TORSDOF 8
