REMARK  Name = ZINC21254841
REMARK  11 active torsions:
REMARK  status: ('A' for Active; 'I' for Inactive)
REMARK    1  A    between atoms: C_1  and  C_2
REMARK    2  A    between atoms: C_2  and  C_3
REMARK    3  A    between atoms: C_3  and  C_5
REMARK    4  A    between atoms: C_3  and  O_6
REMARK    5  A    between atoms: O_6  and  C_7
REMARK    6  A    between atoms: C_12  and  C_13
REMARK    7  A    between atoms: C_18  and  C_23
REMARK    8  A    between atoms: C_26  and  O_31
REMARK    9  A    between atoms: C_27  and  O_29
REMARK   10  A    between atoms: O_29  and  C_30
REMARK   11  A    between atoms: O_31  and  C_32
REMARK                            x       y       z     vdW  Elec       q    Type
REMARK                         _______ _______ _______ _____ _____    ______ ____
ROOT
ATOM      1  C   UNL     1       2.620   1.048  -0.058  0.00  0.00    +0.139 C 
ATOM      2  C   UNL     1       2.993   1.090  -1.520  0.00  0.00    +0.037 C 
ATOM      3  C   UNL     1       3.210   0.023  -2.311  0.00  0.00    +0.017 C 
ATOM      4  C   UNL     1       3.594   0.208  -3.769  0.00  0.00    +0.059 C 
ATOM      5  C   UNL     1       2.947   1.476  -4.323  0.00  0.00    +0.032 C 
ATOM      6  C   UNL     1       3.445   2.659  -3.483  0.00  0.00    +0.088 C 
ATOM      7  C   UNL     1       3.107   2.399  -2.046  0.00  0.00    +0.163 C 
ATOM      8  O   UNL     1       2.924   3.345  -1.306  0.00  0.00    -0.292 OA
ATOM      9  N   UNL     1       3.129  -1.268  -1.901  0.00  0.00    -0.316 N 
ATOM     10  C   UNL     1       2.095  -1.799  -1.139  0.00  0.00    +0.052 A 
ATOM     11  C   UNL     1       1.276  -2.812  -1.606  0.00  0.00    +0.025 A 
ATOM     12  C   UNL     1       0.343  -3.378  -0.753  0.00  0.00    +0.002 A 
ATOM     13  C   UNL     1       0.230  -2.932   0.551  0.00  0.00    +0.002 A 
ATOM     14  C   UNL     1       1.033  -1.903   1.013  0.00  0.00    +0.025 A 
ATOM     15  C   UNL     1       1.955  -1.324   0.157  0.00  0.00    +0.049 A 
ATOM     16  N   UNL     1       2.753  -0.254   0.560  0.00  0.00    -0.331 N 
ATOM     17  H   UNL     1       3.921  -1.982  -2.173  0.00  0.00    +0.152 HD
ATOM     18  H   UNL     1       3.491  -0.411   1.360  0.00  0.00    +0.147 HD
ENDROOT
BRANCH   1  24
ATOM     19  C   UNL     1       0.736   2.001   1.294  0.00  0.00    +0.126 A 
ATOM     20  C   UNL     1      -0.582   2.416   1.420  0.00  0.00    +0.046 A 
ATOM     21  C   UNL     1      -1.439   2.329   0.340  0.00  0.00    +0.004 A 
ATOM     22  C   UNL     1      -0.983   1.834  -0.868  0.00  0.00    +0.001 A 
ATOM     23  C   UNL     1       0.329   1.415  -0.995  0.00  0.00    +0.009 A 
ATOM     24  C   UNL     1       1.190   1.499   0.083  0.00  0.00    +0.019 A 
BRANCH  19  25
ATOM     25  O   UNL     1       1.580   2.085   2.355  0.00  0.00    -0.489 OA
BRANCH  25  26
ATOM     26  C   UNL     1       1.060   2.661   3.555  0.00  0.00    +0.170 C 
ATOM     27  C   UNL     1       0.308   1.592   4.350  0.00  0.00    +0.052 C 
BRANCH  26  29
ATOM     28  C   UNL     1       2.892   4.357   3.649  0.00  0.00    +0.007 C 
ATOM     29  C   UNL     1       2.212   3.210   4.399  0.00  0.00    +0.041 C 
ENDBRANCH  26  29
ENDBRANCH  25  26
ENDBRANCH  19  25
ENDBRANCH   1  24
BRANCH   5  30
ATOM     30  C   UNL     1       3.348   1.666  -5.763  0.00  0.00    -0.040 A 
ATOM     31  C   UNL     1       4.683   1.804  -6.095  0.00  0.00    +0.008 A 
ATOM     32  C   UNL     1       5.056   1.978  -7.415  0.00  0.00    +0.049 A 
ATOM     33  C   UNL     1       4.090   2.014  -8.409  0.00  0.00    +0.161 A 
ATOM     34  C   UNL     1       2.747   1.876  -8.074  0.00  0.00    +0.162 A 
ATOM     35  C   UNL     1       2.380   1.697  -6.750  0.00  0.00    +0.053 A 
BRANCH  34  36
ATOM     36  O   UNL     1       1.796   1.911  -9.046  0.00  0.00    -0.491 OA
ATOM     37  C   UNL     1       0.437   1.763  -8.629  0.00  0.00    +0.277 C 
ENDBRANCH  34  36
BRANCH  33  38
ATOM     38  O   UNL     1       4.455   2.185  -9.707  0.00  0.00    -0.491 OA
ATOM     39  C   UNL     1       5.852   2.319  -9.977  0.00  0.00    +0.277 C 
ENDBRANCH  33  38
ENDBRANCH   5  30
TORSDOF 7
