REMARK  Name = ZINC06193768
REMARK  9 active torsions:
REMARK  status: ('A' for Active; 'I' for Inactive)
REMARK    1  A    between atoms: C_1  and  C_2
REMARK    2  A    between atoms: C_2  and  N_63
REMARK    3  A    between atoms: C_3  and  C_4
REMARK    4  A    between atoms: C_3  and  N_63
REMARK    5  A    between atoms: C_10  and  C_12
REMARK    6  A    between atoms: C_10  and  C_27
REMARK    7  A    between atoms: C_10  and  N_63
REMARK    8  A    between atoms: N_31  and  C_32
REMARK    9  A    between atoms: C_32  and  C_33
REMARK                            x       y       z     vdW  Elec       q    Type
REMARK                         _______ _______ _______ _____ _____    ______ ____
ROOT
ATOM      1  C   UNL     1       2.201  -1.934  -1.256  0.00  0.00    +0.039 C 
ENDROOT
BRANCH   1   2
ATOM      2  C   UNL     1       0.828  -1.510  -1.709  0.00  0.00    +0.011 A 
ATOM      3  C   UNL     1       0.691  -0.467  -2.567  0.00  0.00    +0.017 A 
ATOM      4  C   UNL     1      -0.655  -0.080  -2.988  0.00  0.00    +0.002 A 
ATOM      5  C   UNL     1      -0.856   0.987  -3.872  0.00  0.00    +0.059 A 
ATOM      6  C   UNL     1      -2.136   1.328  -4.252  0.00  0.00    +0.167 A 
ATOM      7  C   UNL     1      -3.233   0.612  -3.757  0.00  0.00    +0.168 A 
ATOM      8  C   UNL     1      -3.043  -0.443  -2.883  0.00  0.00    +0.075 A 
ATOM      9  C   UNL     1      -1.759  -0.800  -2.491  0.00  0.00    +0.053 A 
ATOM     10  N   UNL     1      -1.552  -1.851  -1.621  0.00  0.00    -0.322 N 
ATOM     11  H   UNL     1      -2.336  -2.358  -1.265  0.00  0.00    +0.169 HD
ATOM     12  C   UNL     1      -0.309  -2.202  -1.245  0.00  0.00    +0.251 A 
ATOM     13  O   UNL     1      -0.163  -3.140  -0.480  0.00  0.00    -0.268 OA
ATOM     14  O   UNL     1      -4.372   1.147  -4.284  0.00  0.00    -0.453 OA
ATOM     15  C   UNL     1      -3.945   1.924  -5.418  0.00  0.00    +0.466 C 
ATOM     16  O   UNL     1      -2.597   2.306  -5.086  0.00  0.00    -0.453 OA
ENDBRANCH   1   2
BRANCH   1  17
ATOM     17  C   UNL     1       3.160  -0.784  -1.417  0.00  0.00    +0.143 A 
ATOM     18  N   UNL     1       3.875  -0.503  -2.479  0.00  0.00    -0.115 NA
ATOM     19  N   UNL     1       4.571   0.550  -2.224  0.00  0.00    -0.023 NA
ATOM     20  N   UNL     1       4.316   0.952  -1.028  0.00  0.00    -0.044 NA
ATOM     21  N   UNL     1       3.448   0.158  -0.498  0.00  0.00    -0.226 N 
BRANCH  21  22
ATOM     22  C   UNL     1       2.885   0.258   0.851  0.00  0.00    +0.182 C 
BRANCH  22  23
ATOM     23  C   UNL     1       1.750   1.248   0.849  0.00  0.00    -0.026 A 
ATOM     24  C   UNL     1       0.449   0.809   0.692  0.00  0.00    +0.005 A 
ATOM     25  C   UNL     1      -0.592   1.718   0.685  0.00  0.00    +0.000 A 
ATOM     26  C   UNL     1      -0.333   3.066   0.846  0.00  0.00    +0.000 A 
ATOM     27  C   UNL     1       0.968   3.506   1.005  0.00  0.00    +0.000 A 
ATOM     28  C   UNL     1       2.009   2.597   1.006  0.00  0.00    +0.005 A 
ENDBRANCH  22  23
ENDBRANCH  21  22
ENDBRANCH   1  17
BRANCH   1  29
ATOM     29  N   UNL     1       2.685  -3.068  -2.072  0.00  0.00    +0.392 N 
ATOM     30  H   UNL     1       3.709  -3.021  -2.134  0.00  0.00    -0.080 HD
BRANCH  29  32
ATOM     31  C   UNL     1       2.909  -1.952  -4.235  0.00  0.00    -0.017 C 
ATOM     32  C   UNL     1       2.117  -2.988  -3.434  0.00  0.00    -0.080 C 
ENDBRANCH  29  32
BRANCH  29  33
ATOM     33  C   UNL     1       2.300  -4.347  -1.438  0.00  0.00    -0.042 C 
BRANCH  33  34
ATOM     34  C   UNL     1       3.066  -4.500  -0.149  0.00  0.00    -0.064 A 
ATOM     35  C   UNL     1       4.303  -5.116  -0.149  0.00  0.00    +0.002 A 
ATOM     36  C   UNL     1       5.008  -5.252   1.033  0.00  0.00    +0.000 A 
ATOM     37  C   UNL     1       4.470  -4.782   2.216  0.00  0.00    +0.000 A 
ATOM     38  C   UNL     1       3.230  -4.171   2.217  0.00  0.00    +0.000 A 
ATOM     39  C   UNL     1       2.528  -4.030   1.034  0.00  0.00    +0.002 A 
ENDBRANCH  33  34
ENDBRANCH  29  33
ENDBRANCH   1  29
TORSDOF 8
