REMARK  Name = ZINC21244070
REMARK  9 active torsions:
REMARK  status: ('A' for Active; 'I' for Inactive)
REMARK    1  A    between atoms: C_1  and  C_2
REMARK    2  A    between atoms: C_2  and  O_4
REMARK    3  A    between atoms: O_4  and  C_5
REMARK    4  A    between atoms: C_8  and  C_13
REMARK    5  A    between atoms: C_10  and  O_11
REMARK    6  A    between atoms: O_11  and  C_12
REMARK    7  A    between atoms: C_18  and  C_23
REMARK    8  A    between atoms: C_27  and  O_29
REMARK    9  A    between atoms: O_29  and  C_30
REMARK                            x       y       z     vdW  Elec       q    Type
REMARK                         _______ _______ _______ _____ _____    ______ ____
ROOT
ATOM      1  C   UNL     1       3.808   1.928   0.417  0.00  0.00    +0.136 C 
ATOM      2  C   UNL     1       2.467   1.251   0.574  0.00  0.00    +0.036 C 
ATOM      3  C   UNL     1       2.248   0.059   1.153  0.00  0.00    +0.017 C 
ATOM      4  C   UNL     1       0.837  -0.495   1.265  0.00  0.00    +0.059 C 
ATOM      5  C   UNL     1       0.005  -0.045   0.065  0.00  0.00    +0.032 C 
ATOM      6  C   UNL     1      -0.025   1.488   0.067  0.00  0.00    +0.088 C 
ATOM      7  C   UNL     1       1.386   1.994   0.042  0.00  0.00    +0.163 C 
ATOM      8  O   UNL     1       1.610   3.080  -0.455  0.00  0.00    -0.292 OA
ATOM      9  N   UNL     1       3.213  -0.739   1.676  0.00  0.00    -0.316 N 
ATOM     10  C   UNL     1       4.229  -0.305   2.518  0.00  0.00    +0.052 A 
ATOM     11  C   UNL     1       4.366  -0.776   3.813  0.00  0.00    +0.025 A 
ATOM     12  C   UNL     1       5.462  -0.388   4.564  0.00  0.00    +0.002 A 
ATOM     13  C   UNL     1       6.410   0.464   4.026  0.00  0.00    +0.002 A 
ATOM     14  C   UNL     1       6.263   0.952   2.740  0.00  0.00    +0.025 A 
ATOM     15  C   UNL     1       5.159   0.579   1.991  0.00  0.00    +0.049 A 
ATOM     16  N   UNL     1       4.944   1.080   0.708  0.00  0.00    -0.331 N 
ATOM     17  H   UNL     1       3.227  -1.813   1.439  0.00  0.00    +0.152 HD
ATOM     18  H   UNL     1       5.656   0.822  -0.089  0.00  0.00    +0.147 HD
ENDROOT
BRANCH   1  22
ATOM     19  C   UNL     1       3.934   5.306   3.037  0.00  0.00    +0.173 A 
ATOM     20  C   UNL     1       3.830   4.026   3.557  0.00  0.00    +0.050 A 
ATOM     21  C   UNL     1       3.784   2.937   2.707  0.00  0.00    +0.009 A 
ATOM     22  C   UNL     1       3.852   3.120   1.339  0.00  0.00    -0.019 A 
ATOM     23  C   UNL     1       3.956   4.394   0.813  0.00  0.00    +0.055 A 
ATOM     24  C   UNL     1       3.997   5.491   1.659  0.00  0.00    +0.163 A 
BRANCH  24  25
ATOM     25  O   UNL     1       4.098   6.746   1.143  0.00  0.00    -0.491 OA
ATOM     26  C   UNL     1       4.157   6.859  -0.280  0.00  0.00    +0.277 C 
ENDBRANCH  24  25
BRANCH  19  27
ATOM     27  O   UNL     1       3.974   6.380   3.871  0.00  0.00    -0.422 OA
BRANCH  27  29
ATOM     28  C   UNL     1       2.818   8.319   4.871  0.00  0.00    +0.136 C 
ATOM     29  C   UNL     1       2.828   7.058   4.046  0.00  0.00    +0.309 C 
ATOM     30  O   UNL     1       1.806   6.657   3.543  0.00  0.00    -0.251 OA
ENDBRANCH  27  29
ENDBRANCH  19  27
ENDBRANCH   1  22
BRANCH   5  31
ATOM     31  C   UNL     1      -1.397  -0.583   0.186  0.00  0.00    -0.040 A 
ATOM     32  C   UNL     1      -2.165  -0.270   1.292  0.00  0.00    +0.004 A 
ATOM     33  C   UNL     1      -3.452  -0.763   1.406  0.00  0.00    +0.004 A 
ATOM     34  C   UNL     1      -3.974  -1.568   0.412  0.00  0.00    +0.045 A 
ATOM     35  C   UNL     1      -3.206  -1.883  -0.699  0.00  0.00    +0.120 A 
ATOM     36  C   UNL     1      -1.917  -1.384  -0.812  0.00  0.00    +0.049 A 
BRANCH  35  37
ATOM     37  O   UNL     1      -3.718  -2.675  -1.678  0.00  0.00    -0.495 OA
ATOM     38  C   UNL     1      -5.054  -3.148  -1.497  0.00  0.00    +0.277 C 
ENDBRANCH  35  37
ENDBRANCH   5  31
TORSDOF 6
