REMARK  Name = ZINC15008708
REMARK  12 active torsions:
REMARK  status: ('A' for Active; 'I' for Inactive)
REMARK    1  A    between atoms: C_1  and  C_2
REMARK    2  A    between atoms: C_3  and  C_7
REMARK    3  A    between atoms: N_9  and  C_10
REMARK    4  A    between atoms: N_9  and  C_11
REMARK    5  A    between atoms: C_11  and  C_13
REMARK    6  A    between atoms: C_11  and  C_21
REMARK    7  A    between atoms: C_13  and  C_14
REMARK    8  A    between atoms: C_26  and  C_27
REMARK    9  A    between atoms: C_26  and  N_68
REMARK   10  A    between atoms: C_28  and  O_35
REMARK   11  A    between atoms: C_32  and  O_33
REMARK   12  A    between atoms: O_33  and  C_34
REMARK                            x       y       z     vdW  Elec       q    Type
REMARK                         _______ _______ _______ _____ _____    ______ ____
ROOT
ATOM      1  C   UNL     1      -1.809  -0.660  -0.450  0.00  0.00    +0.083 C 
ENDROOT
BRANCH   1   2
ATOM      2  C   UNL     1      -1.534  -0.165  -1.871  0.00  0.00    +0.006 C 
ATOM      3  C   UNL     1      -1.081   1.297  -1.825  0.00  0.00    -0.013 C 
ATOM      4  C   UNL     1      -0.868   1.806  -3.253  0.00  0.00    -0.078 C 
ATOM      5  C   UNL     1      -2.548   0.283  -4.108  0.00  0.00    -0.078 C 
ATOM      6  C   UNL     1      -2.813  -0.270  -2.706  0.00  0.00    -0.013 C 
ATOM      7  N   UNL     1      -2.141   1.700  -3.996  0.00  0.00    +0.383 N 
ATOM      8  H   UNL     1      -2.868   2.216  -3.486  0.00  0.00    -0.081 HD
BRANCH   7   9
ATOM      9  C   UNL     1      -1.990   2.290  -5.342  0.00  0.00    -0.036 C 
BRANCH   9  10
ATOM     10  C   UNL     1      -1.792   3.777  -5.201  0.00  0.00    +0.019 A 
ATOM     11  C   UNL     1      -0.512   4.300  -5.094  0.00  0.00    +0.122 A 
ATOM     12  C   UNL     1      -0.333   5.670  -4.964  0.00  0.00    +0.046 A 
ATOM     13  C   UNL     1      -1.428   6.513  -4.941  0.00  0.00    +0.007 A 
ATOM     14  C   UNL     1      -2.704   5.994  -5.048  0.00  0.00    +0.046 A 
ATOM     15  C   UNL     1      -2.888   4.625  -5.184  0.00  0.00    +0.125 A 
BRANCH  15  16
ATOM     16  O   UNL     1      -4.143   4.116  -5.295  0.00  0.00    -0.495 OA
ATOM     17  C   UNL     1      -5.226   5.048  -5.270  0.00  0.00    +0.277 C 
ENDBRANCH  15  16
BRANCH  11  18
ATOM     18  O   UNL     1       0.565   3.472  -5.115  0.00  0.00    -0.506 OA
ATOM     19  H   UNL     1       0.919   3.310  -6.001  0.00  0.00    +0.292 HD
ENDBRANCH  11  18
ENDBRANCH   9  10
ENDBRANCH   7   9
ENDBRANCH   1   2
BRANCH   1  22
ATOM     20  C   UNL     1      -4.084  -0.466   0.400  0.00  0.00    +0.250 C 
ATOM     21  O   UNL     1      -4.216  -1.665   0.243  0.00  0.00    -0.270 OA
ATOM     22  N   UNL     1      -2.900   0.121   0.137  0.00  0.00    -0.297 N 
ATOM     23  C   UNL     1      -2.704   1.542   0.437  0.00  0.00    +0.132 C 
BRANCH  20  26
ATOM     24  C   UNL     1      -7.011  -1.479   0.896  0.00  0.00    +0.087 C 
ATOM     25  C   UNL     1      -6.497  -0.078   1.100  0.00  0.00    +0.114 A 
ATOM     26  C   UNL     1      -5.218   0.344   0.879  0.00  0.00    +0.077 A 
ATOM     27  C   UNL     1      -5.208   1.774   1.220  0.00  0.00    +0.054 A 
ATOM     28  C   UNL     1      -6.461   2.071   1.598  0.00  0.00    +0.196 A 
ATOM     29  O   UNL     1      -7.217   0.966   1.524  0.00  0.00    -0.467 OA
ENDBRANCH  20  26
ENDBRANCH   1  22
BRANCH   1  30
ATOM     30  C   UNL     1      -0.548  -0.495   0.401  0.00  0.00    +0.060 C 
BRANCH  30  31
ATOM     31  C   UNL     1      -0.790  -1.065   1.774  0.00  0.00    -0.010 A 
ATOM     32  C   UNL     1      -1.190  -0.236   2.806  0.00  0.00    +0.006 A 
ATOM     33  C   UNL     1      -1.418  -0.759   4.065  0.00  0.00    +0.000 A 
ATOM     34  C   UNL     1      -1.236  -2.110   4.296  0.00  0.00    +0.003 A 
ATOM     35  C   UNL     1      -0.831  -2.939   3.268  0.00  0.00    +0.038 A 
ATOM     36  C   UNL     1      -0.608  -2.417   2.005  0.00  0.00    +0.127 A 
ATOM     37  F   UNL     1      -0.212  -3.227   0.999  0.00  0.00    -0.205 F 
ENDBRANCH  30  31
ENDBRANCH   1  30
TORSDOF 9
