REMARK  Name = ZINC65395062
REMARK  5 active torsions:
REMARK  status: ('A' for Active; 'I' for Inactive)
REMARK    1  A    between atoms: C_1  and  C_2
REMARK    2  A    between atoms: C_2  and  C_3
REMARK    3  A    between atoms: C_4  and  C_12
REMARK    4  A    between atoms: N_22  and  C_23
REMARK    5  A    between atoms: N_26  and  C_29
REMARK                            x       y       z     vdW  Elec       q    Type
REMARK                         _______ _______ _______ _____ _____    ______ ____
ROOT
ATOM      1  C   UNL     1      -1.711  -0.626  -2.516  0.00  0.00    +0.066 C 
ATOM      2  C   UNL     1      -1.668  -1.995  -3.201  0.00  0.00    +0.109 C 
ATOM      3  C   UNL     1      -3.048  -2.487  -3.531  0.00  0.00    +0.219 C 
ATOM      4  O   UNL     1      -3.285  -3.672  -3.434  0.00  0.00    -0.275 OA
ATOM      5  N   UNL     1      -4.034  -1.655  -3.931  0.00  0.00    -0.270 N 
ATOM      6  C   UNL     1      -3.786  -0.283  -3.904  0.00  0.00    +0.127 A 
ATOM      7  C   UNL     1      -2.703   0.241  -3.246  0.00  0.00    +0.020 A 
ATOM      8  C   UNL     1      -2.735   1.619  -3.399  0.00  0.00    +0.140 A 
ATOM      9  N   UNL     1      -3.789   1.926  -4.119  0.00  0.00    -0.177 NA
ATOM     10  N   UNL     1      -4.464   0.737  -4.448  0.00  0.00    -0.247 N 
ATOM     11  H   UNL     1      -4.890  -2.002  -4.228  0.00  0.00    +0.156 HD
ENDROOT
BRANCH   1  13
ATOM     12  C   UNL     1      -1.390  -0.590   0.012  0.00  0.00    +0.110 A 
ATOM     13  C   UNL     1      -2.140  -0.790  -1.081  0.00  0.00    +0.009 A 
ATOM     14  C   UNL     1      -3.464  -1.202  -0.598  0.00  0.00    +0.024 A 
ATOM     15  C   UNL     1      -4.663  -1.550  -1.219  0.00  0.00    +0.012 A 
ATOM     16  C   UNL     1      -5.745  -1.895  -0.457  0.00  0.00    +0.001 A 
ATOM     17  C   UNL     1      -5.656  -1.901   0.927  0.00  0.00    +0.004 A 
ATOM     18  C   UNL     1      -4.479  -1.560   1.558  0.00  0.00    +0.047 A 
ATOM     19  C   UNL     1      -3.368  -1.207   0.803  0.00  0.00    +0.135 A 
ATOM     20  O   UNL     1      -2.110  -0.839   1.120  0.00  0.00    -0.459 OA
BRANCH  12  22
ATOM     21  C   UNL     1       0.123   1.375   0.036  0.00  0.00    +0.012 C 
ATOM     22  C   UNL     1       0.052  -0.153  -0.000  0.00  0.00    +0.071 C 
ENDBRANCH  12  22
ENDBRANCH   1  13
BRANCH  10  23
ATOM     23  C   UNL     1      -5.690   0.632  -5.244  0.00  0.00    +0.106 C 
ATOM     24  C   UNL     1      -5.449   1.222  -6.636  0.00  0.00    +0.008 C 
ATOM     25  C   UNL     1      -6.754   1.181  -7.434  0.00  0.00    -0.077 C 
ATOM     26  N   UNL     1      -7.781   1.967  -6.740  0.00  0.00    +0.378 N 
ATOM     27  C   UNL     1      -8.069   1.365  -5.433  0.00  0.00    -0.077 C 
ATOM     28  C   UNL     1      -6.815   1.413  -4.557  0.00  0.00    +0.008 C 
ATOM     29  C   UNL     1      -9.007   1.990  -7.548  0.00  0.00    -0.096 C 
ATOM     30  H   UNL     1      -7.449   2.911  -6.609  0.00  0.00    -0.082 HD
ENDBRANCH  10  23
TORSDOF 3
