REMARK  Name = ZINC08036347
REMARK  7 active torsions:
REMARK  status: ('A' for Active; 'I' for Inactive)
REMARK    1  A    between atoms: C_1  and  C_2
REMARK    2  A    between atoms: C_2  and  C_4
REMARK    3  A    between atoms: C_2  and  N_9
REMARK    4  A    between atoms: C_10  and  C_12
REMARK    5  A    between atoms: C_12  and  N_13
REMARK    6  A    between atoms: C_16  and  C_20
REMARK    7  A    between atoms: C_16  and  C_26
REMARK                            x       y       z     vdW  Elec       q    Type
REMARK                         _______ _______ _______ _____ _____    ______ ____
ROOT
ATOM      1  N   UNL     1       4.232  -0.258  -2.741  0.00  0.00    -0.215 N 
ATOM      2  C   UNL     1       5.397   0.416  -2.665  0.00  0.00    +0.256 C 
ATOM      3  O   UNL     1       5.604   1.560  -3.010  0.00  0.00    -0.272 OA
ATOM      4  C   UNL     1       6.392  -0.552  -2.057  0.00  0.00    +0.164 C 
ATOM      5  N   UNL     1       5.599  -1.774  -1.841  0.00  0.00    -0.278 N 
ATOM      6  C   UNL     1       4.351  -1.503  -2.266  0.00  0.00    +0.310 C 
ATOM      7  O   UNL     1       3.436  -2.301  -2.226  0.00  0.00    -0.252 OA
ATOM      8  H   UNL     1       5.914  -2.610  -1.463  0.00  0.00    +0.152 HD
ENDROOT
BRANCH   4   9
ATOM      9  C   UNL     1       6.916  -0.021  -0.748  0.00  0.00    -0.011 A 
ATOM     10  C   UNL     1       6.921  -0.830   0.373  0.00  0.00    +0.006 A 
ATOM     11  C   UNL     1       7.401  -0.343   1.575  0.00  0.00    +0.000 A 
ATOM     12  C   UNL     1       7.878   0.952   1.655  0.00  0.00    +0.000 A 
ATOM     13  C   UNL     1       7.875   1.760   0.533  0.00  0.00    +0.000 A 
ATOM     14  C   UNL     1       7.398   1.272  -0.669  0.00  0.00    +0.006 A 
ENDBRANCH   4   9
BRANCH   4  15
ATOM     15  C   UNL     1       7.525  -0.818  -3.015  0.00  0.00    -0.011 A 
ATOM     16  C   UNL     1       7.895  -2.118  -3.304  0.00  0.00    +0.006 A 
ATOM     17  C   UNL     1       8.934  -2.361  -4.183  0.00  0.00    +0.000 A 
ATOM     18  C   UNL     1       9.604  -1.305  -4.772  0.00  0.00    +0.000 A 
ATOM     19  C   UNL     1       9.233  -0.005  -4.483  0.00  0.00    +0.000 A 
ATOM     20  C   UNL     1       8.191   0.239  -3.608  0.00  0.00    +0.006 A 
ENDBRANCH   4  15
BRANCH   1  21
ATOM     21  C   UNL     1       2.988   0.305  -3.272  0.00  0.00    +0.213 C 
BRANCH  21  23
ATOM     22  N   UNL     1       1.031   1.548  -2.411  0.00  0.00    -0.307 N 
ATOM     23  C   UNL     1       2.216   0.959  -2.155  0.00  0.00    +0.231 C 
ATOM     24  O   UNL     1       2.661   0.956  -1.027  0.00  0.00    -0.274 OA
ATOM     25  H   UNL     1       0.675   1.551  -3.313  0.00  0.00    +0.149 HD
BRANCH  22  27
ATOM     26  C   UNL     1       0.784   3.616  -1.129  0.00  0.00    +0.033 C 
ATOM     27  C   UNL     1       0.281   2.185  -1.325  0.00  0.00    +0.107 C 
BRANCH  27  28
ATOM     28  C   UNL     1      -1.185   2.211  -1.676  0.00  0.00    +0.010 A 
ATOM     29  C   UNL     1      -2.258   1.995  -0.876  0.00  0.00    +0.013 A 
ATOM     30  C   UNL     1      -3.526   2.072  -1.421  0.00  0.00    +0.008 A 
ATOM     31  C   UNL     1      -3.659   2.361  -2.739  0.00  0.00    +0.045 A 
ATOM     32  S   UNL     1      -1.958   2.542  -3.251  0.00  0.00    -0.100 S 
ENDBRANCH  27  28
ENDBRANCH  22  27
ENDBRANCH  21  23
ENDBRANCH   1  21
TORSDOF 6
