REMARK  Name = ZINC66122528
REMARK  11 active torsions:
REMARK  status: ('A' for Active; 'I' for Inactive)
REMARK    1  A    between atoms: C_1  and  C_2
REMARK    2  A    between atoms: C_2  and  O_3
REMARK    3  A    between atoms: O_3  and  C_4
REMARK    4  A    between atoms: C_9  and  C_14
REMARK    5  A    between atoms: N_16  and  N_17
REMARK    6  A    between atoms: N_17  and  C_18
REMARK    7  A    between atoms: C_18  and  N_20
REMARK    8  A    between atoms: N_20  and  C_21
REMARK    9  A    between atoms: C_26  and  C_27
REMARK   10  A    between atoms: C_27  and  C_28
REMARK   11  A    between atoms: C_27  and  C_29
REMARK                            x       y       z     vdW  Elec       q    Type
REMARK                         _______ _______ _______ _____ _____    ______ ____
ROOT
ATOM      1  C   UNL     1       1.913  -6.802   4.218  0.00  0.00    +0.276 C 
ATOM      2  O   UNL     1       1.890  -7.872   3.640  0.00  0.00    -0.267 OA
ATOM      3  N   UNL     1       2.682  -6.645   5.314  0.00  0.00    -0.230 N 
ATOM      4  H   UNL     1       2.701  -5.792   5.775  0.00  0.00    +0.173 HD
ENDROOT
BRANCH   1  10
ATOM      5  C   UNL     1      -1.139  -1.811   2.749  0.00  0.00    +0.122 A 
ATOM      6  C   UNL     1      -1.621  -2.604   1.708  0.00  0.00    +0.046 A 
ATOM      7  C   UNL     1      -1.216  -3.899   1.579  0.00  0.00    +0.013 A 
ATOM      8  C   UNL     1      -0.307  -4.442   2.498  0.00  0.00    +0.001 A 
ATOM      9  C   UNL     1       0.291  -5.717   2.633  0.00  0.00    +0.041 A 
ATOM     10  C   UNL     1       1.103  -5.681   3.722  0.00  0.00    +0.104 A 
ATOM     11  N   UNL     1       1.044  -4.421   4.290  0.00  0.00    -0.350 N 
ATOM     12  H   UNL     1       1.530  -4.134   5.078  0.00  0.00    +0.166 HD
ATOM     13  C   UNL     1       0.182  -3.644   3.551  0.00  0.00    +0.050 A 
ATOM     14  C   UNL     1      -0.239  -2.324   3.664  0.00  0.00    +0.071 A 
BRANCH   5  15
ATOM     15  O   UNL     1      -1.555  -0.522   2.862  0.00  0.00    -0.492 OA
BRANCH  15  17
ATOM     16  C   UNL     1      -2.834   1.409   2.173  0.00  0.00    +0.048 C 
ATOM     17  C   UNL     1      -2.486  -0.052   1.885  0.00  0.00    +0.225 C 
ENDBRANCH  15  17
ENDBRANCH   5  15
ENDBRANCH   1  10
BRANCH   3  18
ATOM     18  N   UNL     1       3.455  -7.714   5.787  0.00  0.00    -0.245 N 
ATOM     19  H   UNL     1       3.436  -8.567   5.326  0.00  0.00    +0.172 HD
BRANCH  18  20
ATOM     20  C   UNL     1       4.224  -7.556   6.882  0.00  0.00    +0.151 C 
ATOM     21  S   UNL     1       5.168  -8.862   7.460  0.00  0.00    -0.017 S 
BRANCH  20  22
ATOM     22  N   UNL     1       4.250  -6.371   7.523  0.00  0.00    -0.296 N 
ATOM     23  H   UNL     1       3.778  -5.608   7.152  0.00  0.00    +0.154 HD
BRANCH  22  24
ATOM     24  C   UNL     1       4.956  -6.239   8.723  0.00  0.00    +0.036 A 
ATOM     25  C   UNL     1       4.845  -7.214   9.706  0.00  0.00    +0.023 A 
ATOM     26  C   UNL     1       5.544  -7.082  10.890  0.00  0.00    +0.002 A 
ATOM     27  C   UNL     1       6.354  -5.980  11.097  0.00  0.00    +0.000 A 
ATOM     28  C   UNL     1       6.467  -5.008  10.120  0.00  0.00    +0.006 A 
ATOM     29  C   UNL     1       5.775  -5.137   8.932  0.00  0.00    -0.024 A 
BRANCH  29  30
ATOM     30  C   UNL     1       5.903  -4.080   7.865  0.00  0.00    +0.015 C 
ATOM     31  C   UNL     1       5.413  -2.739   8.415  0.00  0.00    +0.012 C 
ATOM     32  C   UNL     1       7.369  -3.955   7.445  0.00  0.00    +0.012 C 
ENDBRANCH  29  30
ENDBRANCH  22  24
ENDBRANCH  20  22
ENDBRANCH  18  20
ENDBRANCH   3  18
TORSDOF 8
