REMARK  Name = ZINC67636783
REMARK  12 active torsions:
REMARK  status: ('A' for Active; 'I' for Inactive)
REMARK    1  A    between atoms: C_1  and  C_2
REMARK    2  A    between atoms: C_2  and  C_3
REMARK    3  A    between atoms: C_3  and  C_4
REMARK    4  A    between atoms: C_4  and  C_6
REMARK    5  A    between atoms: C_4  and  N_19
REMARK    6  A    between atoms: N_8  and  C_9
REMARK    7  A    between atoms: C_9  and  C_10
REMARK    8  A    between atoms: N_14  and  C_16
REMARK    9  A    between atoms: C_16  and  C_17
REMARK   10  A    between atoms: C_16  and  C_18
REMARK   11  A    between atoms: N_22  and  C_23
REMARK   12  A    between atoms: C_23  and  C_24
REMARK                            x       y       z     vdW  Elec       q    Type
REMARK                         _______ _______ _______ _____ _____    ______ ____
ROOT
ATOM      1  C   UNL     1       0.763  -2.041   1.233  0.00  0.00    +0.160 C 
ENDROOT
BRANCH   1   2
ATOM      2  N   UNL     1       1.551  -2.512   0.092  0.00  0.00    -0.288 N 
ATOM      3  C   UNL     1       0.972  -2.642  -1.119  0.00  0.00    +0.300 C 
ATOM      4  O   UNL     1      -0.203  -2.368  -1.263  0.00  0.00    -0.253 OA
ATOM      5  N   UNL     1       1.697  -3.076  -2.169  0.00  0.00    -0.295 N 
ATOM      6  H   UNL     1       2.489  -2.731   0.207  0.00  0.00    +0.151 HD
ATOM      7  H   UNL     1       2.635  -3.294  -2.054  0.00  0.00    +0.151 HD
BRANCH   5   8
ATOM      8  C   UNL     1       1.069  -3.217  -3.485  0.00  0.00    +0.141 C 
BRANCH   8   9
ATOM      9  C   UNL     1       2.087  -3.714  -4.478  0.00  0.00    -0.030 A 
ATOM     10  C   UNL     1       2.854  -2.812  -5.191  0.00  0.00    +0.008 A 
ATOM     11  C   UNL     1       3.789  -3.267  -6.101  0.00  0.00    +0.038 A 
ATOM     12  C   UNL     1       3.958  -4.627  -6.299  0.00  0.00    +0.123 A 
ATOM     13  C   UNL     1       3.189  -5.530  -5.584  0.00  0.00    +0.038 A 
ATOM     14  C   UNL     1       2.259  -5.072  -4.670  0.00  0.00    +0.008 A 
ATOM     15  F   UNL     1       4.871  -5.073  -7.189  0.00  0.00    -0.205 F 
ENDBRANCH   8   9
ENDBRANCH   5   8
ENDBRANCH   1   2
BRANCH   1  16
ATOM     16  C   UNL     1       1.382  -2.542   2.512  0.00  0.00    +0.233 C 
ATOM     17  O   UNL     1       2.383  -3.225   2.474  0.00  0.00    -0.274 OA
ATOM     18  N   UNL     1       0.824  -2.230   3.699  0.00  0.00    -0.314 N 
ATOM     19  H   UNL     1       0.023  -1.683   3.729  0.00  0.00    +0.149 HD
BRANCH  18  20
ATOM     20  C   UNL     1       1.426  -2.717   4.942  0.00  0.00    +0.106 C 
BRANCH  20  21
ATOM     21  C   UNL     1       0.603  -2.225   6.134  0.00  0.00    -0.012 C 
ATOM     22  C   UNL     1       0.753  -0.692   6.318  0.00  0.00    -0.015 C 
ATOM     23  C   UNL     1       0.482  -0.494   7.824  0.00  0.00    -0.078 C 
ATOM     24  N   UNL     1       0.742  -1.784   8.488  0.00  0.00    +0.381 N 
ATOM     25  C   UNL     1       1.183  -2.759   7.468  0.00  0.00    -0.074 C 
ATOM     26  H   UNL     1      -0.102  -2.115   8.931  0.00  0.00    -0.081 HD
BRANCH  24  27
ATOM     27  C   UNL     1       1.795  -1.616   9.499  0.00  0.00    -0.075 C 
ATOM     28  C   UNL     1       1.328  -0.618  10.561  0.00  0.00    -0.014 C 
ATOM     29  C   UNL     1       2.087  -2.964  10.161  0.00  0.00    -0.014 C 
ENDBRANCH  24  27
ENDBRANCH  20  21
ENDBRANCH  18  20
ENDBRANCH   1  16
BRANCH   1  30
ATOM     30  C   UNL     1       0.742  -0.511   1.242  0.00  0.00    +0.031 C 
BRANCH  30  32
ATOM     31  C   UNL     1      -0.019   1.526   0.010  0.00  0.00    +0.004 C 
ATOM     32  C   UNL     1       0.002  -0.004   0.002  0.00  0.00    -0.001 C 
ENDBRANCH  30  32
ENDBRANCH   1  30
TORSDOF 9
