REMARK  Name = ZINC39638589
REMARK  9 active torsions:
REMARK  status: ('A' for Active; 'I' for Inactive)
REMARK    1  A    between atoms: C_1  and  C_2
REMARK    2  A    between atoms: C_2  and  O_3
REMARK    3  A    between atoms: O_3  and  C_4
REMARK    4  A    between atoms: C_9  and  C_10
REMARK    5  A    between atoms: C_10  and  N_11
REMARK    6  A    between atoms: C_12  and  C_14
REMARK    7  A    between atoms: C_25  and  C_27
REMARK    8  A    between atoms: C_30  and  O_33
REMARK    9  A    between atoms: O_33  and  C_34
REMARK                            x       y       z     vdW  Elec       q    Type
REMARK                         _______ _______ _______ _____ _____    ______ ____
ROOT
ATOM      1  C   UNL     1      -5.253   0.742  -2.481  0.00  0.00    +0.100 C 
ATOM      2  C   UNL     1      -4.178   1.542  -3.251  0.00  0.00    +0.121 C 
ATOM      3  N   UNL     1      -4.944   2.528  -4.048  0.00  0.00    -0.296 N 
ATOM      4  C   UNL     1      -6.035   2.966  -3.144  0.00  0.00    +0.115 C 
ATOM      5  C   UNL     1      -6.469   1.680  -2.413  0.00  0.00    -0.004 C 
ATOM      6  C   UNL     1      -7.664   1.048  -3.121  0.00  0.00    -0.010 C 
ATOM      7  C   UNL     1      -8.877   1.974  -2.991  0.00  0.00    -0.082 C 
ATOM      8  N   UNL     1      -9.181   2.187  -1.571  0.00  0.00    +0.379 N 
ATOM      9  C   UNL     1      -8.063   2.879  -0.917  0.00  0.00    -0.082 C 
ATOM     10  C   UNL     1      -6.816   1.991  -0.960  0.00  0.00    -0.010 C 
ATOM     11  C   UNL     1      -4.705   2.935  -5.311  0.00  0.00    +0.247 C 
ATOM     12  O   UNL     1      -3.844   2.389  -5.972  0.00  0.00    -0.270 OA
ATOM     13  H   UNL     1     -10.016   2.747  -1.488  0.00  0.00    -0.086 HD
ATOM     14  H   UNL     1      -9.331   1.295  -1.123  0.00  0.00    -0.086 HD
ENDROOT
BRANCH  11  15
ATOM     15  C   UNL     1      -5.487   4.045  -5.889  0.00  0.00    +0.037 A 
ATOM     16  C   UNL     1      -6.144   4.950  -5.052  0.00  0.00    +0.016 A 
ATOM     17  C   UNL     1      -6.873   5.984  -5.596  0.00  0.00    +0.047 A 
ATOM     18  C   UNL     1      -6.955   6.128  -6.976  0.00  0.00    +0.130 A 
ATOM     19  C   UNL     1      -6.303   5.230  -7.812  0.00  0.00    +0.047 A 
ATOM     20  C   UNL     1      -5.567   4.197  -7.276  0.00  0.00    +0.016 A 
BRANCH  18  21
ATOM     21  O   UNL     1      -7.675   7.149  -7.508  0.00  0.00    -0.406 OA
BRANCH  21  22
ATOM     22  C   UNL     1      -7.717   7.238  -8.933  0.00  0.00    +0.575 C 
ATOM     23  F   UNL     1      -8.279   6.069  -9.457  0.00  0.00    -0.133 F 
ATOM     24  F   UNL     1      -8.496   8.338  -9.308  0.00  0.00    -0.133 F 
ATOM     25  F   UNL     1      -6.419   7.395  -9.430  0.00  0.00    -0.133 F 
ENDBRANCH  21  22
ENDBRANCH  18  21
ENDBRANCH  11  15
BRANCH   1  27
ATOM     26  N   UNL     1      -5.192  -0.712  -0.481  0.00  0.00    -0.311 N 
ATOM     27  C   UNL     1      -4.767   0.411  -1.094  0.00  0.00    +0.218 C 
ATOM     28  O   UNL     1      -3.993   1.154  -0.528  0.00  0.00    -0.275 OA
ATOM     29  H   UNL     1      -5.811  -1.306  -0.933  0.00  0.00    +0.149 HD
BRANCH  26  30
ATOM     30  C   UNL     1      -4.720  -1.034   0.868  0.00  0.00    +0.143 C 
BRANCH  30  36
ATOM     31  C   UNL     1      -4.817  -3.539   0.887  0.00  0.00    +0.125 A 
ATOM     32  C   UNL     1      -5.387  -4.731   1.310  0.00  0.00    +0.046 A 
ATOM     33  C   UNL     1      -6.477  -4.712   2.158  0.00  0.00    +0.004 A 
ATOM     34  C   UNL     1      -7.000  -3.505   2.585  0.00  0.00    +0.001 A 
ATOM     35  C   UNL     1      -6.434  -2.316   2.165  0.00  0.00    +0.009 A 
ATOM     36  C   UNL     1      -5.340  -2.330   1.321  0.00  0.00    +0.011 A 
BRANCH  31  37
ATOM     37  O   UNL     1      -3.744  -3.556   0.053  0.00  0.00    -0.492 OA
BRANCH  37  39
ATOM     38  C   UNL     1      -2.056  -4.656  -1.283  0.00  0.00    +0.048 C 
ATOM     39  C   UNL     1      -3.258  -4.837  -0.353  0.00  0.00    +0.225 C 
ENDBRANCH  37  39
ENDBRANCH  31  37
ENDBRANCH  30  36
ENDBRANCH  26  30
ENDBRANCH   1  27
TORSDOF 8
