REMARK  Name = ZINC63375222
REMARK  7 active torsions:
REMARK  status: ('A' for Active; 'I' for Inactive)
REMARK    1  A    between atoms: C_1  and  C_2
REMARK    2  A    between atoms: C_2  and  C_3
REMARK    3  A    between atoms: C_3  and  C_5
REMARK    4  A    between atoms: C_3  and  N_6
REMARK    5  A    between atoms: C_7  and  C_9
REMARK    6  A    between atoms: C_14  and  N_15
REMARK    7  A    between atoms: C_31  and  C_36
REMARK                            x       y       z     vdW  Elec       q    Type
REMARK                         _______ _______ _______ _____ _____    ______ ____
ROOT
ATOM      1  N   UNL     1       4.453   0.322   4.649  0.00  0.00    -0.192 N 
ATOM      2  C   UNL     1       4.447  -0.884   5.254  0.00  0.00    +0.248 C 
ATOM      3  O   UNL     1       4.905  -1.921   4.824  0.00  0.00    -0.273 OA
ATOM      4  C   UNL     1       3.749  -0.674   6.581  0.00  0.00    +0.169 C 
ATOM      5  C   UNL     1       2.506  -1.576   6.667  0.00  0.00    +0.065 C 
ATOM      6  C   UNL     1       1.566  -0.917   7.649  0.00  0.00    -0.034 C 
ATOM      7  C   UNL     1       0.312  -1.210   7.978  0.00  0.00    -0.001 A 
ATOM      8  C   UNL     1      -0.570  -2.319   7.580  0.00  0.00    +0.010 A 
ATOM      9  C   UNL     1      -1.824  -2.303   8.103  0.00  0.00    +0.001 A 
ATOM     10  C   UNL     1      -2.283  -1.308   8.971  0.00  0.00    +0.002 A 
ATOM     11  C   UNL     1      -1.538  -0.256   9.394  0.00  0.00    +0.026 A 
ATOM     12  C   UNL     1      -0.199  -0.166   8.916  0.00  0.00    +0.043 A 
ATOM     13  N   UNL     1       0.728   0.711   9.169  0.00  0.00    -0.375 N 
ATOM     14  C   UNL     1       1.950   0.307   8.470  0.00  0.00    +0.131 C 
ATOM     15  C   UNL     1       2.415   1.385   7.482  0.00  0.00    +0.135 C 
ATOM     16  N   UNL     1       3.313   0.736   6.513  0.00  0.00    -0.264 N 
ATOM     17  C   UNL     1       3.833   1.250   5.391  0.00  0.00    +0.317 C 
ATOM     18  O   UNL     1       3.749   2.422   5.079  0.00  0.00    -0.252 OA
ATOM     19  H   UNL     1       0.626   1.499   9.725  0.00  0.00    +0.160 HD
ENDROOT
BRANCH   1  25
ATOM     20  C   UNL     1       4.284   0.437   2.232  0.00  0.00    +0.059 A 
ATOM     21  C   UNL     1       4.880   0.696   0.996  0.00  0.00    +0.015 A 
ATOM     22  C   UNL     1       6.202   1.079   0.937  0.00  0.00    +0.001 A 
ATOM     23  C   UNL     1       6.946   1.208   2.099  0.00  0.00    +0.002 A 
ATOM     24  C   UNL     1       6.370   0.955   3.328  0.00  0.00    +0.025 A 
ATOM     25  C   UNL     1       5.038   0.574   3.407  0.00  0.00    +0.058 A 
BRANCH  20  27
ATOM     26  N   UNL     1       2.148  -0.104   1.172  0.00  0.00    -0.309 N 
ATOM     27  C   UNL     1       2.869   0.026   2.303  0.00  0.00    +0.246 C 
ATOM     28  O   UNL     1       2.352  -0.194   3.381  0.00  0.00    -0.270 OA
ATOM     29  H   UNL     1       2.559   0.072   0.311  0.00  0.00    +0.149 HD
BRANCH  26  30
ATOM     30  C   UNL     1       0.742  -0.511   1.242  0.00  0.00    +0.070 C 
ATOM     31  C   UNL     1       0.655  -2.037   1.299  0.00  0.00    +0.028 C 
BRANCH  30  33
ATOM     32  C   UNL     1      -0.019   1.526   0.010  0.00  0.00    +0.005 C 
ATOM     33  C   UNL     1       0.002  -0.004   0.002  0.00  0.00    +0.018 C 
ENDBRANCH  30  33
ENDBRANCH  26  30
ENDBRANCH  20  27
ENDBRANCH   1  25
BRANCH  15  34
ATOM     34  C   UNL     1       1.224   1.988   6.783  0.00  0.00    -0.025 A 
ATOM     35  C   UNL     1       0.634   1.323   5.725  0.00  0.00    +0.005 A 
ATOM     36  C   UNL     1      -0.459   1.876   5.083  0.00  0.00    +0.000 A 
ATOM     37  C   UNL     1      -0.961   3.095   5.500  0.00  0.00    +0.000 A 
ATOM     38  C   UNL     1      -0.371   3.760   6.558  0.00  0.00    +0.000 A 
ATOM     39  C   UNL     1       0.719   3.205   7.203  0.00  0.00    +0.005 A 
ENDBRANCH  15  34
TORSDOF 5
