REMARK  Name = ZINC13174275
REMARK  8 active torsions:
REMARK  status: ('A' for Active; 'I' for Inactive)
REMARK    1  A    between atoms: C_1  and  C_2
REMARK    2  A    between atoms: C_6  and  N_9
REMARK    3  A    between atoms: C_7  and  C_8
REMARK    4  A    between atoms: C_10  and  C_12
REMARK    5  A    between atoms: C_12  and  S_13
REMARK    6  A    between atoms: S_13  and  C_14
REMARK    7  A    between atoms: C_15  and  C_31
REMARK    8  A    between atoms: C_16  and  C_26
REMARK                            x       y       z     vdW  Elec       q    Type
REMARK                         _______ _______ _______ _____ _____    ______ ____
ROOT
ATOM      1  C   UNL     1      -0.334  -7.412   4.943  0.00  0.00    +0.112 C 
ATOM      2  C   UNL     1      -0.418  -8.791   5.040  0.00  0.00    +0.076 C 
ATOM      3  C   UNL     1      -0.508  -9.385   6.434  0.00  0.00    +0.133 C 
ATOM      4  C   UNL     1      -0.495  -8.391   7.579  0.00  0.00    +0.032 C 
ATOM      5  C   UNL     1      -0.568  -8.827   8.847  0.00  0.00    +0.162 C 
ATOM      6  C   UNL     1      -0.559  -7.866  10.006  0.00  0.00    +0.080 C 
ATOM      7  C   UNL     1       0.236  -6.616   9.621  0.00  0.00    +0.014 C 
ATOM      8  C   UNL     1      -0.391  -5.996   8.369  0.00  0.00    +0.056 C 
ATOM      9  C   UNL     1      -0.405  -7.023   7.261  0.00  0.00    +0.050 C 
ATOM     10  N   UNL     1      -0.326  -6.621   6.017  0.00  0.00    -0.244 NA
ATOM     11  O   UNL     1      -0.651 -10.150   9.086  0.00  0.00    -0.292 OA
ENDROOT
BRANCH   3  12
ATOM     12  C   UNL     1       0.653 -10.327   6.620  0.00  0.00    +0.117 A 
ATOM     13  C   UNL     1       0.565 -11.644   6.880  0.00  0.00    +0.045 A 
ATOM     14  C   UNL     1       1.888 -12.132   6.977  0.00  0.00    +0.041 A 
ATOM     15  C   UNL     1       2.706 -11.085   6.771  0.00  0.00    +0.195 A 
ATOM     16  O   UNL     1       1.953  -9.995   6.550  0.00  0.00    -0.467 OA
ENDBRANCH   3  12
BRANCH   2  17
ATOM     17  C   UNL     1      -0.419  -9.621   3.873  0.00  0.00    +0.099 C 
ATOM     18  N   UNL     1      -0.421 -10.280   2.948  0.00  0.00    -0.191 NA
ENDBRANCH   2  17
BRANCH   1  19
ATOM     19  S   UNL     1      -0.226  -6.677   3.345  0.00  0.00    -0.096 S 
BRANCH  19  20
ATOM     20  C   UNL     1      -0.129  -4.898   3.686  0.00  0.00    +0.172 C 
BRANCH  20  22
ATOM     21  N   UNL     1       0.052  -2.797   2.393  0.00  0.00    -0.285 N 
ATOM     22  C   UNL     1      -0.031  -4.143   2.385  0.00  0.00    +0.227 C 
ATOM     23  O   UNL     1      -0.028  -4.745   1.333  0.00  0.00    -0.275 OA
ATOM     24  H   UNL     1       0.130  -2.321   3.234  0.00  0.00    +0.155 HD
BRANCH  21  30
ATOM     25  C   UNL     1       1.206   1.236  -0.172  0.00  0.00    +0.044 C 
ATOM     26  C   UNL     1       0.577  -0.131  -0.084  0.00  0.00    -0.046 A 
ATOM     27  C   UNL     1      -0.027  -0.686  -1.198  0.00  0.00    +0.004 A 
ATOM     28  C   UNL     1      -0.605  -1.940  -1.122  0.00  0.00    +0.002 A 
ATOM     29  C   UNL     1      -0.580  -2.642   0.067  0.00  0.00    +0.023 A 
ATOM     30  C   UNL     1       0.026  -2.088   1.187  0.00  0.00    +0.037 A 
ATOM     31  C   UNL     1       0.610  -0.831   1.106  0.00  0.00    -0.026 A 
ATOM     32  C   UNL     1       1.274  -0.228   2.317  0.00  0.00    +0.046 C 
ENDBRANCH  21  30
ENDBRANCH  20  22
ENDBRANCH  19  20
ENDBRANCH   1  19
TORSDOF 6
