REMARK  Name = ZINC53333884
REMARK  7 active torsions:
REMARK  status: ('A' for Active; 'I' for Inactive)
REMARK    1  A    between atoms: C_1  and  C_2
REMARK    2  A    between atoms: C_2  and  C_3
REMARK    3  A    between atoms: C_3  and  C_4
REMARK    4  A    between atoms: C_7  and  O_10
REMARK    5  A    between atoms: O_10  and  C_11
REMARK    6  A    between atoms: C_14  and  N_20
REMARK    7  A    between atoms: C_16  and  C_17
REMARK                            x       y       z     vdW  Elec       q    Type
REMARK                         _______ _______ _______ _____ _____    ______ ____
ROOT
ATOM      1  C   UNL     1      -2.431  -6.820   0.490  0.00  0.00    +0.141 A 
ATOM      2  C   UNL     1      -3.548  -6.108   0.902  0.00  0.00    +0.049 A 
ATOM      3  C   UNL     1      -4.641  -6.772   1.419  0.00  0.00    +0.026 A 
ATOM      4  C   UNL     1      -4.633  -8.158   1.532  0.00  0.00    +0.025 A 
ATOM      5  C   UNL     1      -3.525  -8.882   1.126  0.00  0.00    +0.039 A 
ATOM      6  C   UNL     1      -2.417  -8.217   0.596  0.00  0.00    +0.080 A 
ENDROOT
BRANCH   6   7
ATOM      7  C   UNL     1      -1.235  -8.982   0.154  0.00  0.00    +0.245 C 
ATOM      8  O   UNL     1      -0.270  -8.400  -0.302  0.00  0.00    -0.270 OA
ATOM      9  N   UNL     1      -1.225 -10.326   0.257  0.00  0.00    -0.325 N 
ATOM     10  H   UNL     1      -1.995 -10.790   0.621  0.00  0.00    +0.145 HD
ATOM     11  H   UNL     1      -0.448 -10.829  -0.033  0.00  0.00    +0.145 HD
ENDBRANCH   6   7
BRANCH   4  12
ATOM     12  N   UNL     1      -5.746  -8.823   2.058  0.00  0.00    -0.358 N 
ATOM     13  H   UNL     1      -6.523  -8.317   2.344  0.00  0.00    +0.142 HD
ATOM     14  H   UNL     1      -5.741  -9.790   2.138  0.00  0.00    +0.142 HD
ENDBRANCH   4  12
BRANCH   1  15
ATOM     15  O   UNL     1      -1.356  -6.165  -0.018  0.00  0.00    -0.455 OA
BRANCH  15  19
ATOM     16  C   UNL     1      -1.379  -2.041   0.075  0.00  0.00    -0.047 A 
ATOM     17  C   UNL     1      -1.448  -2.705  -1.137  0.00  0.00    +0.007 A 
ATOM     18  C   UNL     1      -1.441  -4.085  -1.171  0.00  0.00    +0.046 A 
ATOM     19  C   UNL     1      -1.363  -4.807   0.012  0.00  0.00    +0.128 A 
ATOM     20  C   UNL     1      -1.294  -4.139   1.226  0.00  0.00    +0.046 A 
ATOM     21  C   UNL     1      -1.297  -2.757   1.254  0.00  0.00    +0.007 A 
BRANCH  16  22
ATOM     22  C   UNL     1      -1.388  -0.534   0.108  0.00  0.00    +0.035 C 
BRANCH  22  24
ATOM     23  C   UNL     1       0.041   1.515   0.060  0.00  0.00    +0.004 C 
ATOM     24  C   UNL     1       0.049  -0.015   0.025  0.00  0.00    +0.001 C 
ENDBRANCH  22  24
ENDBRANCH  16  22
ENDBRANCH  15  19
ENDBRANCH   1  15
TORSDOF 6
