REMARK  Name = ZINC00067182
REMARK  8 active torsions:
REMARK  status: ('A' for Active; 'I' for Inactive)
REMARK    1  A    between atoms: C_1  and  C_2
REMARK    2  A    between atoms: C_2  and  O_3
REMARK    3  A    between atoms: O_3  and  C_4
REMARK    4  A    between atoms: C_4  and  C_6
REMARK    5  A    between atoms: C_8  and  C_20
REMARK    6  A    between atoms: C_14  and  C_15
REMARK    7  A    between atoms: C_14  and  O_19
REMARK    8  A    between atoms: C_23  and  O_26
REMARK                            x       y       z     vdW  Elec       q    Type
REMARK                         _______ _______ _______ _____ _____    ______ ____
ROOT
ATOM      1  C   UNL     1       1.556  -2.407   2.759  0.00  0.00    +0.181 C 
ATOM      2  C   UNL     1       1.460  -3.936   2.739  0.00  0.00    +0.123 C 
ATOM      3  N   UNL     1       2.446  -4.492   3.667  0.00  0.00    -0.292 N 
ATOM      4  C   UNL     1       3.592  -3.849   3.934  0.00  0.00    +0.302 C 
ATOM      5  O   UNL     1       4.382  -4.360   4.705  0.00  0.00    -0.253 OA
ATOM      6  N   UNL     1       3.902  -2.666   3.385  0.00  0.00    -0.264 N 
ATOM      7  C   UNL     1       3.000  -2.001   2.443  0.00  0.00    +0.246 C 
ATOM      8  H   UNL     1       2.266  -5.342   4.098  0.00  0.00    +0.151 HD
ATOM      9  H   UNL     1       4.742  -2.239   3.618  0.00  0.00    +0.153 HD
ENDROOT
BRANCH   2  10
ATOM     10  C   UNL     1       0.076  -4.359   3.159  0.00  0.00    -0.026 A 
ATOM     11  C   UNL     1      -0.261  -4.385   4.500  0.00  0.00    +0.009 A 
ATOM     12  C   UNL     1      -1.528  -4.772   4.888  0.00  0.00    +0.046 A 
ATOM     13  C   UNL     1      -2.465  -5.136   3.931  0.00  0.00    +0.117 A 
ATOM     14  C   UNL     1      -2.125  -5.108   2.587  0.00  0.00    +0.046 A 
ATOM     15  C   UNL     1      -0.858  -4.715   2.203  0.00  0.00    +0.009 A 
BRANCH  13  16
ATOM     16  O   UNL     1      -3.713  -5.518   4.311  0.00  0.00    -0.507 OA
ATOM     17  H   UNL     1      -4.346  -4.790   4.369  0.00  0.00    +0.292 HD
ENDBRANCH  13  16
ENDBRANCH   2  10
BRANCH   7  18
ATOM     18  C   UNL     1       3.144  -0.483   2.573  0.00  0.00    +0.436 C 
ATOM     19  F   UNL     1       2.709  -0.081   3.840  0.00  0.00    -0.166 F 
ATOM     20  F   UNL     1       4.487  -0.127   2.407  0.00  0.00    -0.166 F 
ATOM     21  F   UNL     1       2.370   0.145   1.592  0.00  0.00    -0.166 F 
ENDBRANCH   7  18
BRANCH   1  22
ATOM     22  C   UNL     1       0.629  -1.827   1.722  0.00  0.00    +0.317 C 
ATOM     23  O   UNL     1       0.568  -2.322   0.622  0.00  0.00    -0.250 OA
BRANCH  22  24
ATOM     24  O   UNL     1      -0.130  -0.761   2.022  0.00  0.00    -0.465 OA
BRANCH  24  26
ATOM     25  C   UNL     1      -1.767   0.943   1.514  0.00  0.00    +0.048 C 
ATOM     26  C   UNL     1      -0.986  -0.265   0.991  0.00  0.00    +0.229 C 
ENDBRANCH  24  26
ENDBRANCH  22  24
ENDBRANCH   1  22
BRANCH   7  27
ATOM     27  O   UNL     1       3.327  -2.400   1.110  0.00  0.00    -0.364 OA
ATOM     28  H   UNL     1       4.228  -2.175   0.842  0.00  0.00    +0.212 HD
ENDBRANCH   7  27
TORSDOF 7
