REMARK  Name = ZINC00827985
REMARK  16 active torsions:
REMARK  status: ('A' for Active; 'I' for Inactive)
REMARK    1  A    between atoms: C_1  and  C_2
REMARK    2  A    between atoms: C_4  and  C_33
REMARK    3  A    between atoms: N_5  and  C_7
REMARK    4  A    between atoms: C_7  and  C_8
REMARK    5  A    between atoms: C_8  and  C_10
REMARK    6  A    between atoms: C_8  and  O_32
REMARK    7  A    between atoms: C_10  and  O_11
REMARK    8  A    between atoms: O_11  and  C_12
REMARK    9  A    between atoms: C_15  and  O_18
REMARK   10  A    between atoms: O_18  and  C_19
REMARK   11  A    between atoms: C_19  and  C_20
REMARK   12  A    between atoms: C_20  and  C_22
REMARK   13  A    between atoms: C_20  and  O_31
REMARK   14  A    between atoms: C_22  and  N_23
REMARK   15  A    between atoms: C_24  and  C_30
REMARK   16  A    between atoms: C_26  and  C_28
REMARK                            x       y       z     vdW  Elec       q    Type
REMARK                         _______ _______ _______ _____ _____    ______ ____
ROOT
ATOM      1  C   UNL     1       3.242   6.713   2.977  0.00  0.00    +0.121 A 
ATOM      2  C   UNL     1       3.490   7.527   1.881  0.00  0.00    +0.049 A 
ATOM      3  C   UNL     1       4.005   8.795   2.066  0.00  0.00    +0.049 A 
ATOM      4  C   UNL     1       4.282   9.252   3.345  0.00  0.00    +0.121 A 
ATOM      5  C   UNL     1       4.039   8.437   4.441  0.00  0.00    +0.049 A 
ATOM      6  C   UNL     1       3.520   7.170   4.256  0.00  0.00    +0.049 A 
ENDROOT
BRANCH   1   7
ATOM      7  O   UNL     1       2.731   5.466   2.795  0.00  0.00    -0.489 OA
BRANCH   7   8
ATOM      8  C   UNL     1       2.469   5.062   1.450  0.00  0.00    +0.262 C 
BRANCH   8   9
ATOM      9  C   UNL     1       1.902   3.641   1.446  0.00  0.00    +0.173 C 
BRANCH   9  10
ATOM     10  O   UNL     1       0.630   3.634   2.098  0.00  0.00    -0.387 OA
ATOM     11  H   UNL     1      -0.029   4.205   1.680  0.00  0.00    +0.210 HD
ENDBRANCH   9  10
BRANCH   9  12
ATOM     12  C   UNL     1       1.738   3.161   0.002  0.00  0.00    +0.178 C 
BRANCH  12  17
ATOM     13  C   UNL     1      -1.207  -0.904   0.009  0.00  0.00    +0.068 C 
ATOM     14  C   UNL     1       0.002  -0.004   0.002  0.00  0.00    +0.074 A 
ATOM     15  C   UNL     1       1.337  -0.423  -0.013  0.00  0.00    +0.061 A 
ATOM     16  C   UNL     1       2.120   0.681  -0.015  0.00  0.00    +0.050 A 
ATOM     17  N   UNL     1       1.309   1.760  -0.001  0.00  0.00    -0.265 N 
ATOM     18  N   UNL     1      -0.016   1.304   0.009  0.00  0.00    -0.175 NA
ATOM     19  C   UNL     1       3.627   0.702  -0.028  0.00  0.00    +0.066 C 
ATOM     20 BR   UNL     1       1.940  -2.215  -0.028  0.00  0.00    -0.047 Br
ENDBRANCH  12  17
ENDBRANCH   9  12
ENDBRANCH   8   9
ENDBRANCH   7   8
ENDBRANCH   1   7
BRANCH   4  21
ATOM     21  O   UNL     1       4.792  10.499   3.527  0.00  0.00    -0.489 OA
BRANCH  21  22
ATOM     22  C   UNL     1       5.018  11.285   2.354  0.00  0.00    +0.262 C 
BRANCH  22  23
ATOM     23  C   UNL     1       5.590  12.646   2.755  0.00  0.00    +0.173 C 
BRANCH  23  24
ATOM     24  O   UNL     1       6.879  12.467   3.344  0.00  0.00    -0.387 OA
ATOM     25  H   UNL     1       7.524  12.048   2.758  0.00  0.00    +0.210 HD
ENDBRANCH  23  24
BRANCH  23  26
ATOM     26  C   UNL     1       5.715  13.532   1.514  0.00  0.00    +0.178 C 
BRANCH  26  27
ATOM     27  N   UNL     1       6.149  14.873   1.913  0.00  0.00    -0.265 N 
ATOM     28  C   UNL     1       5.341  15.906   2.235  0.00  0.00    +0.050 A 
ATOM     29  C   UNL     1       6.128  16.962   2.547  0.00  0.00    +0.061 A 
ATOM     30  C   UNL     1       7.461  16.564   2.401  0.00  0.00    +0.074 A 
ATOM     31  N   UNL     1       7.474  15.312   2.020  0.00  0.00    -0.175 NA
ATOM     32  C   UNL     1       8.673  17.428   2.640  0.00  0.00    +0.068 C 
ATOM     33 BR   UNL     1       5.530  18.676   3.079  0.00  0.00    -0.047 Br
ATOM     34  C   UNL     1       3.834  15.885   2.249  0.00  0.00    +0.066 C 
ENDBRANCH  26  27
ENDBRANCH  23  26
ENDBRANCH  22  23
ENDBRANCH  21  22
ENDBRANCH   4  21
TORSDOF 12
