REMARK  Name = ZINC05102198
REMARK  4 active torsions:
REMARK  status: ('A' for Active; 'I' for Inactive)
REMARK    1  A    between atoms: C_1  and  C_2
REMARK    2  A    between atoms: C_5  and  S_8
REMARK    3  A    between atoms: S_8  and  N_11
REMARK    4  A    between atoms: N_11  and  N_12
REMARK                            x       y       z     vdW  Elec       q    Type
REMARK                         _______ _______ _______ _____ _____    ______ ____
ROOT
ATOM      1  N   UNL     1       3.305   1.795  -2.450  0.00  0.00    -0.169 NA
ATOM      2  C   UNL     1       3.723   1.620  -3.668  0.00  0.00    +0.084 C 
ATOM      3  C   UNL     1       4.042   2.783  -4.593  0.00  0.00    +0.059 C 
ATOM      4  C   UNL     1       3.474   2.466  -5.980  0.00  0.00    +0.011 C 
ATOM      5  C   UNL     1       4.177   1.245  -6.579  0.00  0.00    +0.038 C 
ATOM      6  C   UNL     1       4.131   0.107  -5.594  0.00  0.00    -0.013 A 
ATOM      7  C   UNL     1       3.926   0.277  -4.247  0.00  0.00    +0.067 A 
ATOM      8  N   UNL     1       3.942  -0.941  -3.615  0.00  0.00    -0.353 N 
ATOM      9  H   UNL     1       3.812  -1.080  -2.664  0.00  0.00    +0.166 HD
ATOM     10  C   UNL     1       4.168  -1.928  -4.535  0.00  0.00    +0.047 A 
ATOM     11  C   UNL     1       4.287  -1.310  -5.814  0.00  0.00    +0.003 A 
ATOM     12  C   UNL     1       4.539  -2.070  -6.961  0.00  0.00    +0.010 A 
ATOM     13  C   UNL     1       4.640  -3.430  -6.799  0.00  0.00    +0.001 A 
ATOM     14  C   UNL     1       4.513  -4.035  -5.559  0.00  0.00    +0.002 A 
ATOM     15  C   UNL     1       4.276  -3.310  -4.404  0.00  0.00    +0.026 A 
ENDROOT
BRANCH   1  16
ATOM     16  N   UNL     1       2.843   0.703  -1.704  0.00  0.00    -0.136 N 
ATOM     17  H   UNL     1       2.739  -0.164  -2.126  0.00  0.00    +0.197 HD
BRANCH  16  18
ATOM     18  S   UNL     1       2.475   0.893  -0.100  0.00  0.00    +0.086 S 
ATOM     19  O   UNL     1       3.623   1.460   0.516  0.00  0.00    -0.149 OA
ATOM     20  O   UNL     1       1.906  -0.335   0.333  0.00  0.00    -0.149 OA
BRANCH  18  25
ATOM     21  C   UNL     1      -1.896   5.038   0.247  0.00  0.00    +0.044 C 
ATOM     22  C   UNL     1      -0.804   4.003   0.161  0.00  0.00    -0.050 A 
ATOM     23  C   UNL     1      -1.129   2.665   0.028  0.00  0.00    +0.005 A 
ATOM     24  C   UNL     1      -0.127   1.715  -0.046  0.00  0.00    +0.029 A 
ATOM     25  C   UNL     1       1.199   2.103   0.002  0.00  0.00    +0.110 A 
ATOM     26  C   UNL     1       1.523   3.441   0.130  0.00  0.00    +0.029 A 
ATOM     27  C   UNL     1       0.522   4.390   0.209  0.00  0.00    +0.005 A 
ENDBRANCH  18  25
ENDBRANCH  16  18
ENDBRANCH   1  16
TORSDOF 3
