REMARK  Name = ZINC10341445
REMARK  11 active torsions:
REMARK  status: ('A' for Active; 'I' for Inactive)
REMARK    1  A    between atoms: C_1  and  O_2
REMARK    2  A    between atoms: O_2  and  C_3
REMARK    3  A    between atoms: C_3  and  C_4
REMARK    4  A    between atoms: C_4  and  C_5
REMARK    5  A    between atoms: C_5  and  N_6
REMARK    6  A    between atoms: N_6  and  C_7
REMARK    7  A    between atoms: C_8  and  N_23
REMARK    8  A    between atoms: N_9  and  C_16
REMARK    9  A    between atoms: C_16  and  C_17
REMARK   10  A    between atoms: C_24  and  C_26
REMARK   11  A    between atoms: C_26  and  N_63
REMARK                            x       y       z     vdW  Elec       q    Type
REMARK                         _______ _______ _______ _____ _____    ______ ____
ROOT
ATOM      1  N   UNL     1       0.208  -2.884  -2.342  0.00  0.00    -0.266 N 
ATOM      2  C   UNL     1       0.144  -2.297  -3.555  0.00  0.00    +0.203 C 
ATOM      3  O   UNL     1       0.402  -1.117  -3.673  0.00  0.00    -0.277 OA
ENDROOT
BRANCH   1   4
ATOM      4  C   UNL     1       0.470  -2.106  -1.194  0.00  0.00    +0.140 A 
ATOM      5  C   UNL     1       1.636  -2.281  -0.478  0.00  0.00    +0.128 A 
ATOM      6  N   UNL     1       1.860  -1.510   0.639  0.00  0.00    -0.276 N 
ATOM      7  C   UNL     1       0.957  -0.589   1.023  0.00  0.00    +0.331 A 
ATOM      8  O   UNL     1       1.176   0.085   2.011  0.00  0.00    -0.246 OA
ATOM      9  N   UNL     1      -0.182  -0.401   0.334  0.00  0.00    -0.273 N 
ATOM     10  H   UNL     1      -0.837   0.290   0.641  0.00  0.00    +0.173 HD
ATOM     11  C   UNL     1      -0.452  -1.133  -0.764  0.00  0.00    +0.277 A 
ATOM     12  O   UNL     1      -1.489  -0.954  -1.381  0.00  0.00    -0.266 OA
BRANCH   5  13
ATOM     13  N   UNL     1       2.560  -3.218  -0.873  0.00  0.00    -0.343 N 
ATOM     14  H   UNL     1       3.332  -3.403  -0.315  0.00  0.00    +0.144 HD
ATOM     15  H   UNL     1       2.441  -3.694  -1.709  0.00  0.00    +0.144 HD
ENDBRANCH   5  13
BRANCH   6  16
ATOM     16  C   UNL     1       3.091  -1.689   1.412  0.00  0.00    +0.163 C 
BRANCH  16  17
ATOM     17  C   UNL     1       2.865  -2.723   2.485  0.00  0.00    -0.028 A 
ATOM     18  C   UNL     1       2.418  -2.335   3.735  0.00  0.00    +0.005 A 
ATOM     19  C   UNL     1       2.206  -3.284   4.718  0.00  0.00    +0.000 A 
ATOM     20  C   UNL     1       2.451  -4.618   4.455  0.00  0.00    +0.000 A 
ATOM     21  C   UNL     1       2.904  -5.005   3.207  0.00  0.00    +0.000 A 
ATOM     22  C   UNL     1       3.111  -4.057   2.222  0.00  0.00    +0.005 A 
ENDBRANCH  16  17
ENDBRANCH   6  16
ENDBRANCH   1   4
BRANCH   1  23
ATOM     23  C   UNL     1       0.007  -4.330  -2.216  0.00  0.00    +0.116 C 
BRANCH  23  24
ATOM     24  C   UNL     1      -1.464  -4.615  -1.908  0.00  0.00    +0.047 C 
BRANCH  24  25
ATOM     25  C   UNL     1      -1.675  -6.124  -1.777  0.00  0.00    +0.161 C 
BRANCH  25  27
ATOM     26  C   UNL     1      -3.355  -7.779  -1.347  0.00  0.00    +0.193 C 
ATOM     27  O   UNL     1      -3.049  -6.391  -1.490  0.00  0.00    -0.383 OA
ENDBRANCH  25  27
ENDBRANCH  24  25
ENDBRANCH  23  24
ENDBRANCH   1  23
BRANCH   2  28
ATOM     28  C   UNL     1      -0.247  -3.107  -4.764  0.00  0.00    +0.020 C 
BRANCH  28  37
ATOM     29  C   UNL     1      -1.381  -1.240  -5.811  0.00  0.00    -0.073 C 
ATOM     30  C   UNL     1      -1.147  -0.115  -6.833  0.00  0.00    +0.024 C 
ATOM     31  C   UNL     1      -0.834  -0.753  -8.147  0.00  0.00    -0.011 A 
ATOM     32  C   UNL     1      -0.504  -2.058  -8.360  0.00  0.00    -0.054 A 
ATOM     33  C   UNL     1      -0.254  -2.429  -9.679  0.00  0.00    +0.009 A 
ATOM     34  C   UNL     1      -0.343  -1.510 -10.669  0.00  0.00    +0.045 A 
ATOM     35  S   UNL     1      -0.797  -0.037  -9.766  0.00  0.00    -0.101 S 
ATOM     36  C   UNL     1      -0.426  -3.018  -7.177  0.00  0.00    -0.042 C 
ATOM     37  N   UNL     1      -0.272  -2.216  -5.941  0.00  0.00    +0.388 N 
ATOM     38  H   UNL     1       0.616  -1.702  -5.988  0.00  0.00    -0.081 HD
ENDBRANCH  28  37
ENDBRANCH   2  28
TORSDOF 10
