REMARK  Name = ZINC16022132
REMARK  6 active torsions:
REMARK  status: ('A' for Active; 'I' for Inactive)
REMARK    1  A    between atoms: C_1  and  C_2
REMARK    2  A    between atoms: C_13  and  C_16
REMARK    3  A    between atoms: C_16  and  C_17
REMARK    4  A    between atoms: C_20  and  O_24
REMARK    5  A    between atoms: C_21  and  O_23
REMARK    6  A    between atoms: N_27  and  C_30
REMARK                            x       y       z     vdW  Elec       q    Type
REMARK                         _______ _______ _______ _____ _____    ______ ____
ROOT
ATOM      1  C   UNL     1      -0.018   1.503   0.010  0.00  0.00    +0.044 C 
ATOM      2  C   UNL     1       0.002  -0.004   0.002  0.00  0.00    -0.050 A 
ATOM      3  C   UNL     1       0.006  -0.691  -1.198  0.00  0.00    +0.005 A 
ATOM      4  C   UNL     1       0.024  -2.070  -1.212  0.00  0.00    +0.024 A 
ATOM      5  C   UNL     1       0.040  -2.783  -0.015  0.00  0.00    +0.039 A 
ATOM      6  C   UNL     1       0.036  -2.081   1.186  0.00  0.00    +0.004 A 
ATOM      7  C   UNL     1       0.023  -0.704   1.195  0.00  0.00    +0.011 A 
ATOM      8  C   UNL     1       0.057  -3.122   2.269  0.00  0.00    +0.136 C 
ATOM      9  C   UNL     1      -1.165  -3.000   3.188  0.00  0.00    +0.122 C 
ATOM     10  C   UNL     1      -0.630  -3.365   4.601  0.00  0.00    +0.107 C 
ATOM     11  C   UNL     1       0.859  -3.705   4.386  0.00  0.00    +0.072 C 
ATOM     12  N   UNL     1       1.236  -2.971   3.141  0.00  0.00    -0.295 NA
ATOM     13  C   UNL     1      -0.757  -2.069   5.368  0.00  0.00    +0.227 C 
ATOM     14  O   UNL     1      -0.434  -1.905   6.525  0.00  0.00    -0.275 OA
ATOM     15  N   UNL     1      -1.281  -1.130   4.571  0.00  0.00    -0.238 N 
ATOM     16  C   UNL     1      -1.562  -1.546   3.315  0.00  0.00    +0.228 C 
ATOM     17  O   UNL     1      -2.047  -0.873   2.431  0.00  0.00    -0.275 OA
ATOM     18  C   UNL     1       0.072  -4.440   1.545  0.00  0.00    +0.243 C 
ATOM     19  O   UNL     1       0.091  -5.543   2.049  0.00  0.00    -0.273 OA
ATOM     20  N   UNL     1       0.060  -4.157   0.228  0.00  0.00    -0.283 N 
ATOM     21  H   UNL     1       2.054  -3.383   2.717  0.00  0.00    +0.124 HD
ATOM     22  H   UNL     1       0.064  -4.831  -0.470  0.00  0.00    +0.155 HD
ENDROOT
BRANCH  15  23
ATOM     23  C   UNL     1      -1.536   0.240   5.023  0.00  0.00    +0.084 C 
ATOM     24  C   UNL     1      -0.232   0.876   5.545  0.00  0.00    +0.023 C 
ATOM     25  C   UNL     1      -0.685   1.736   6.751  0.00  0.00    +0.002 C 
ATOM     26  C   UNL     1      -1.785   0.861   7.401  0.00  0.00    +0.002 C 
ATOM     27  C   UNL     1      -2.524   0.230   6.203  0.00  0.00    +0.023 C 
ENDBRANCH  15  23
BRANCH  11  28
ATOM     28  C   UNL     1       1.696  -3.198   5.562  0.00  0.00    +0.054 C 
BRANCH  28  29
ATOM     29  C   UNL     1       3.125  -3.646   5.392  0.00  0.00    -0.042 A 
ATOM     30  C   UNL     1       3.535  -4.858   5.915  0.00  0.00    +0.007 A 
ATOM     31  C   UNL     1       4.844  -5.274   5.762  0.00  0.00    +0.049 A 
ATOM     32  C   UNL     1       5.750  -4.475   5.082  0.00  0.00    +0.158 A 
ATOM     33  C   UNL     1       5.337  -3.255   4.554  0.00  0.00    +0.158 A 
ATOM     34  C   UNL     1       4.022  -2.846   4.707  0.00  0.00    +0.052 A 
BRANCH  33  35
ATOM     35  O   UNL     1       6.222  -2.467   3.886  0.00  0.00    -0.503 OA
ATOM     36  H   UNL     1       6.262  -2.640   2.936  0.00  0.00    +0.292 HD
ENDBRANCH  33  35
BRANCH  32  37
ATOM     37  O   UNL     1       7.038  -4.882   4.930  0.00  0.00    -0.503 OA
ATOM     38  H   UNL     1       7.196  -5.400   4.129  0.00  0.00    +0.292 HD
ENDBRANCH  32  37
ENDBRANCH  28  29
ENDBRANCH  11  28
TORSDOF 5
