REMARK  Name = ZINC64562743
REMARK  8 active torsions:
REMARK  status: ('A' for Active; 'I' for Inactive)
REMARK    1  A    between atoms: C_1  and  S_2
REMARK    2  A    between atoms: S_2  and  C_3
REMARK    3  A    between atoms: C_8  and  N_9
REMARK    4  A    between atoms: N_12  and  C_13
REMARK    5  A    between atoms: C_13  and  C_14
REMARK    6  A    between atoms: C_14  and  N_15
REMARK    7  A    between atoms: C_16  and  C_18
REMARK    8  A    between atoms: C_21  and  O_24
REMARK                            x       y       z     vdW  Elec       q    Type
REMARK                         _______ _______ _______ _____ _____    ______ ____
ROOT
ATOM      1  N   UNL     1       0.594  -2.769  -0.993  0.00  0.00    -0.268 N 
ATOM      2  C   UNL     1       0.706  -4.057  -1.374  0.00  0.00    +0.304 C 
ATOM      3  O   UNL     1       1.289  -4.338  -2.404  0.00  0.00    -0.253 OA
ATOM      4  N   UNL     1       0.171  -5.033  -0.615  0.00  0.00    -0.298 N 
ATOM      5  H   UNL     1       0.201  -2.550  -0.134  0.00  0.00    +0.156 HD
ATOM      6  H   UNL     1      -0.295  -4.809   0.206  0.00  0.00    +0.150 HD
ENDROOT
BRANCH   1  12
ATOM      7  C   UNL     1       1.413  -0.510  -1.306  0.00  0.00    +0.029 A 
ATOM      8  C   UNL     1       1.864   0.497  -2.148  0.00  0.00    +0.018 A 
ATOM      9  C   UNL     1       1.943   0.276  -3.510  0.00  0.00    +0.021 A 
ATOM     10  C   UNL     1       1.572  -0.948  -4.039  0.00  0.00    +0.043 A 
ATOM     11  C   UNL     1       1.121  -1.957  -3.207  0.00  0.00    +0.044 A 
ATOM     12  C   UNL     1       1.045  -1.746  -1.839  0.00  0.00    +0.050 A 
ATOM     13 CL   UNL     1       1.672  -1.218  -5.751  0.00  0.00    -0.083 Cl
BRANCH   7  15
ATOM     14  C   UNL     1       1.882   1.479   0.634  0.00  0.00    +0.090 C 
ATOM     15  S   UNL     1       1.312  -0.231   0.430  0.00  0.00    -0.127 S 
ENDBRANCH   7  15
ENDBRANCH   1  12
BRANCH   4  16
ATOM     16  C   UNL     1       0.293  -6.433  -1.029  0.00  0.00    +0.124 C 
BRANCH  16  17
ATOM     17  C   UNL     1      -0.395  -7.332   0.001  0.00  0.00    +0.123 C 
BRANCH  17  18
ATOM     18  N   UNL     1      -0.273  -8.732  -0.414  0.00  0.00    -0.310 N 
ATOM     19  C   UNL     1      -0.808  -9.708   0.345  0.00  0.00    +0.244 C 
ATOM     20  O   UNL     1      -1.391  -9.427   1.375  0.00  0.00    -0.270 OA
ATOM     21  H   UNL     1       0.192  -8.956  -1.235  0.00  0.00    +0.149 HD
BRANCH  19  22
ATOM     22  C   UNL     1      -0.685 -11.119  -0.072  0.00  0.00    +0.037 A 
ATOM     23  C   UNL     1      -0.010 -11.444  -1.252  0.00  0.00    +0.016 A 
ATOM     24  C   UNL     1       0.102 -12.761  -1.637  0.00  0.00    +0.046 A 
ATOM     25  C   UNL     1      -0.455 -13.766  -0.856  0.00  0.00    +0.117 A 
ATOM     26  C   UNL     1      -1.127 -13.447   0.318  0.00  0.00    +0.046 A 
ATOM     27  C   UNL     1      -1.239 -12.133   0.714  0.00  0.00    +0.016 A 
BRANCH  25  28
ATOM     28  O   UNL     1      -0.342 -15.063  -1.240  0.00  0.00    -0.507 OA
ATOM     29  H   UNL     1       0.447 -15.507  -0.900  0.00  0.00    +0.292 HD
ENDBRANCH  25  28
ENDBRANCH  19  22
ENDBRANCH  17  18
ENDBRANCH  16  17
ENDBRANCH   4  16
TORSDOF 7
