REMARK  Name = ZINC16809234
REMARK  9 active torsions:
REMARK  status: ('A' for Active; 'I' for Inactive)
REMARK    1  A    between atoms: C_1  and  C_2
REMARK    2  A    between atoms: C_3  and  C_31
REMARK    3  A    between atoms: C_16  and  C_20
REMARK    4  A    between atoms: C_17  and  C_19
REMARK    5  A    between atoms: C_20  and  C_21
REMARK    6  A    between atoms: C_31  and  C_32
REMARK    7  A    between atoms: C_32  and  C_33
REMARK    8  A    between atoms: C_33  and  C_34
REMARK    9  A    between atoms: C_33  and  C_35
REMARK                            x       y       z     vdW  Elec       q    Type
REMARK                         _______ _______ _______ _____ _____    ______ ____
ROOT
ATOM      1  C   UNL     1       2.331   3.966   0.103  0.00  0.00    +0.066 C 
ATOM      2  C   UNL     1       2.141   2.471   0.081  0.00  0.00    +0.050 A 
ATOM      3  C   UNL     1       3.228   1.646   0.074  0.00  0.00    +0.038 A 
ATOM      4  C   UNL     1       3.025   0.255   0.053  0.00  0.00    +0.256 A 
ATOM      5  O   UNL     1       3.974  -0.512   0.046  0.00  0.00    -0.267 OA
ATOM      6  N   UNL     1       1.760  -0.216   0.047  0.00  0.00    -0.295 N 
ATOM      7  H   UNL     1       1.596  -1.172   0.037  0.00  0.00    +0.172 HD
ATOM      8  C   UNL     1       0.715   0.655   0.049  0.00  0.00    +0.202 A 
ATOM      9  N   UNL     1       0.913   1.956   0.069  0.00  0.00    -0.221 NA
ATOM     10  N   UNL     1      -0.570   0.168   0.037  0.00  0.00    -0.255 N 
ATOM     11  C   UNL     1      -1.635   1.037   0.039  0.00  0.00    +0.202 A 
ATOM     12  N   UNL     1      -2.901   0.542   0.015  0.00  0.00    -0.295 N 
ATOM     13  H   UNL     1      -3.049  -0.417  -0.003  0.00  0.00    +0.172 HD
ATOM     14  C   UNL     1      -3.952   1.389   0.021  0.00  0.00    +0.256 A 
ATOM     15  O   UNL     1      -5.095   0.963   0.005  0.00  0.00    -0.267 OA
ATOM     16  C   UNL     1      -3.704   2.774   0.042  0.00  0.00    +0.042 A 
ATOM     17  C   UNL     1      -2.412   3.211   0.060  0.00  0.00    +0.050 A 
ATOM     18  N   UNL     1      -1.410   2.334   0.058  0.00  0.00    -0.221 NA
ATOM     19  C   UNL     1      -2.118   4.689   0.083  0.00  0.00    +0.066 C 
ATOM     20  H   UNL     1      -0.726  -0.790   0.023  0.00  0.00    +0.158 HD
ENDROOT
BRANCH  16  21
ATOM     21  C   UNL     1      -4.846   3.757   0.044  0.00  0.00    +0.078 C 
BRANCH  21  22
ATOM     22  C   UNL     1      -5.284   4.021  -1.374  0.00  0.00    -0.035 A 
ATOM     23  C   UNL     1      -4.586   3.490  -2.416  0.00  0.00    +0.004 A 
ATOM     24  C   UNL     1      -4.976   3.723  -3.733  0.00  0.00    +0.001 A 
ATOM     25  C   UNL     1      -6.066   4.488  -4.017  0.00  0.00    +0.008 A 
ATOM     26  C   UNL     1      -6.811   5.053  -2.968  0.00  0.00    -0.018 A 
ATOM     27  C   UNL     1      -6.417   4.811  -1.628  0.00  0.00    -0.014 A 
ATOM     28  C   UNL     1      -7.160   5.380  -0.579  0.00  0.00    +0.009 A 
ATOM     29  C   UNL     1      -8.249   6.145  -0.863  0.00  0.00    +0.001 A 
ATOM     30  C   UNL     1      -8.639   6.379  -2.180  0.00  0.00    +0.001 A 
ATOM     31  C   UNL     1      -7.941   5.848  -3.222  0.00  0.00    +0.008 A 
ENDBRANCH  21  22
ENDBRANCH  16  21
BRANCH   3  32
ATOM     32  C   UNL     1       4.623   2.217   0.087  0.00  0.00    +0.042 C 
BRANCH  32  33
ATOM     33  C   UNL     1       5.137   2.274   1.527  0.00  0.00    +0.008 C 
BRANCH  33  34
ATOM     34  C   UNL     1       6.553   2.854   1.540  0.00  0.00    -0.017 C 
ATOM     35  C   UNL     1       7.019   3.027   2.987  0.00  0.00    +0.007 C 
ATOM     36  C   UNL     1       7.501   1.901   0.809  0.00  0.00    +0.007 C 
ENDBRANCH  33  34
ENDBRANCH  32  33
ENDBRANCH   3  32
TORSDOF 5
