REMARK  Name = ZINC36003280
REMARK  12 active torsions:
REMARK  status: ('A' for Active; 'I' for Inactive)
REMARK    1  A    between atoms: C_1  and  C_2
REMARK    2  A    between atoms: C_2  and  O_3
REMARK    3  A    between atoms: O_3  and  C_4
REMARK    4  A    between atoms: C_4  and  C_6
REMARK    5  A    between atoms: C_7  and  C_22
REMARK    6  A    between atoms: N_8  and  C_21
REMARK    7  A    between atoms: C_12  and  C_14
REMARK    8  A    between atoms: C_17  and  C_20
REMARK    9  A    between atoms: C_22  and  N_23
REMARK   10  A    between atoms: N_31  and  C_32
REMARK   11  A    between atoms: C_32  and  C_33
REMARK   12  A    between atoms: C_32  and  C_34
REMARK                            x       y       z     vdW  Elec       q    Type
REMARK                         _______ _______ _______ _____ _____    ______ ____
ROOT
ATOM      1  C   UNL     1       1.865  -2.618   2.205  0.00  0.00    +0.080 C 
ATOM      2  C   UNL     1       1.544  -3.742   2.881  0.00  0.00    +0.041 C 
ATOM      3  N   UNL     1       1.749  -3.838   4.227  0.00  0.00    -0.260 N 
ATOM      4  C   UNL     1       2.269  -2.854   4.971  0.00  0.00    +0.307 C 
ATOM      5  O   UNL     1       2.413  -3.032   6.165  0.00  0.00    -0.252 OA
ATOM      6  N   UNL     1       2.638  -1.671   4.439  0.00  0.00    -0.288 N 
ATOM      7  C   UNL     1       2.464  -1.469   2.991  0.00  0.00    +0.144 C 
ATOM      8  C   UNL     1       1.378  -5.088   4.896  0.00  0.00    +0.139 C 
ATOM      9  H   UNL     1       3.013  -0.972   4.997  0.00  0.00    +0.151 HD
ENDROOT
BRANCH   7  10
ATOM     10  C   UNL     1       1.581  -0.263   2.798  0.00  0.00    -0.022 A 
ATOM     11  C   UNL     1       0.418  -0.133   3.534  0.00  0.00    +0.006 A 
ATOM     12  C   UNL     1      -0.392   0.973   3.357  0.00  0.00    +0.004 A 
ATOM     13  C   UNL     1      -0.038   1.949   2.444  0.00  0.00    -0.050 A 
ATOM     14  C   UNL     1       1.125   1.819   1.709  0.00  0.00    +0.004 A 
ATOM     15  C   UNL     1       1.937   0.715   1.889  0.00  0.00    +0.006 A 
ATOM     16  C   UNL     1      -0.922   3.155   2.251  0.00  0.00    +0.044 C 
ENDBRANCH   7  10
BRANCH   1  17
ATOM     17  C   UNL     1       1.654  -2.517   0.810  0.00  0.00    +0.339 C 
ATOM     18  O   UNL     1       1.248  -3.479   0.185  0.00  0.00    -0.245 OA
BRANCH  17  19
ATOM     19  O   UNL     1       1.903  -1.355   0.172  0.00  0.00    -0.462 OA
BRANCH  19  21
ATOM     20  C   UNL     1       2.004   0.065  -1.781  0.00  0.00    +0.048 C 
ATOM     21  C   UNL     1       1.668  -1.325  -1.238  0.00  0.00    +0.229 C 
ENDBRANCH  19  21
ENDBRANCH  17  19
ENDBRANCH   1  17
BRANCH   2  22
ATOM     22  C   UNL     1       0.951  -4.910   2.136  0.00  0.00    +0.136 C 
BRANCH  22  23
ATOM     23  N   UNL     1       2.022  -5.661   1.468  0.00  0.00    -0.294 NA
ATOM     24  C   UNL     1       2.948  -6.242   2.450  0.00  0.00    +0.104 C 
ATOM     25  C   UNL     1       4.144  -6.859   1.716  0.00  0.00    +0.124 C 
ATOM     26  N   UNL     1       3.637  -7.800   0.706  0.00  0.00    -0.283 N 
ATOM     27  C   UNL     1       2.603  -7.329  -0.228  0.00  0.00    +0.124 C 
ATOM     28  C   UNL     1       1.468  -6.694   0.582  0.00  0.00    +0.104 C 
ATOM     29  C   UNL     1       4.108  -9.061   0.638  0.00  0.00    +0.302 C 
ATOM     30  O   UNL     1       4.890  -9.464   1.477  0.00  0.00    -0.253 OA
ATOM     31  N   UNL     1       3.712  -9.876  -0.360  0.00  0.00    -0.297 N 
ATOM     32  H   UNL     1       3.148  -9.533  -1.071  0.00  0.00    +0.150 HD
BRANCH  31  33
ATOM     33  C   UNL     1       4.133 -11.279  -0.372  0.00  0.00    +0.068 C 
ATOM     34  C   UNL     1       3.173 -12.106   0.486  0.00  0.00    +0.027 C 
ATOM     35  C   UNL     1       4.114 -11.805  -1.808  0.00  0.00    +0.027 C 
ENDBRANCH  31  33
ENDBRANCH  22  23
ENDBRANCH   2  22
TORSDOF 7
