REMARK  Name = ZINC39609438
REMARK  12 active torsions:
REMARK  status: ('A' for Active; 'I' for Inactive)
REMARK    1  A    between atoms: C_1  and  C_2
REMARK    2  A    between atoms: C_2  and  O_3
REMARK    3  A    between atoms: O_3  and  C_4
REMARK    4  A    between atoms: C_8  and  C_10
REMARK    5  A    between atoms: C_10  and  C_11
REMARK    6  A    between atoms: C_11  and  N_12
REMARK    7  A    between atoms: C_13  and  C_15
REMARK    8  A    between atoms: C_26  and  C_28
REMARK    9  A    between atoms: C_31  and  O_36
REMARK   10  A    between atoms: C_32  and  O_34
REMARK   11  A    between atoms: O_34  and  C_35
REMARK   12  A    between atoms: O_36  and  C_37
REMARK                            x       y       z     vdW  Elec       q    Type
REMARK                         _______ _______ _______ _____ _____    ______ ____
ROOT
ATOM      1  C   UNL     1       1.706  -5.159  -8.446  0.00  0.00    +0.100 C 
ATOM      2  C   UNL     1       2.876  -4.396  -9.106  0.00  0.00    +0.121 C 
ATOM      3  N   UNL     1       2.737  -4.677 -10.555  0.00  0.00    -0.296 N 
ATOM      4  C   UNL     1       1.276  -4.637 -10.799  0.00  0.00    +0.115 C 
ATOM      5  C   UNL     1       0.657  -5.314  -9.560  0.00  0.00    -0.004 C 
ATOM      6  C   UNL     1      -0.639  -4.612  -9.167  0.00  0.00    -0.010 C 
ATOM      7  C   UNL     1      -1.685  -4.830 -10.264  0.00  0.00    -0.082 C 
ATOM      8  N   UNL     1      -1.918  -6.268 -10.442  0.00  0.00    +0.379 N 
ATOM      9  C   UNL     1      -0.689  -6.921 -10.910  0.00  0.00    -0.082 C 
ATOM     10  C   UNL     1       0.399  -6.792  -9.840  0.00  0.00    -0.010 C 
ATOM     11  C   UNL     1       3.718  -4.916 -11.448  0.00  0.00    +0.247 C 
ATOM     12  O   UNL     1       4.866  -5.044 -11.070  0.00  0.00    -0.270 OA
ATOM     13  H   UNL     1      -2.198  -6.674  -9.561  0.00  0.00    -0.086 HD
ATOM     14  H   UNL     1      -2.651  -6.407 -11.121  0.00  0.00    -0.086 HD
ENDROOT
BRANCH  11  15
ATOM     15  C   UNL     1       3.398  -5.023 -12.885  0.00  0.00    +0.041 A 
ATOM     16  C   UNL     1       2.218  -4.464 -13.382  0.00  0.00    +0.017 A 
ATOM     17  C   UNL     1       1.921  -4.564 -14.724  0.00  0.00    +0.050 A 
ATOM     18  C   UNL     1       2.791  -5.220 -15.584  0.00  0.00    +0.162 A 
ATOM     19  C   UNL     1       3.970  -5.780 -15.094  0.00  0.00    +0.162 A 
ATOM     20  C   UNL     1       4.277  -5.678 -13.751  0.00  0.00    +0.062 A 
BRANCH  19  21
ATOM     21  O   UNL     1       4.820  -6.423 -15.939  0.00  0.00    -0.491 OA
ATOM     22  C   UNL     1       6.009  -6.973 -15.369  0.00  0.00    +0.277 C 
ENDBRANCH  19  21
BRANCH  18  23
ATOM     23  O   UNL     1       2.493  -5.316 -16.906  0.00  0.00    -0.491 OA
ATOM     24  C   UNL     1       1.269  -4.720 -17.340  0.00  0.00    +0.277 C 
ENDBRANCH  18  23
ENDBRANCH  11  15
BRANCH   1  26
ATOM     25  N   UNL     1       0.586  -4.996  -6.247  0.00  0.00    -0.315 N 
ATOM     26  C   UNL     1       1.140  -4.362  -7.300  0.00  0.00    +0.218 C 
ATOM     27  O   UNL     1       1.183  -3.150  -7.324  0.00  0.00    -0.275 OA
ATOM     28  H   UNL     1       0.551  -5.965  -6.228  0.00  0.00    +0.149 HD
BRANCH  25  29
ATOM     29  C   UNL     1       0.035  -4.221  -5.133  0.00  0.00    +0.109 C 
BRANCH  29  30
ATOM     30  C   UNL     1      -0.528  -5.174  -4.077  0.00  0.00    +0.054 C 
BRANCH  30  35
ATOM     31  C   UNL     1      -0.810  -3.305  -0.806  0.00  0.00    +0.121 A 
ATOM     32  C   UNL     1      -2.141  -2.913  -0.828  0.00  0.00    +0.045 A 
ATOM     33  C   UNL     1      -2.943  -3.253  -1.900  0.00  0.00    +0.004 A 
ATOM     34  C   UNL     1      -2.420  -3.985  -2.950  0.00  0.00    +0.004 A 
ATOM     35  C   UNL     1      -1.095  -4.377  -2.931  0.00  0.00    -0.042 A 
ATOM     36  C   UNL     1      -0.287  -4.034  -1.863  0.00  0.00    +0.049 A 
BRANCH  31  37
ATOM     37  O   UNL     1      -0.020  -2.970   0.248  0.00  0.00    -0.492 OA
BRANCH  37  39
ATOM     38  C   UNL     1       0.412  -1.938   2.390  0.00  0.00    +0.048 C 
ATOM     39  C   UNL     1      -0.626  -2.219   1.301  0.00  0.00    +0.225 C 
ENDBRANCH  37  39
ENDBRANCH  31  37
ENDBRANCH  30  35
ENDBRANCH  29  30
ENDBRANCH  25  29
ENDBRANCH   1  26
TORSDOF 9
