REMARK  Name = ZINC36227706
REMARK  7 active torsions:
REMARK  status: ('A' for Active; 'I' for Inactive)
REMARK    1  A    between atoms: C_3  and  O_28
REMARK    2  A    between atoms: C_4  and  O_27
REMARK    3  A    between atoms: C_6  and  C_7
REMARK    4  A    between atoms: C_7  and  C_9
REMARK    5  A    between atoms: C_9  and  N_10
REMARK    6  A    between atoms: N_13  and  S_16
REMARK    7  A    between atoms: S_16  and  C_19
REMARK                            x       y       z     vdW  Elec       q    Type
REMARK                         _______ _______ _______ _____ _____    ______ ____
ROOT
ATOM      1  N   UNL     1      -3.677  -0.996   0.032  0.00  0.00    -0.293 NA
ATOM      2  C   UNL     1      -3.710  -1.761  -1.222  0.00  0.00    +0.102 C 
ATOM      3  C   UNL     1      -4.751  -2.880  -1.106  0.00  0.00    +0.125 C 
ATOM      4  N   UNL     1      -6.035  -2.284  -0.707  0.00  0.00    -0.174 NA
ATOM      5  C   UNL     1      -6.054  -1.393   0.463  0.00  0.00    +0.125 C 
ATOM      6  C   UNL     1      -4.962  -0.332   0.286  0.00  0.00    +0.102 C 
ENDROOT
BRANCH   4   7
ATOM      7  S   UNL     1      -7.422  -2.608  -1.551  0.00  0.00    +0.062 S 
ATOM      8  O   UNL     1      -8.306  -1.523  -1.312  0.00  0.00    -0.153 OA
ATOM      9  O   UNL     1      -7.021  -2.990  -2.860  0.00  0.00    -0.153 OA
BRANCH   7  10
ATOM     10  C   UNL     1      -8.159  -4.030  -0.816  0.00  0.00    +0.125 A 
ATOM     11  C   UNL     1      -9.389  -3.927  -0.193  0.00  0.00    +0.050 A 
ATOM     12  C   UNL     1      -9.967  -5.043   0.384  0.00  0.00    +0.043 A 
ATOM     13  C   UNL     1      -9.315  -6.263   0.338  0.00  0.00    +0.021 A 
ATOM     14  C   UNL     1      -8.085  -6.365  -0.284  0.00  0.00    +0.023 A 
ATOM     15  C   UNL     1      -7.509  -5.250  -0.867  0.00  0.00    +0.067 A 
ATOM     16 CL   UNL     1      -5.968  -5.381  -1.655  0.00  0.00    -0.082 Cl
ATOM     17 CL   UNL     1     -11.511  -4.914   1.166  0.00  0.00    -0.083 Cl
ENDBRANCH   7  10
ENDBRANCH   4   7
BRANCH   1  18
ATOM     18  C   UNL     1      -2.575  -0.024   0.026  0.00  0.00    +0.164 C 
BRANCH  18  19
ATOM     19  C   UNL     1      -1.258  -0.758   0.010  0.00  0.00    +0.177 C 
ATOM     20  O   UNL     1      -1.240  -1.970   0.003  0.00  0.00    -0.291 OA
BRANCH  19  26
ATOM     21  C   UNL     1      -0.017   1.395   0.010  0.00  0.00    +0.015 A 
ATOM     22  C   UNL     1       1.167   2.100   0.002  0.00  0.00    +0.050 A 
ATOM     23  C   UNL     1       2.380   1.425  -0.013  0.00  0.00    +0.158 A 
ATOM     24  C   UNL     1       2.408   0.030  -0.021  0.00  0.00    +0.159 A 
ATOM     25  C   UNL     1       1.227  -0.684  -0.013  0.00  0.00    +0.060 A 
ATOM     26  C   UNL     1       0.002  -0.004   0.002  0.00  0.00    +0.022 A 
BRANCH  24  27
ATOM     27  O   UNL     1       3.599  -0.626  -0.036  0.00  0.00    -0.503 OA
ATOM     28  H   UNL     1       3.952  -0.821   0.843  0.00  0.00    +0.292 HD
ENDBRANCH  24  27
BRANCH  23  29
ATOM     29  O   UNL     1       3.543   2.125  -0.021  0.00  0.00    -0.503 OA
ATOM     30  H   UNL     1       3.889   2.323   0.860  0.00  0.00    +0.292 HD
ENDBRANCH  23  29
ENDBRANCH  19  26
ENDBRANCH  18  19
ENDBRANCH   1  18
TORSDOF 7
