REMARK  Name = ZINC67020242
REMARK  5 active torsions:
REMARK  status: ('A' for Active; 'I' for Inactive)
REMARK    1  A    between atoms: C_1  and  C_2
REMARK    2  A    between atoms: C_2  and  N_3
REMARK    3  A    between atoms: C_6  and  N_9
REMARK    4  A    between atoms: N_9  and  C_10
REMARK    5  A    between atoms: C_16  and  C_18
REMARK                            x       y       z     vdW  Elec       q    Type
REMARK                         _______ _______ _______ _____ _____    ______ ____
ROOT
ATOM      1  N   UNL     1      -5.246  -1.814  -1.094  0.00  0.00    -0.264 N 
ATOM      2  C   UNL     1      -5.708  -1.947   0.165  0.00  0.00    +0.255 C 
ATOM      3  O   UNL     1      -4.950  -1.819   1.108  0.00  0.00    -0.269 OA
ENDROOT
BRANCH   2   4
ATOM      4  C   UNL     1      -7.133  -2.247   0.401  0.00  0.00    +0.081 A 
ATOM      5  C   UNL     1      -7.832  -3.081  -0.478  0.00  0.00    +0.017 A 
ATOM      6  C   UNL     1      -9.163  -3.358  -0.256  0.00  0.00    +0.003 A 
ATOM      7  C   UNL     1      -9.820  -2.817   0.838  0.00  0.00    +0.027 A 
ATOM      8  C   UNL     1      -9.142  -1.990   1.716  0.00  0.00    +0.076 A 
ATOM      9  C   UNL     1      -7.793  -1.704   1.507  0.00  0.00    +0.154 A 
ATOM     10  O   UNL     1      -7.138  -0.895   2.377  0.00  0.00    -0.480 OA
ATOM     11  C   UNL     1      -7.904   0.145   2.990  0.00  0.00    +0.325 C 
ATOM     12  C   UNL     1      -9.212  -0.416   3.489  0.00  0.00    +0.255 C 
ATOM     13  O   UNL     1      -9.742   0.055   4.473  0.00  0.00    -0.272 OA
ATOM     14  N   UNL     1      -9.794  -1.437   2.828  0.00  0.00    -0.280 N 
ATOM     15  H   UNL     1     -10.648  -1.790   3.124  0.00  0.00    +0.155 HD
ENDBRANCH   2   4
BRANCH   1  19
ATOM     16  N   UNL     1      -1.218  -0.936  -0.219  0.00  0.00    +0.380 N 
ATOM     17  C   UNL     1      -2.012   0.141  -0.823  0.00  0.00    -0.077 C 
ATOM     18  C   UNL     1      -3.502  -0.157  -0.644  0.00  0.00    +0.004 C 
ATOM     19  C   UNL     1      -3.838  -1.486  -1.327  0.00  0.00    +0.078 C 
ATOM     20  C   UNL     1      -2.951  -2.588  -0.740  0.00  0.00    +0.004 C 
ATOM     21  C   UNL     1      -1.481  -2.200  -0.916  0.00  0.00    -0.077 C 
ATOM     22  H   UNL     1      -1.469  -1.030   0.754  0.00  0.00    -0.082 HD
BRANCH  16  24
ATOM     23  C   UNL     1       0.509   0.643   0.505  0.00  0.00    -0.017 C 
ATOM     24  C   UNL     1       0.210  -0.608  -0.325  0.00  0.00    -0.082 C 
ENDBRANCH  16  24
ENDBRANCH   1  19
BRANCH   1  25
ATOM     25  C   UNL     1      -6.112  -1.990  -2.178  0.00  0.00    +0.037 A 
ATOM     26  C   UNL     1      -7.280  -1.244  -2.265  0.00  0.00    +0.023 A 
ATOM     27  C   UNL     1      -8.132  -1.421  -3.337  0.00  0.00    +0.002 A 
ATOM     28  C   UNL     1      -7.824  -2.340  -4.323  0.00  0.00    +0.000 A 
ATOM     29  C   UNL     1      -6.662  -3.085  -4.239  0.00  0.00    +0.002 A 
ATOM     30  C   UNL     1      -5.802  -2.909  -3.173  0.00  0.00    +0.023 A 
ENDBRANCH   1  25
TORSDOF 4
