REMARK  Name = ZINC40983162
REMARK  10 active torsions:
REMARK  status: ('A' for Active; 'I' for Inactive)
REMARK    1  A    between atoms: C_1  and  C_2
REMARK    2  A    between atoms: C_2  and  C_3
REMARK    3  A    between atoms: C_3  and  C_4
REMARK    4  A    between atoms: C_4  and  S_5
REMARK    5  A    between atoms: S_5  and  C_6
REMARK    6  A    between atoms: C_11  and  C_27
REMARK    7  A    between atoms: C_13  and  C_17
REMARK    8  A    between atoms: C_14  and  C_16
REMARK    9  A    between atoms: N_19  and  C_20
REMARK   10  A    between atoms: C_25  and  C_26
REMARK                            x       y       z     vdW  Elec       q    Type
REMARK                         _______ _______ _______ _____ _____    ______ ____
ROOT
ATOM      1  C   UNL     1      -2.872  -4.453   0.238  0.00  0.00    +0.210 A 
ATOM      2  N   UNL     1      -1.713  -5.124   0.172  0.00  0.00    -0.187 NA
ATOM      3  C   UNL     1      -1.953  -6.406   0.123  0.00  0.00    +0.219 A 
ATOM      4  N   UNL     1      -3.297  -6.584   0.153  0.00  0.00    -0.220 N 
ATOM      5  N   UNL     1      -3.867  -5.315   0.236  0.00  0.00    -0.141 NA
ATOM      6  C   UNL     1      -3.940  -7.895   0.104  0.00  0.00    +0.179 C 
ATOM      7  C   UNL     1      -2.906  -8.969   0.318  0.00  0.00    +0.060 C 
ATOM      8  C   UNL     1      -1.587  -8.732   0.281  0.00  0.00    +0.018 C 
ATOM      9  N   UNL     1      -1.074  -7.478   0.054  0.00  0.00    -0.287 N 
ATOM     10  C   UNL     1      -0.635  -9.880   0.496  0.00  0.00    +0.061 C 
ATOM     11  H   UNL     1      -0.135  -7.347  -0.147  0.00  0.00    +0.155 HD
ENDROOT
BRANCH   6  12
ATOM     12  C   UNL     1      -4.591  -8.086  -1.241  0.00  0.00    -0.000 A 
ATOM     13  C   UNL     1      -5.959  -8.295  -1.336  0.00  0.00    +0.009 A 
ATOM     14  C   UNL     1      -6.514  -8.466  -2.595  0.00  0.00    +0.020 A 
ATOM     15  C   UNL     1      -5.693  -8.421  -3.705  0.00  0.00    +0.111 A 
ATOM     16  N   UNL     1      -4.396  -8.220  -3.577  0.00  0.00    -0.263 NA
ATOM     17  C   UNL     1      -3.834  -8.048  -2.397  0.00  0.00    +0.116 A 
ENDBRANCH   6  12
BRANCH   7  18
ATOM     18  C   UNL     1      -3.348 -10.289   0.571  0.00  0.00    +0.248 C 
ATOM     19  O   UNL     1      -3.720 -10.603   1.687  0.00  0.00    -0.270 OA
ATOM     20  N   UNL     1      -3.356 -11.198  -0.424  0.00  0.00    -0.281 N 
ATOM     21  H   UNL     1      -3.000 -10.967  -1.296  0.00  0.00    +0.155 HD
BRANCH  20  22
ATOM     22  C   UNL     1      -3.879 -12.476  -0.199  0.00  0.00    +0.037 A 
ATOM     23  C   UNL     1      -3.727 -13.081   1.042  0.00  0.00    +0.023 A 
ATOM     24  C   UNL     1      -4.245 -14.342   1.261  0.00  0.00    +0.002 A 
ATOM     25  C   UNL     1      -4.913 -15.003   0.247  0.00  0.00    +0.000 A 
ATOM     26  C   UNL     1      -5.066 -14.403  -0.990  0.00  0.00    +0.005 A 
ATOM     27  C   UNL     1      -4.556 -13.139  -1.214  0.00  0.00    -0.029 A 
ATOM     28  C   UNL     1      -4.729 -12.484  -2.559  0.00  0.00    +0.045 C 
ENDBRANCH  20  22
ENDBRANCH   7  18
BRANCH   1  29
ATOM     29  S   UNL     1      -3.037  -2.701   0.324  0.00  0.00    -0.084 S 
BRANCH  29  30
ATOM     30  C   UNL     1      -1.326  -2.098   0.289  0.00  0.00    +0.077 C 
BRANCH  30  31
ATOM     31  C   UNL     1      -1.323  -0.569   0.357  0.00  0.00    +0.011 C 
BRANCH  31  33
ATOM     32  C   UNL     1       0.122   1.468   0.397  0.00  0.00    +0.004 C 
ATOM     33  C   UNL     1       0.119  -0.060   0.328  0.00  0.00    -0.003 C 
ENDBRANCH  31  33
ENDBRANCH  30  31
ENDBRANCH  29  30
ENDBRANCH   1  29
TORSDOF 7
