REMARK  Name = ZINC40757814
REMARK  6 active torsions:
REMARK  status: ('A' for Active; 'I' for Inactive)
REMARK    1  A    between atoms: C_1  and  N_2
REMARK    2  A    between atoms: N_2  and  C_3
REMARK    3  A    between atoms: C_10  and  N_29
REMARK    4  A    between atoms: C_11  and  N_15
REMARK    5  A    between atoms: N_15  and  N_16
REMARK    6  A    between atoms: C_17  and  C_19
REMARK                            x       y       z     vdW  Elec       q    Type
REMARK                         _______ _______ _______ _____ _____    ______ ____
ROOT
ATOM      1  C   UNL     1       1.349   0.399   0.562  0.00  0.00    +0.137 C 
ATOM      2  N   UNL     1       0.065   0.022  -0.035  0.00  0.00    -0.287 N 
ATOM      3  C   UNL     1       0.031  -0.569  -1.293  0.00  0.00    +0.151 A 
ATOM      4  C   UNL     1       0.033   0.219  -2.446  0.00  0.00    +0.107 A 
ATOM      5  C   UNL     1      -0.001  -0.425  -3.684  0.00  0.00    +0.161 A 
ATOM      6  N   UNL     1      -0.035  -1.755  -3.719  0.00  0.00    -0.217 NA
ATOM      7  C   UNL     1      -0.036  -2.462  -2.606  0.00  0.00    +0.225 A 
ATOM      8  N   UNL     1       0.001  -1.894  -1.418  0.00  0.00    -0.218 NA
ENDROOT
BRANCH   2   9
ATOM      9  C   UNL     1      -1.125   0.255   0.660  0.00  0.00    +0.035 A 
ATOM     10  C   UNL     1      -2.332  -0.198   0.144  0.00  0.00    +0.023 A 
ATOM     11  C   UNL     1      -3.506   0.034   0.834  0.00  0.00    +0.002 A 
ATOM     12  C   UNL     1      -3.480   0.716   2.036  0.00  0.00    +0.000 A 
ATOM     13  C   UNL     1      -2.280   1.169   2.552  0.00  0.00    +0.002 A 
ATOM     14  C   UNL     1      -1.102   0.936   1.871  0.00  0.00    +0.023 A 
ENDBRANCH   2   9
BRANCH   4  15
ATOM     15  N   UNL     1       0.069   1.620  -2.363  0.00  0.00    -0.353 N 
ATOM     16  H   UNL     1       0.019   2.056  -1.498  0.00  0.00    +0.143 HD
ATOM     17  H   UNL     1       0.144   2.152  -3.170  0.00  0.00    +0.143 HD
ENDBRANCH   4  15
BRANCH   5  18
ATOM     18  N   UNL     1      -0.001   0.311  -4.863  0.00  0.00    -0.247 N 
ATOM     19  H   UNL     1       0.024   1.280  -4.830  0.00  0.00    +0.172 HD
BRANCH  18  20
ATOM     20  N   UNL     1      -0.036  -0.346  -6.100  0.00  0.00    -0.231 N 
ATOM     21  C   UNL     1      -0.036   0.368  -7.243  0.00  0.00    +0.261 C 
ATOM     22  O   UNL     1      -0.005   1.583  -7.201  0.00  0.00    -0.269 OA
ATOM     23  H   UNL     1      -0.061  -1.315  -6.133  0.00  0.00    +0.173 HD
BRANCH  21  24
ATOM     24  C   UNL     1      -0.073  -0.324  -8.544  0.00  0.00    +0.046 A 
ATOM     25  C   UNL     1      -0.231  -1.701  -8.603  0.00  0.00    +0.014 A 
ATOM     26  C   UNL     1      -0.266  -2.359  -9.826  0.00  0.00    +0.001 A 
ATOM     27  C   UNL     1      -0.147  -1.675 -10.998  0.00  0.00    +0.008 A 
ATOM     28  C   UNL     1       0.015  -0.278 -10.987  0.00  0.00    -0.017 A 
ATOM     29  C   UNL     1       0.048   0.411  -9.751  0.00  0.00    -0.006 A 
ATOM     30  C   UNL     1       0.203   1.803  -9.741  0.00  0.00    +0.009 A 
ATOM     31  C   UNL     1       0.316   2.478 -10.919  0.00  0.00    +0.001 A 
ATOM     32  C   UNL     1       0.278   1.803 -12.137  0.00  0.00    +0.001 A 
ATOM     33  C   UNL     1       0.141   0.449 -12.184  0.00  0.00    +0.008 A 
ENDBRANCH  21  24
ENDBRANCH  18  20
ENDBRANCH   5  18
TORSDOF 5
