REMARK  Name = ZINC39631411
REMARK  11 active torsions:
REMARK  status: ('A' for Active; 'I' for Inactive)
REMARK    1  A    between atoms: C_1  and  C_2
REMARK    2  A    between atoms: C_2  and  C_4
REMARK    3  A    between atoms: C_2  and  N_11
REMARK    4  A    between atoms: C_4  and  C_5
REMARK    5  A    between atoms: C_5  and  C_6
REMARK    6  A    between atoms: C_6  and  C_7
REMARK    7  A    between atoms: C_7  and  C_8
REMARK    8  A    between atoms: C_7  and  C_9
REMARK    9  A    between atoms: C_7  and  O_10
REMARK   10  A    between atoms: C_12  and  C_14
REMARK   11  A    between atoms: C_25  and  C_27
REMARK                            x       y       z     vdW  Elec       q    Type
REMARK                         _______ _______ _______ _____ _____    ______ ____
ROOT
ATOM      1  C   UNL     1       2.799  -0.468   2.244  0.00  0.00    +0.100 C 
ATOM      2  C   UNL     1       2.652   0.276   3.591  0.00  0.00    +0.121 C 
ATOM      3  N   UNL     1       3.983   0.158   4.231  0.00  0.00    -0.296 N 
ATOM      4  C   UNL     1       4.945   0.326   3.115  0.00  0.00    +0.115 C 
ATOM      5  C   UNL     1       4.305  -0.432   1.935  0.00  0.00    -0.004 C 
ATOM      6  C   UNL     1       4.861  -1.850   1.855  0.00  0.00    -0.010 C 
ATOM      7  C   UNL     1       6.348  -1.790   1.491  0.00  0.00    -0.082 C 
ATOM      8  N   UNL     1       6.510  -1.105   0.203  0.00  0.00    +0.379 N 
ATOM      9  C   UNL     1       6.058   0.286   0.315  0.00  0.00    -0.082 C 
ATOM     10  C   UNL     1       4.559   0.314   0.629  0.00  0.00    -0.010 C 
ATOM     11  C   UNL     1       4.258  -0.056   5.533  0.00  0.00    +0.247 C 
ATOM     12  O   UNL     1       3.356  -0.284   6.315  0.00  0.00    -0.270 OA
ATOM     13  H   UNL     1       7.483  -1.121  -0.064  0.00  0.00    -0.086 HD
ATOM     14  H   UNL     1       5.964  -1.580  -0.500  0.00  0.00    -0.086 HD
ENDROOT
BRANCH  11  15
ATOM     15  C   UNL     1       5.656  -0.011   6.010  0.00  0.00    +0.037 A 
ATOM     16  C   UNL     1       6.627   0.670   5.273  0.00  0.00    +0.014 A 
ATOM     17  C   UNL     1       7.930   0.708   5.724  0.00  0.00    +0.021 A 
ATOM     18  C   UNL     1       8.276   0.073   6.905  0.00  0.00    +0.041 A 
ATOM     19  C   UNL     1       7.317  -0.604   7.641  0.00  0.00    +0.021 A 
ATOM     20  C   UNL     1       6.010  -0.644   7.203  0.00  0.00    +0.014 A 
ATOM     21 CL   UNL     1       9.918   0.125   7.465  0.00  0.00    -0.084 Cl
ENDBRANCH  11  15
BRANCH   1  23
ATOM     22  N   UNL     1       1.518  -0.452   0.128  0.00  0.00    -0.312 N 
ATOM     23  C   UNL     1       2.025   0.244   1.165  0.00  0.00    +0.218 C 
ATOM     24  O   UNL     1       1.858   1.444   1.229  0.00  0.00    -0.275 OA
ATOM     25  H   UNL     1       1.652  -1.411   0.076  0.00  0.00    +0.149 HD
BRANCH  22  27
ATOM     26  C   UNL     1      -0.696   0.382  -0.492  0.00  0.00    +0.028 C 
ATOM     27  C   UNL     1       0.766   0.240  -0.921  0.00  0.00    +0.070 C 
BRANCH  27  28
ATOM     28  C   UNL     1       0.841  -0.567  -2.219  0.00  0.00    +0.022 C 
BRANCH  28  29
ATOM     29  C   UNL     1       2.288  -0.602  -2.715  0.00  0.00    +0.005 C 
BRANCH  29  30
ATOM     30  C   UNL     1       2.362  -1.409  -4.013  0.00  0.00    +0.034 C 
BRANCH  30  31
ATOM     31  C   UNL     1       3.809  -1.444  -4.509  0.00  0.00    +0.061 C 
ATOM     32  C   UNL     1       3.865  -2.143  -5.869  0.00  0.00    +0.041 C 
ATOM     33  C   UNL     1       4.336  -0.014  -4.648  0.00  0.00    +0.041 C 
BRANCH  31  34
ATOM     34  O   UNL     1       4.617  -2.160  -3.572  0.00  0.00    -0.389 OA
ATOM     35  H   UNL     1       5.548  -2.222  -3.822  0.00  0.00    +0.210 HD
ENDBRANCH  31  34
ENDBRANCH  30  31
ENDBRANCH  29  30
ENDBRANCH  28  29
ENDBRANCH  27  28
ENDBRANCH  22  27
ENDBRANCH   1  23
TORSDOF 8
