REMARK  Name = ZINC11821395
REMARK  7 active torsions:
REMARK  status: ('A' for Active; 'I' for Inactive)
REMARK    1  A    between atoms: C_5  and  C_7
REMARK    2  A    between atoms: C_7  and  O_28
REMARK    3  A    between atoms: C_12  and  C_13
REMARK    4  A    between atoms: C_12  and  N_64
REMARK    5  A    between atoms: C_13  and  O_27
REMARK    6  A    between atoms: N_17  and  C_20
REMARK    7  A    between atoms: C_20  and  C_21
REMARK                            x       y       z     vdW  Elec       q    Type
REMARK                         _______ _______ _______ _____ _____    ______ ____
ROOT
ATOM      1  C   UNL     1       0.084   1.350  -2.474  0.00  0.00    -0.034 C 
ENDROOT
BRANCH   1   7
ATOM      2  C   UNL     1      -1.870   1.681  -6.263  0.00  0.00    +0.104 C 
ATOM      3  C   UNL     1      -0.524   2.380  -6.045  0.00  0.00    +0.022 C 
ATOM      4  C   UNL     1       0.197   1.728  -4.862  0.00  0.00    -0.076 C 
ATOM      5  C   UNL     1      -1.913   1.137  -3.826  0.00  0.00    -0.076 C 
ATOM      6  C   UNL     1      -2.697   1.771  -4.978  0.00  0.00    +0.022 C 
ATOM      7  N   UNL     1      -0.640   1.870  -3.652  0.00  0.00    +0.382 N 
ATOM      8  H   UNL     1      -0.846   2.865  -3.505  0.00  0.00    -0.082 HD
BRANCH   2  13
ATOM      9  C   UNL     1      -4.532   2.520  -8.796  0.00  0.00    +0.003 A 
ATOM     10  C   UNL     1      -3.924   3.599  -9.420  0.00  0.00    +0.020 A 
ATOM     11  C   UNL     1      -2.675   4.009  -8.992  0.00  0.00    +0.111 A 
ATOM     12  N   UNL     1      -2.066   3.390  -8.000  0.00  0.00    -0.257 NA
ATOM     13  C   UNL     1      -2.611   2.357  -7.388  0.00  0.00    +0.073 A 
ATOM     14  C   UNL     1      -3.858   1.891  -7.761  0.00  0.00    +0.026 A 
ENDBRANCH   2  13
BRANCH   2  15
ATOM     15  O   UNL     1      -1.647   0.309  -6.594  0.00  0.00    -0.383 OA
ATOM     16  H   UNL     1      -2.458  -0.195  -6.746  0.00  0.00    +0.211 HD
ENDBRANCH   2  15
ENDBRANCH   1   7
BRANCH   1  17
ATOM     17  C   UNL     1      -0.592   1.883  -1.209  0.00  0.00    +0.127 C 
ATOM     18  C   UNL     1       0.236   1.488   0.015  0.00  0.00    +0.044 C 
ATOM     19  C   UNL     1      -0.297   2.256   1.231  0.00  0.00    +0.022 C 
ATOM     20  C   UNL     1       0.006   3.743   1.042  0.00  0.00    +0.108 C 
ATOM     21  N   UNL     1      -0.446   4.194  -0.268  0.00  0.00    -0.299 N 
ATOM     22  C   UNL     1      -0.698   3.379  -1.293  0.00  0.00    +0.245 C 
ATOM     23  O   UNL     1      -1.030   3.873  -2.350  0.00  0.00    -0.273 OA
BRANCH  17  24
ATOM     24  O   UNL     1      -1.901   1.322  -1.098  0.00  0.00    -0.381 OA
ATOM     25  H   UNL     1      -2.390   1.614  -0.316  0.00  0.00    +0.211 HD
ENDBRANCH  17  24
BRANCH  21  26
ATOM     26  C   UNL     1      -0.636   5.632  -0.471  0.00  0.00    +0.111 C 
BRANCH  26  27
ATOM     27  C   UNL     1      -2.073   6.013  -0.110  0.00  0.00    +0.006 C 
ATOM     28  C   UNL     1      -3.040   5.336  -1.083  0.00  0.00    +0.005 C 
ATOM     29  C   UNL     1      -4.477   5.717  -0.722  0.00  0.00    +0.000 C 
ATOM     30  C   UNL     1      -4.641   7.235  -0.815  0.00  0.00    +0.000 C 
ATOM     31  C   UNL     1      -3.674   7.912   0.159  0.00  0.00    +0.000 C 
ATOM     32  C   UNL     1      -2.237   7.532  -0.202  0.00  0.00    +0.005 C 
ENDBRANCH  26  27
ENDBRANCH  21  26
ENDBRANCH   1  17
TORSDOF 7
