REMARK  Name = ZINC43183356
REMARK  6 active torsions:
REMARK  status: ('A' for Active; 'I' for Inactive)
REMARK    1  A    between atoms: C_1  and  C_2
REMARK    2  A    between atoms: C_2  and  C_4
REMARK    3  A    between atoms: C_2  and  N_11
REMARK    4  A    between atoms: N_14  and  N_15
REMARK    5  A    between atoms: C_16  and  C_18
REMARK    6  A    between atoms: C_18  and  C_19
REMARK                            x       y       z     vdW  Elec       q    Type
REMARK                         _______ _______ _______ _____ _____    ______ ____
ROOT
ATOM      1  N   UNL     1       0.688  -0.476  -1.203  0.00  0.00    -0.292 N 
ATOM      2  C   UNL     1       0.006  -0.608  -2.358  0.00  0.00    +0.316 C 
ATOM      3  O   UNL     1      -1.178  -0.335  -2.400  0.00  0.00    -0.251 OA
ATOM      4  N   UNL     1       0.637  -1.043  -3.467  0.00  0.00    -0.218 N 
ATOM      5  H   UNL     1       1.632  -0.695  -1.170  0.00  0.00    +0.151 HD
ATOM      6  H   UNL     1       0.146  -1.137  -4.299  0.00  0.00    +0.174 HD
ENDROOT
BRANCH   4   7
ATOM      7  N   UNL     1       2.001  -1.358  -3.419  0.00  0.00    -0.233 N 
ATOM      8  C   UNL     1       2.632  -1.792  -4.528  0.00  0.00    +0.234 C 
ATOM      9  O   UNL     1       2.019  -1.911  -5.568  0.00  0.00    -0.274 OA
ATOM     10  H   UNL     1       2.492  -1.263  -2.588  0.00  0.00    +0.173 HD
BRANCH   8  11
ATOM     11  C   UNL     1       4.100  -2.131  -4.476  0.00  0.00    +0.134 C 
BRANCH  11  12
ATOM     12  C   UNL     1       4.558  -2.589  -5.837  0.00  0.00    -0.014 A 
ATOM     13  C   UNL     1       4.639  -3.858  -6.267  0.00  0.00    +0.087 A 
ATOM     14  N   UNL     1       5.096  -3.885  -7.557  0.00  0.00    -0.360 N 
ATOM     15  H   UNL     1       5.237  -4.689  -8.081  0.00  0.00    +0.165 HD
ATOM     16  C   UNL     1       5.327  -2.602  -7.999  0.00  0.00    +0.047 A 
ATOM     17  C   UNL     1       4.994  -1.733  -6.943  0.00  0.00    +0.003 A 
ATOM     18  C   UNL     1       5.124  -0.353  -7.109  0.00  0.00    +0.010 A 
ATOM     19  C   UNL     1       5.571   0.148  -8.299  0.00  0.00    +0.001 A 
ATOM     20  C   UNL     1       5.897  -0.704  -9.345  0.00  0.00    +0.002 A 
ATOM     21  C   UNL     1       5.785  -2.070  -9.200  0.00  0.00    +0.026 A 
ENDBRANCH  11  12
ENDBRANCH   8  11
ENDBRANCH   4   7
BRANCH   1  23
ATOM     22  C   UNL     1      -0.019   1.526   0.010  0.00  0.00    +0.033 C 
ATOM     23  C   UNL     1       0.002  -0.004   0.002  0.00  0.00    +0.102 C 
BRANCH  23  24
ATOM     24  C   UNL     1       0.731  -0.503   1.223  0.00  0.00    -0.026 A 
ATOM     25  C   UNL     1       2.113  -0.514   1.246  0.00  0.00    +0.005 A 
ATOM     26  C   UNL     1       2.783  -0.971   2.366  0.00  0.00    +0.002 A 
ATOM     27  C   UNL     1       2.070  -1.419   3.462  0.00  0.00    +0.020 A 
ATOM     28  C   UNL     1       0.687  -1.409   3.439  0.00  0.00    +0.041 A 
ATOM     29  C   UNL     1       0.018  -0.945   2.321  0.00  0.00    +0.025 A 
ATOM     30 CL   UNL     1      -0.209  -1.972   4.816  0.00  0.00    -0.084 Cl
ENDBRANCH  23  24
ENDBRANCH   1  23
TORSDOF 5
