REMARK  Name = ZINC08123417
REMARK  5 active torsions:
REMARK  status: ('A' for Active; 'I' for Inactive)
REMARK    1  A    between atoms: N_9  and  C_10
REMARK    2  A    between atoms: C_10  and  C_11
REMARK    3  A    between atoms: C_11  and  C_12
REMARK    4  A    between atoms: N_14  and  N_15
REMARK    5  A    between atoms: C_16  and  C_18
REMARK                            x       y       z     vdW  Elec       q    Type
REMARK                         _______ _______ _______ _____ _____    ______ ____
ROOT
ATOM      1  C   UNL     1       6.830   0.037   1.373  0.00  0.00    +0.231 C 
ATOM      2  O   UNL     1       7.432   0.092   0.321  0.00  0.00    -0.274 OA
ATOM      3  N   UNL     1       7.475   0.283   2.531  0.00  0.00    -0.234 N 
ATOM      4  H   UNL     1       6.994   0.239   3.373  0.00  0.00    +0.173 HD
ENDROOT
BRANCH   3   5
ATOM      5  N   UNL     1       8.839   0.603   2.520  0.00  0.00    -0.229 N 
ATOM      6  C   UNL     1       9.483   0.849   3.678  0.00  0.00    +0.276 C 
ATOM      7  O   UNL     1       8.880   0.794   4.733  0.00  0.00    -0.267 OA
ATOM      8  H   UNL     1       9.319   0.647   1.679  0.00  0.00    +0.173 HD
BRANCH   6   9
ATOM      9  C   UNL     1      10.911   1.183   3.666  0.00  0.00    +0.104 A 
ATOM     10  C   UNL     1      11.694   1.452   4.769  0.00  0.00    +0.047 A 
ATOM     11  C   UNL     1      12.985   1.718   4.301  0.00  0.00    +0.036 A 
ATOM     12  C   UNL     1      12.968   1.611   2.950  0.00  0.00    +0.098 A 
ATOM     13  N   UNL     1      11.714   1.281   2.553  0.00  0.00    -0.356 N 
ATOM     14  H   UNL     1      11.430   1.139   1.636  0.00  0.00    +0.166 HD
ATOM     15 BR   UNL     1      14.487   2.153   5.364  0.00  0.00    -0.049 Br
ENDBRANCH   6   9
ENDBRANCH   3   5
BRANCH   1  16
ATOM     16  C   UNL     1       5.363  -0.307   1.386  0.00  0.00    +0.119 C 
BRANCH  16  17
ATOM     17  C   UNL     1       4.881  -0.537  -0.048  0.00  0.00    +0.131 C 
BRANCH  17  26
ATOM     18  C   UNL     1      -0.017   1.362   0.009  0.00  0.00    +0.001 A 
ATOM     19  C   UNL     1       1.170   2.083   0.002  0.00  0.00    +0.002 A 
ATOM     20  C   UNL     1       2.386   1.436  -0.013  0.00  0.00    +0.026 A 
ATOM     21  C   UNL     1       2.428   0.046  -0.021  0.00  0.00    +0.049 A 
ATOM     22  C   UNL     1       1.223  -0.681  -0.013  0.00  0.00    -0.000 A 
ATOM     23  C   UNL     1       0.002  -0.004   0.002  0.00  0.00    +0.010 A 
ATOM     24  C   UNL     1       1.604  -2.095  -0.025  0.00  0.00    +0.027 A 
ATOM     25  C   UNL     1       2.945  -2.141  -0.038  0.00  0.00    +0.087 A 
ATOM     26  N   UNL     1       3.455  -0.871  -0.036  0.00  0.00    -0.346 N 
ENDBRANCH  17  26
ENDBRANCH  16  17
ENDBRANCH   1  16
TORSDOF 5
