REMARK  Name = ZINC36354979
REMARK  2 active torsions:
REMARK  status: ('A' for Active; 'I' for Inactive)
REMARK    1  A    between atoms: C_3  and  C_6
REMARK    2  A    between atoms: N_16  and  C_17
REMARK                            x       y       z     vdW  Elec       q    Type
REMARK                         _______ _______ _______ _____ _____    ______ ____
ROOT
ATOM      1  C   UNL     1       3.761   1.845  -0.024  0.00  0.00    +0.086 C 
ATOM      2  C   UNL     1       4.505   1.325   1.208  0.00  0.00    +0.111 C 
ATOM      3  C   UNL     1       4.880  -0.121   1.054  0.00  0.00    +0.219 C 
ATOM      4  O   UNL     1       4.842  -0.845   2.027  0.00  0.00    -0.275 OA
ATOM      5  N   UNL     1       5.258  -0.642  -0.134  0.00  0.00    -0.270 N 
ATOM      6  C   UNL     1       5.165   0.171  -1.265  0.00  0.00    +0.133 A 
ATOM      7  C   UNL     1       4.470   1.345  -1.257  0.00  0.00    +0.090 A 
ATOM      8  N   UNL     1       4.559   1.888  -2.469  0.00  0.00    -0.238 NA
ATOM      9  C   UNL     1       5.278   1.111  -3.239  0.00  0.00    +0.205 A 
ATOM     10  N   UNL     1       5.679   0.022  -2.514  0.00  0.00    -0.287 N 
ATOM     11  H   UNL     1       5.584  -1.553  -0.200  0.00  0.00    +0.156 HD
ENDROOT
BRANCH  10  12
ATOM     12  C   UNL     1       6.467  -1.045  -2.972  0.00  0.00    +0.049 A 
ATOM     13  C   UNL     1       7.572  -1.457  -2.240  0.00  0.00    +0.029 A 
ATOM     14  C   UNL     1       8.347  -2.507  -2.693  0.00  0.00    +0.040 A 
ATOM     15  C   UNL     1       8.022  -3.149  -3.876  0.00  0.00    +0.124 A 
ATOM     16  C   UNL     1       6.920  -2.738  -4.608  0.00  0.00    +0.040 A 
ATOM     17  C   UNL     1       6.139  -1.693  -4.155  0.00  0.00    +0.029 A 
ATOM     18  F   UNL     1       8.781  -4.175  -4.318  0.00  0.00    -0.205 F 
ENDBRANCH  10  12
BRANCH   1  21
ATOM     19  C   UNL     1      -0.016   1.351   0.009  0.00  0.00    +0.008 A 
ATOM     20  C   UNL     1       1.183   2.038   0.002  0.00  0.00    +0.012 A 
ATOM     21  C   UNL     1       2.343   1.336  -0.013  0.00  0.00    -0.001 A 
ATOM     22  S   UNL     1       1.754  -0.349  -0.017  0.00  0.00    -0.101 S 
ATOM     23  C   UNL     1       0.002  -0.004   0.002  0.00  0.00    +0.045 A 
ENDBRANCH   1  21
TORSDOF 2
