REMARK  Name = ZINC14729897
REMARK  8 active torsions:
REMARK  status: ('A' for Active; 'I' for Inactive)
REMARK    1  A    between atoms: C_1  and  C_2
REMARK    2  A    between atoms: C_4  and  C_34
REMARK    3  A    between atoms: N_10  and  C_11
REMARK    4  A    between atoms: C_11  and  N_13
REMARK    5  A    between atoms: N_13  and  C_14
REMARK    6  A    between atoms: N_20  and  C_21
REMARK    7  A    between atoms: C_21  and  C_22
REMARK    8  A    between atoms: C_22  and  C_23
REMARK                            x       y       z     vdW  Elec       q    Type
REMARK                         _______ _______ _______ _____ _____    ______ ____
ROOT
ATOM      1  C   UNL     1      11.618   0.832  -6.193  0.00  0.00    +0.066 C 
ATOM      2  C   UNL     1      10.120   0.774  -6.346  0.00  0.00    +0.044 A 
ATOM      3  C   UNL     1       9.540   0.849  -7.603  0.00  0.00    +0.046 A 
ATOM      4  C   UNL     1       8.158   0.792  -7.699  0.00  0.00    +0.044 A 
ATOM      5  N   UNL     1       7.439   0.668  -6.595  0.00  0.00    -0.217 NA
ATOM      6  C   UNL     1       8.026   0.599  -5.410  0.00  0.00    +0.231 A 
ATOM      7  N   UNL     1       9.342   0.656  -5.283  0.00  0.00    -0.217 NA
ATOM      8  N   UNL     1       7.240   0.470  -4.272  0.00  0.00    -0.297 N 
ATOM      9  C   UNL     1       7.819   0.512  -3.033  0.00  0.00    +0.195 C 
ATOM     10  N   UNL     1       9.106   0.788  -2.913  0.00  0.00    -0.159 NA
ATOM     11  N   UNL     1       7.067   0.269  -1.919  0.00  0.00    -0.357 N 
ATOM     12  C   UNL     1       7.483   0.869  -9.044  0.00  0.00    +0.066 C 
ATOM     13  H   UNL     1       6.153   0.334  -4.367  0.00  0.00    +0.171 HD
ATOM     14  H   UNL     1       7.546   0.227  -0.930  0.00  0.00    +0.162 HD
ENDROOT
BRANCH  10  15
ATOM     15  C   UNL     1       9.704   0.693  -1.717  0.00  0.00    +0.161 C 
ATOM     16  S   UNL     1       9.826  -0.827  -0.939  0.00  0.00    -0.016 S 
BRANCH  15  17
ATOM     17  N   UNL     1      10.209   1.795  -1.126  0.00  0.00    -0.295 N 
ATOM     18  H   UNL     1      10.045   2.784  -1.578  0.00  0.00    +0.154 HD
BRANCH  17  19
ATOM     19  C   UNL     1      10.941   1.679   0.060  0.00  0.00    +0.033 A 
ATOM     20  C   UNL     1      10.780   2.618   1.070  0.00  0.00    +0.023 A 
ATOM     21  C   UNL     1      11.500   2.498   2.243  0.00  0.00    +0.002 A 
ATOM     22  C   UNL     1      12.388   1.451   2.407  0.00  0.00    +0.000 A 
ATOM     23  C   UNL     1      12.554   0.517   1.400  0.00  0.00    +0.002 A 
ATOM     24  C   UNL     1      11.833   0.628   0.227  0.00  0.00    +0.023 A 
ENDBRANCH  17  19
ENDBRANCH  15  17
ENDBRANCH  10  15
BRANCH  11  25
ATOM     25  C   UNL     1       5.621   0.065  -2.042  0.00  0.00    +0.120 C 
BRANCH  25  26
ATOM     26  C   UNL     1       5.004  -0.065  -0.648  0.00  0.00    +0.058 C 
BRANCH  26  27
ATOM     27  C   UNL     1       3.539  -0.393  -0.776  0.00  0.00    -0.021 A 
ATOM     28  C   UNL     1       2.516   0.472  -0.682  0.00  0.00    +0.087 A 
ATOM     29  N   UNL     1       1.330  -0.189  -0.852  0.00  0.00    -0.360 N 
ATOM     30  H   UNL     1       0.381   0.365  -0.806  0.00  0.00    +0.165 HD
ATOM     31  C   UNL     1       1.567  -1.529  -1.065  0.00  0.00    +0.047 A 
ATOM     32  C   UNL     1       2.961  -1.715  -1.026  0.00  0.00    +0.004 A 
ATOM     33  C   UNL     1       3.500  -2.990  -1.213  0.00  0.00    +0.030 A 
ATOM     34  C   UNL     1       2.660  -4.059  -1.433  0.00  0.00    +0.042 A 
ATOM     35  C   UNL     1       1.283  -3.874  -1.472  0.00  0.00    +0.022 A 
ATOM     36  C   UNL     1       0.737  -2.623  -1.290  0.00  0.00    +0.027 A 
ATOM     37 CL   UNL     1       3.324  -5.645  -1.666  0.00  0.00    -0.084 Cl
ENDBRANCH  26  27
ENDBRANCH  25  26
ENDBRANCH  11  25
TORSDOF 6
