REMARK  Name = ZINC67372221
REMARK  3 active torsions:
REMARK  status: ('A' for Active; 'I' for Inactive)
REMARK    1  A    between atoms: C_1  and  C_2
REMARK    2  A    between atoms: C_7  and  N_9
REMARK    3  A    between atoms: C_14  and  C_16
REMARK                            x       y       z     vdW  Elec       q    Type
REMARK                         _______ _______ _______ _____ _____    ______ ____
ROOT
ATOM      1  N   UNL     1      -0.147  -0.923   2.284  0.00  0.00    -0.326 N 
ATOM      2  C   UNL     1       0.277  -0.934   3.608  0.00  0.00    +0.120 A 
ATOM      3  C   UNL     1       1.589  -0.573   3.914  0.00  0.00    +0.045 A 
ATOM      4  C   UNL     1       2.005  -0.585   5.233  0.00  0.00    +0.026 A 
ATOM      5  C   UNL     1       1.095  -0.960   6.213  0.00  0.00    +0.077 A 
ATOM      6  C   UNL     1      -0.201  -1.309   5.839  0.00  0.00    +0.160 A 
ATOM      7  N   UNL     1      -0.568  -1.280   4.562  0.00  0.00    -0.220 NA
ATOM      8 CL   UNL     1       1.567  -0.992   7.883  0.00  0.00    -0.081 Cl
ATOM      9  H   UNL     1      -1.060  -1.170   2.065  0.00  0.00    +0.148 HD
ENDROOT
BRANCH   1  15
ATOM     10  C   UNL     1      -0.019   1.526   0.010  0.00  0.00    +0.009 C 
ATOM     11  C   UNL     1       0.002  -0.004   0.002  0.00  0.00    +0.006 C 
ATOM     12  C   UNL     1       0.793  -0.529  -1.222  0.00  0.00    +0.005 C 
ATOM     13  C   UNL     1       1.228  -1.944  -0.767  0.00  0.00    +0.002 C 
ATOM     14  C   UNL     1       1.566  -1.774   0.729  0.00  0.00    +0.022 C 
ATOM     15  C   UNL     1       0.783  -0.540   1.219  0.00  0.00    +0.075 C 
ENDBRANCH   1  15
BRANCH   6  16
ATOM     16  C   UNL     1      -1.148  -1.697   6.841  0.00  0.00    +0.121 C 
ATOM     17  N   UNL     1      -1.900  -2.004   7.636  0.00  0.00    -0.189 NA
ENDBRANCH   6  16
TORSDOF 2
