REMARK  Name = ZINC09264879
REMARK  8 active torsions:
REMARK  status: ('A' for Active; 'I' for Inactive)
REMARK    1  A    between atoms: C_1  and  C_2
REMARK    2  A    between atoms: C_5  and  C_28
REMARK    3  A    between atoms: N_6  and  C_7
REMARK    4  A    between atoms: C_11  and  C_13
REMARK    5  A    between atoms: N_15  and  N_16
REMARK    6  A    between atoms: C_17  and  C_18
REMARK    7  A    between atoms: C_22  and  O_25
REMARK    8  A    between atoms: C_23  and  O_24
REMARK                            x       y       z     vdW  Elec       q    Type
REMARK                         _______ _______ _______ _____ _____    ______ ____
ROOT
ATOM      1  C   UNL     1      -2.172  -0.525   5.479  0.00  0.00    +0.265 C 
ATOM      2  O   UNL     1      -2.159  -0.144   6.634  0.00  0.00    -0.268 OA
ATOM      3  N   UNL     1      -3.226  -1.221   5.011  0.00  0.00    -0.203 N 
ATOM      4  H   UNL     1      -3.236  -1.524   4.089  0.00  0.00    +0.178 HD
ENDROOT
BRANCH   1   9
ATOM      5  C   UNL     1       0.031  -0.374   2.437  0.00  0.00    +0.047 A 
ATOM      6  C   UNL     1       1.115   0.344   2.926  0.00  0.00    +0.027 A 
ATOM      7  C   UNL     1       1.129   0.777   4.238  0.00  0.00    +0.023 A 
ATOM      8  C   UNL     1       0.064   0.498   5.073  0.00  0.00    +0.053 A 
ATOM      9  C   UNL     1      -1.031  -0.224   4.590  0.00  0.00    +0.059 A 
ATOM     10  C   UNL     1      -1.045  -0.655   3.263  0.00  0.00    +0.040 A 
ATOM     11 CL   UNL     1       0.086   1.042   6.721  0.00  0.00    -0.083 Cl
BRANCH   5  17
ATOM     12  C   UNL     1      -0.018   1.503   0.010  0.00  0.00    +0.064 C 
ATOM     13  C   UNL     1       0.002  -0.004   0.002  0.00  0.00    +0.021 A 
ATOM     14  C   UNL     1       0.008  -0.789  -1.095  0.00  0.00    +0.023 A 
ATOM     15  C   UNL     1       0.028  -2.128  -0.656  0.00  0.00    +0.023 A 
ATOM     16  C   UNL     1       0.034  -2.113   0.692  0.00  0.00    +0.021 A 
ATOM     17  N   UNL     1       0.024  -0.811   1.104  0.00  0.00    -0.318 N 
ATOM     18  C   UNL     1       0.054  -3.323   1.589  0.00  0.00    +0.064 C 
ENDBRANCH   5  17
ENDBRANCH   1   9
BRANCH   3  19
ATOM     19  N   UNL     1      -4.308  -1.506   5.854  0.00  0.00    -0.187 NA
ATOM     20  C   UNL     1      -5.324  -2.176   5.402  0.00  0.00    +0.142 C 
BRANCH  20  21
ATOM     21  C   UNL     1      -6.462  -2.476   6.289  0.00  0.00    +0.041 A 
ATOM     22  C   UNL     1      -7.555  -3.203   5.808  0.00  0.00    +0.033 A 
ATOM     23  C   UNL     1      -8.618  -3.482   6.642  0.00  0.00    +0.045 A 
ATOM     24  C   UNL     1      -8.608  -3.045   7.957  0.00  0.00    +0.069 A 
ATOM     25  C   UNL     1      -7.531  -2.323   8.446  0.00  0.00    +0.160 A 
ATOM     26  C   UNL     1      -6.451  -2.040   7.619  0.00  0.00    +0.167 A 
ATOM     27 CL   UNL     1      -9.974  -4.384   6.041  0.00  0.00    -0.083 Cl
BRANCH  26  28
ATOM     28  O   UNL     1      -5.391  -1.337   8.098  0.00  0.00    -0.503 OA
ATOM     29  H   UNL     1      -5.474  -0.379   7.992  0.00  0.00    +0.292 HD
ENDBRANCH  26  28
BRANCH  25  30
ATOM     30  O   UNL     1      -7.529  -1.897   9.738  0.00  0.00    -0.503 OA
ATOM     31  H   UNL     1      -7.137  -2.526  10.359  0.00  0.00    +0.292 HD
ENDBRANCH  25  30
ENDBRANCH  20  21
ENDBRANCH   3  19
TORSDOF 6
