REMARK  Name = ZINC35747435
REMARK  15 active torsions:
REMARK  status: ('A' for Active; 'I' for Inactive)
REMARK    1  A    between atoms: C_1  and  C_2
REMARK    2  A    between atoms: C_2  and  C_3
REMARK    3  A    between atoms: C_2  and  N_4
REMARK    4  A    between atoms: N_4  and  C_5
REMARK    5  A    between atoms: N_4  and  C_25
REMARK    6  A    between atoms: C_5  and  C_6
REMARK    7  A    between atoms: C_12  and  C_17
REMARK    8  A    between atoms: C_20  and  O_23
REMARK    9  A    between atoms: O_23  and  C_24
REMARK   10  A    between atoms: C_25  and  C_26
REMARK   11  A    between atoms: C_26  and  C_28
REMARK   12  A    between atoms: C_26  and  O_33
REMARK   13  A    between atoms: C_28  and  O_29
REMARK   14  A    between atoms: O_29  and  C_30
REMARK   15  A    between atoms: C_30  and  C_31
REMARK                            x       y       z     vdW  Elec       q    Type
REMARK                         _______ _______ _______ _____ _____    ______ ____
ROOT
ATOM      1  C   UNL     1      -2.546   1.390  -0.207  0.00  0.00    +0.094 A 
ATOM      2  N   UNL     1      -3.277   2.187  -1.028  0.00  0.00    -0.312 N 
ATOM      3  H   UNL     1      -3.597   1.834  -1.873  0.00  0.00    +0.170 HD
ATOM      4  C   UNL     1      -3.567   3.458  -0.693  0.00  0.00    +0.260 A 
ATOM      5  O   UNL     1      -4.225   4.161  -1.441  0.00  0.00    -0.267 OA
ATOM      6  C   UNL     1      -3.091   3.972   0.555  0.00  0.00    +0.080 A 
ATOM      7  C   UNL     1      -3.270   5.298   1.136  0.00  0.00    +0.004 A 
ATOM      8  C   UNL     1      -2.720   5.558   2.346  0.00  0.00    +0.056 A 
ATOM      9  S   UNL     1      -1.925   4.023   2.778  0.00  0.00    -0.076 S 
ATOM     10  C   UNL     1      -2.344   3.076   1.337  0.00  0.00    +0.116 A 
ATOM     11  N   UNL     1      -2.102   1.829   0.940  0.00  0.00    -0.229 NA
ENDROOT
BRANCH   7  12
ATOM     12  C   UNL     1      -4.038   6.341   0.415  0.00  0.00    -0.016 A 
ATOM     13  C   UNL     1      -3.755   6.618  -0.922  0.00  0.00    +0.012 A 
ATOM     14  C   UNL     1      -4.472   7.588  -1.590  0.00  0.00    +0.046 A 
ATOM     15  C   UNL     1      -5.474   8.289  -0.933  0.00  0.00    +0.120 A 
ATOM     16  C   UNL     1      -5.758   8.016   0.398  0.00  0.00    +0.046 A 
ATOM     17  C   UNL     1      -5.049   7.043   1.070  0.00  0.00    +0.012 A 
BRANCH  15  18
ATOM     18  O   UNL     1      -6.179   9.245  -1.594  0.00  0.00    -0.495 OA
ATOM     19  C   UNL     1      -7.196   9.927  -0.858  0.00  0.00    +0.277 C 
ENDBRANCH  15  18
ENDBRANCH   7  12
BRANCH   1  20
ATOM     20  C   UNL     1      -2.248  -0.027  -0.624  0.00  0.00    -0.003 C 
BRANCH  20  21
ATOM     21  N   UNL     1      -1.303  -0.628   0.327  0.00  0.00    +0.388 N 
ATOM     22  H   UNL     1      -1.513  -0.304   1.259  0.00  0.00    -0.081 HD
BRANCH  21  24
ATOM     23  C   UNL     1       0.428  -0.834  -1.393  0.00  0.00    -0.014 C 
ATOM     24  C   UNL     1       0.067  -0.238  -0.031  0.00  0.00    -0.074 C 
ATOM     25  C   UNL     1       0.161   1.288  -0.101  0.00  0.00    -0.014 C 
ENDBRANCH  21  24
BRANCH  21  26
ATOM     26  C   UNL     1      -1.424  -2.091   0.278  0.00  0.00    -0.044 C 
BRANCH  26  27
ATOM     27  C   UNL     1      -0.591  -2.710   1.403  0.00  0.00    +0.124 C 
BRANCH  27  28
ATOM     28  O   UNL     1       0.798  -2.530   1.120  0.00  0.00    -0.391 OA
ATOM     29  H   UNL     1       1.075  -2.887   0.265  0.00  0.00    +0.210 HD
ENDBRANCH  27  28
BRANCH  27  30
ATOM     30  C   UNL     1      -0.902  -4.204   1.505  0.00  0.00    +0.189 C 
BRANCH  30  31
ATOM     31  O   UNL     1      -0.214  -4.758   2.628  0.00  0.00    -0.373 OA
BRANCH  31  32
ATOM     32  C   UNL     1      -0.437  -6.157   2.815  0.00  0.00    +0.186 C 
BRANCH  32  33
ATOM     33  C   UNL     1       0.332  -6.633   4.020  0.00  0.00    -0.007 C 
ATOM     34  C   UNL     1      -0.242  -7.419   4.896  0.00  0.00    +0.006 C 
ENDBRANCH  32  33
ENDBRANCH  31  32
ENDBRANCH  30  31
ENDBRANCH  27  30
ENDBRANCH  26  27
ENDBRANCH  21  26
ENDBRANCH  20  21
ENDBRANCH   1  20
TORSDOF 12
