REMARK  Name = ZINC13032925
REMARK  12 active torsions:
REMARK  status: ('A' for Active; 'I' for Inactive)
REMARK    1  A    between atoms: C_1  and  C_2
REMARK    2  A    between atoms: C_6  and  C_15
REMARK    3  A    between atoms: C_13  and  C_14
REMARK    4  A    between atoms: C_15  and  N_64
REMARK    5  A    between atoms: C_16  and  C_17
REMARK    6  A    between atoms: C_16  and  N_64
REMARK    7  A    between atoms: C_20  and  O_23
REMARK    8  A    between atoms: O_23  and  C_24
REMARK    9  A    between atoms: C_25  and  C_26
REMARK   10  A    between atoms: C_25  and  N_64
REMARK   11  A    between atoms: N_30  and  C_31
REMARK   12  A    between atoms: C_31  and  C_32
REMARK                            x       y       z     vdW  Elec       q    Type
REMARK                         _______ _______ _______ _____ _____    ______ ____
ROOT
ATOM      1  N   UNL     1      -5.387   3.875  -1.366  0.00  0.00    +0.390 N 
ATOM      2  H   UNL     1      -5.385   2.920  -1.741  0.00  0.00    -0.080 HD
ENDROOT
BRANCH   1   3
ATOM      3  C   UNL     1      -4.962   3.837   0.049  0.00  0.00    -0.036 C 
BRANCH   3   9
ATOM      4  C   UNL     1      -4.998  -3.304   2.200  0.00  0.00    +0.044 C 
ATOM      5  C   UNL     1      -5.661  -1.953   2.117  0.00  0.00    -0.047 A 
ATOM      6  C   UNL     1      -5.014  -0.918   1.503  0.00  0.00    +0.013 A 
ATOM      7  C   UNL     1      -5.629   0.336   1.426  0.00  0.00    -0.001 A 
ATOM      8  C   UNL     1      -4.964   1.466   0.775  0.00  0.00    +0.017 A 
ATOM      9  C   UNL     1      -5.615   2.654   0.717  0.00  0.00    +0.001 A 
ATOM     10  C   UNL     1      -6.899   2.790   1.288  0.00  0.00    +0.251 A 
ATOM     11  O   UNL     1      -7.462   3.869   1.234  0.00  0.00    -0.268 OA
ATOM     12  N   UNL     1      -7.515   1.759   1.893  0.00  0.00    -0.322 N 
ATOM     13  H   UNL     1      -8.397   1.887   2.275  0.00  0.00    +0.169 HD
ATOM     14  C   UNL     1      -6.911   0.522   1.976  0.00  0.00    +0.049 A 
ATOM     15  C   UNL     1      -7.548  -0.545   2.601  0.00  0.00    +0.030 A 
ATOM     16  C   UNL     1      -6.923  -1.772   2.666  0.00  0.00    -0.046 A 
ATOM     17  C   UNL     1      -7.617  -2.928   3.338  0.00  0.00    +0.044 C 
ENDBRANCH   3   9
ENDBRANCH   1   3
BRANCH   1  18
ATOM     18  C   UNL     1      -6.754   4.428  -1.468  0.00  0.00    -0.042 C 
BRANCH  18  19
ATOM     19  C   UNL     1      -7.245   4.253  -2.882  0.00  0.00    -0.064 A 
ATOM     20  C   UNL     1      -7.037   5.253  -3.813  0.00  0.00    +0.005 A 
ATOM     21  C   UNL     1      -7.481   5.093  -5.112  0.00  0.00    +0.046 A 
ATOM     22  C   UNL     1      -8.146   3.932  -5.478  0.00  0.00    +0.120 A 
ATOM     23  C   UNL     1      -8.359   2.933  -4.540  0.00  0.00    +0.046 A 
ATOM     24  C   UNL     1      -7.908   3.095  -3.244  0.00  0.00    +0.005 A 
BRANCH  22  25
ATOM     25  O   UNL     1      -8.588   3.774  -6.753  0.00  0.00    -0.495 OA
ATOM     26  C   UNL     1      -8.334   4.845  -7.665  0.00  0.00    +0.277 C 
ENDBRANCH  22  25
ENDBRANCH  18  19
ENDBRANCH   1  18
BRANCH   1  27
ATOM     27  C   UNL     1      -4.448   4.702  -2.153  0.00  0.00    +0.001 C 
BRANCH  27  28
ATOM     28  C   UNL     1      -3.182   3.915  -2.377  0.00  0.00    +0.136 A 
ATOM     29  N   UNL     1      -2.086   3.975  -1.661  0.00  0.00    -0.115 NA
ATOM     30  N   UNL     1      -1.234   3.153  -2.168  0.00  0.00    -0.023 NA
ATOM     31  N   UNL     1      -1.755   2.575  -3.193  0.00  0.00    -0.044 NA
ATOM     32  N   UNL     1      -2.956   3.019  -3.355  0.00  0.00    -0.224 N 
BRANCH  32  33
ATOM     33  C   UNL     1      -3.897   2.621  -4.406  0.00  0.00    +0.221 C 
BRANCH  33  34
ATOM     34  C   UNL     1      -3.724   3.521  -5.602  0.00  0.00    +0.126 A 
ATOM     35  C   UNL     1      -2.885   3.309  -6.631  0.00  0.00    +0.046 A 
ATOM     36  C   UNL     1      -3.049   4.394  -7.524  0.00  0.00    +0.041 A 
ATOM     37  C   UNL     1      -3.972   5.208  -6.982  0.00  0.00    +0.195 A 
ATOM     38  O   UNL     1      -4.378   4.674  -5.818  0.00  0.00    -0.466 OA
ENDBRANCH  33  34
ENDBRANCH  32  33
ENDBRANCH  27  28
ENDBRANCH   1  27
TORSDOF 9
