REMARK  Name = ZINC21343189
REMARK  7 active torsions:
REMARK  status: ('A' for Active; 'I' for Inactive)
REMARK    1  A    between atoms: C_5  and  C_7
REMARK    2  A    between atoms: C_7  and  N_8
REMARK    3  A    between atoms: C_15  and  C_18
REMARK    4  A    between atoms: C_15  and  O_28
REMARK    5  A    between atoms: C_18  and  C_19
REMARK    6  A    between atoms: C_19  and  C_21
REMARK    7  A    between atoms: C_26  and  O_27
REMARK                            x       y       z     vdW  Elec       q    Type
REMARK                         _______ _______ _______ _____ _____    ______ ____
ROOT
ATOM      1  N   UNL     1       1.088  -3.535   1.897  0.00  0.00    -0.264 N 
ATOM      2  C   UNL     1       2.328  -3.755   1.297  0.00  0.00    +0.043 A 
ATOM      3  C   UNL     1       3.407  -4.541   1.696  0.00  0.00    +0.024 A 
ATOM      4  C   UNL     1       4.547  -4.597   0.921  0.00  0.00    +0.002 A 
ATOM      5  C   UNL     1       4.628  -3.877  -0.257  0.00  0.00    +0.000 A 
ATOM      6  C   UNL     1       3.560  -3.094  -0.660  0.00  0.00    +0.009 A 
ATOM      7  C   UNL     1       2.422  -3.036   0.112  0.00  0.00    +0.015 A 
ATOM      8  C   UNL     1       1.113  -2.296  -0.042  0.00  0.00    +0.175 C 
ATOM      9  C   UNL     1       0.318  -2.697   1.183  0.00  0.00    +0.257 C 
ATOM     10  O   UNL     1      -0.803  -2.331   1.466  0.00  0.00    -0.272 OA
ENDROOT
BRANCH   8  11
ATOM     11  O   UNL     1       0.442  -2.707  -1.234  0.00  0.00    -0.374 OA
ATOM     12  H   UNL     1      -0.530  -2.265  -1.499  0.00  0.00    +0.211 HD
ENDBRANCH   8  11
BRANCH   1  13
ATOM     13  C   UNL     1       0.672  -4.149   3.161  0.00  0.00    +0.150 C 
BRANCH  13  18
ATOM     14  C   UNL     1       2.925  -2.962   5.949  0.00  0.00    +0.000 A 
ATOM     15  C   UNL     1       2.223  -1.872   6.427  0.00  0.00    +0.001 A 
ATOM     16  C   UNL     1       1.018  -1.518   5.848  0.00  0.00    +0.015 A 
ATOM     17  C   UNL     1       0.516  -2.254   4.791  0.00  0.00    +0.023 A 
ATOM     18  C   UNL     1       1.219  -3.345   4.313  0.00  0.00    -0.016 A 
ATOM     19  C   UNL     1       2.421  -3.702   4.895  0.00  0.00    +0.006 A 
ATOM     20 BR   UNL     1      -1.132  -1.771   3.999  0.00  0.00    -0.050 Br
ENDBRANCH  13  18
ENDBRANCH   1  13
BRANCH   8  21
ATOM     21  C   UNL     1       1.350  -0.785  -0.055  0.00  0.00    +0.129 C 
BRANCH  21  22
ATOM     22  C   UNL     1       0.024  -0.069  -0.085  0.00  0.00    +0.170 C 
ATOM     23  O   UNL     1      -1.009  -0.705  -0.095  0.00  0.00    -0.292 OA
BRANCH  22  24
ATOM     24  C   UNL     1      -0.018   1.399  -0.103  0.00  0.00    +0.059 A 
ATOM     25  C   UNL     1       1.172   2.137  -0.092  0.00  0.00    +0.015 A 
ATOM     26  C   UNL     1       1.125   3.513  -0.109  0.00  0.00    +0.001 A 
ATOM     27  C   UNL     1      -0.095   4.172  -0.137  0.00  0.00    +0.004 A 
ATOM     28  C   UNL     1      -1.276   3.457  -0.148  0.00  0.00    +0.046 A 
ATOM     29  C   UNL     1      -1.250   2.071  -0.137  0.00  0.00    +0.127 A 
BRANCH  29  30
ATOM     30  O   UNL     1      -2.410   1.367  -0.154  0.00  0.00    -0.506 OA
ATOM     31  H   UNL     1      -3.374   1.897  -0.180  0.00  0.00    +0.292 HD
ENDBRANCH  29  30
ENDBRANCH  22  24
ENDBRANCH  21  22
ENDBRANCH   8  21
TORSDOF 7
