REMARK  Name = ZINC21690175
REMARK  4 active torsions:
REMARK  status: ('A' for Active; 'I' for Inactive)
REMARK    1  A    between atoms: C_11  and  C_13
REMARK    2  A    between atoms: C_13  and  C_14
REMARK    3  A    between atoms: C_14  and  C_15
REMARK    4  A    between atoms: C_21  and  C_23
REMARK                            x       y       z     vdW  Elec       q    Type
REMARK                         _______ _______ _______ _____ _____    ______ ____
ROOT
ATOM      1  C   UNL     1       6.036   3.416  -1.527  0.00  0.00    +0.051 A 
ATOM      2  C   UNL     1       6.819   4.352  -0.937  0.00  0.00    +0.071 A 
ATOM      3  S   UNL     1       6.304   5.819  -1.816  0.00  0.00    -0.060 S 
ATOM      4  C   UNL     1       5.165   5.098  -2.824  0.00  0.00    +0.165 A 
ATOM      5  N   UNL     1       5.218   3.830  -2.477  0.00  0.00    -0.230 NA
ATOM      6  N   UNL     1       4.366   5.696  -3.790  0.00  0.00    -0.261 N 
ATOM      7  C   UNL     1       4.454   7.023  -4.010  0.00  0.00    +0.251 C 
ATOM      8  O   UNL     1       5.233   7.696  -3.364  0.00  0.00    -0.270 OA
ATOM      9  H   UNL     1       3.744   5.159  -4.306  0.00  0.00    +0.157 HD
ENDROOT
BRANCH   7  10
ATOM     10  C   UNL     1       3.606   7.658  -5.036  0.00  0.00    +0.053 A 
ATOM     11  C   UNL     1       2.693   6.880  -5.788  0.00  0.00    +0.020 A 
ATOM     12  C   UNL     1       1.923   7.492  -6.727  0.00  0.00    +0.071 A 
ATOM     13  C   UNL     1       2.049   8.879  -6.930  0.00  0.00    +0.249 A 
ATOM     14  O   UNL     1       1.360   9.432  -7.771  0.00  0.00    -0.268 OA
ATOM     15  N   UNL     1       2.923   9.599  -6.204  0.00  0.00    -0.328 N 
ATOM     16  H   UNL     1       2.997  10.554  -6.356  0.00  0.00    +0.168 HD
ATOM     17  C   UNL     1       3.692   9.016  -5.266  0.00  0.00    +0.099 A 
ENDBRANCH   7  10
BRANCH   1  18
ATOM     18  C   UNL     1       6.100   1.967  -1.120  0.00  0.00    +0.065 C 
BRANCH  18  19
ATOM     19  C   UNL     1       4.700   1.482  -0.737  0.00  0.00    +0.102 C 
BRANCH  19  30
ATOM     20  C   UNL     1       3.777  -4.737   0.697  0.00  0.00    +0.000 A 
ATOM     21  C   UNL     1       4.869  -4.093   0.143  0.00  0.00    +0.002 A 
ATOM     22  C   UNL     1       4.814  -2.736  -0.105  0.00  0.00    +0.024 A 
ATOM     23  C   UNL     1       3.663  -2.019   0.201  0.00  0.00    +0.039 A 
ATOM     24  C   UNL     1       2.569  -2.665   0.753  0.00  0.00    -0.026 A 
ATOM     25  C   UNL     1       2.633  -4.027   1.000  0.00  0.00    +0.005 A 
ATOM     26  C   UNL     1       1.302  -1.923   1.087  0.00  0.00    +0.038 C 
ATOM     27  C   UNL     1       1.580  -0.426   1.227  0.00  0.00    +0.024 C 
ATOM     28  C   UNL     1       2.337   0.057  -0.017  0.00  0.00    +0.114 C 
ATOM     29  N   UNL     1       3.630  -0.641  -0.055  0.00  0.00    -0.271 N 
ATOM     30  C   UNL     1       4.764   0.033  -0.330  0.00  0.00    +0.220 C 
ATOM     31  O   UNL     1       5.837  -0.528  -0.250  0.00  0.00    -0.275 OA
ENDBRANCH  19  30
ENDBRANCH  18  19
ENDBRANCH   1  18
TORSDOF 4
