REMARK  Name = ZINC08845601
REMARK  9 active torsions:
REMARK  status: ('A' for Active; 'I' for Inactive)
REMARK    1  A    between atoms: C_1  and  C_2
REMARK    2  A    between atoms: C_4  and  O_36
REMARK    3  A    between atoms: C_5  and  C_9
REMARK    4  A    between atoms: N_17  and  C_29
REMARK    5  A    between atoms: C_18  and  C_20
REMARK    6  A    between atoms: C_23  and  O_28
REMARK    7  A    between atoms: C_24  and  O_26
REMARK    8  A    between atoms: O_26  and  C_27
REMARK    9  A    between atoms: C_29  and  C_30
REMARK                            x       y       z     vdW  Elec       q    Type
REMARK                         _______ _______ _______ _____ _____    ______ ____
ROOT
ATOM      1  C   UNL     1      -0.184  -3.951   0.175  0.00  0.00    +0.102 A 
ATOM      2  C   UNL     1       0.050  -4.915   1.162  0.00  0.00    +0.035 A 
ATOM      3  C   UNL     1       0.046  -6.132   0.507  0.00  0.00    +0.126 A 
ATOM      4  N   UNL     1      -0.183  -5.854  -0.810  0.00  0.00    -0.272 N 
ATOM      5  H   UNL     1      -0.241  -6.516  -1.517  0.00  0.00    +0.189 HD
ATOM      6  N   UNL     1      -0.318  -4.586  -0.973  0.00  0.00    -0.173 NA
ATOM      7  C   UNL     1       0.287  -7.192   1.493  0.00  0.00    +0.266 C 
ATOM      8  O   UNL     1       0.344  -8.379   1.236  0.00  0.00    -0.268 OA
ATOM      9  N   UNL     1       0.437  -6.664   2.721  0.00  0.00    -0.281 N 
ATOM     10  C   UNL     1       0.301  -5.205   2.616  0.00  0.00    +0.142 C 
ENDROOT
BRANCH   1  15
ATOM     11  C   UNL     1      -0.525   1.745   0.985  0.00  0.00    +0.045 C 
ATOM     12  C   UNL     1      -0.436   0.256   0.771  0.00  0.00    -0.029 A 
ATOM     13  C   UNL     1      -0.474  -0.258  -0.512  0.00  0.00    +0.050 A 
ATOM     14  C   UNL     1      -0.393  -1.626  -0.714  0.00  0.00    +0.126 A 
ATOM     15  C   UNL     1      -0.271  -2.484   0.383  0.00  0.00    +0.045 A 
ATOM     16  C   UNL     1      -0.233  -1.957   1.671  0.00  0.00    +0.034 A 
ATOM     17  C   UNL     1      -0.310  -0.590   1.859  0.00  0.00    +0.045 A 
ATOM     18 CL   UNL     1      -0.255   0.067   3.465  0.00  0.00    -0.083 Cl
BRANCH  14  19
ATOM     19  O   UNL     1      -0.431  -2.132  -1.975  0.00  0.00    -0.506 OA
ATOM     20  H   UNL     1       0.437  -2.219  -2.390  0.00  0.00    +0.292 HD
ENDBRANCH  14  19
ENDBRANCH   1  15
BRANCH  10  21
ATOM     21  C   UNL     1       1.572  -4.532   3.067  0.00  0.00    -0.019 A 
ATOM     22  C   UNL     1       1.524  -3.541   4.029  0.00  0.00    +0.009 A 
ATOM     23  C   UNL     1       2.686  -2.921   4.446  0.00  0.00    +0.049 A 
ATOM     24  C   UNL     1       3.904  -3.292   3.900  0.00  0.00    +0.158 A 
ATOM     25  C   UNL     1       3.953  -4.290   2.932  0.00  0.00    +0.162 A 
ATOM     26  C   UNL     1       2.784  -4.912   2.522  0.00  0.00    +0.055 A 
BRANCH  25  27
ATOM     27  O   UNL     1       5.146  -4.659   2.392  0.00  0.00    -0.491 OA
ATOM     28  C   UNL     1       5.110  -5.608   1.325  0.00  0.00    +0.277 C 
ENDBRANCH  25  27
BRANCH  24  29
ATOM     29  O   UNL     1       5.049  -2.683   4.309  0.00  0.00    -0.503 OA
ATOM     30  H   UNL     1       5.478  -3.115   5.060  0.00  0.00    +0.292 HD
ENDBRANCH  24  29
ENDBRANCH  10  21
BRANCH   9  31
ATOM     31  C   UNL     1       0.691  -7.415   3.953  0.00  0.00    +0.144 C 
BRANCH  31  32
ATOM     32  C   UNL     1       2.177  -7.559   4.157  0.00  0.00    -0.030 A 
ATOM     33  C   UNL     1       2.846  -8.645   3.624  0.00  0.00    +0.005 A 
ATOM     34  C   UNL     1       4.209  -8.776   3.811  0.00  0.00    +0.000 A 
ATOM     35  C   UNL     1       4.904  -7.822   4.530  0.00  0.00    +0.000 A 
ATOM     36  C   UNL     1       4.235  -6.735   5.062  0.00  0.00    +0.000 A 
ATOM     37  C   UNL     1       2.872  -6.601   4.872  0.00  0.00    +0.005 A 
ENDBRANCH  31  32
ENDBRANCH   9  31
TORSDOF 7
