REMARK  Name = ZINC40399880
REMARK  10 active torsions:
REMARK  status: ('A' for Active; 'I' for Inactive)
REMARK    1  A    between atoms: C_1  and  C_2
REMARK    2  A    between atoms: C_2  and  C_3
REMARK    3  A    between atoms: C_3  and  C_5
REMARK    4  A    between atoms: C_3  and  C_6
REMARK    5  A    between atoms: N_10  and  C_31
REMARK    6  A    between atoms: N_15  and  S_18
REMARK    7  A    between atoms: S_18  and  C_21
REMARK    8  A    between atoms: C_24  and  N_27
REMARK    9  A    between atoms: C_28  and  C_30
REMARK   10  A    between atoms: C_31  and  C_32
REMARK                            x       y       z     vdW  Elec       q    Type
REMARK                         _______ _______ _______ _____ _____    ______ ____
ROOT
ATOM      1  C   UNL     1       0.898  -1.916   1.287  0.00  0.00    +0.022 C 
ATOM      2  C   UNL     1      -0.438  -2.617   1.405  0.00  0.00    +0.201 C 
ATOM      3  O   UNL     1      -1.496  -2.203   0.981  0.00  0.00    -0.277 OA
ATOM      4  N   UNL     1      -0.253  -3.781   2.063  0.00  0.00    -0.313 N 
ATOM      5  C   UNL     1       1.163  -3.929   2.407  0.00  0.00    +0.006 C 
ATOM      6  N   UNL     1       1.769  -2.584   2.284  0.00  0.00    +0.401 N 
ATOM      7  C   UNL     1       1.845  -4.890   1.435  0.00  0.00    +0.023 C 
ATOM      8  C   UNL     1       1.187  -6.269   1.539  0.00  0.00    +0.109 C 
ATOM      9  N   UNL     1       1.211  -6.699   2.944  0.00  0.00    -0.177 NA
ATOM     10  C   UNL     1       0.646  -5.808   3.967  0.00  0.00    +0.109 C 
ATOM     11  C   UNL     1       1.309  -4.432   3.842  0.00  0.00    +0.023 C 
ATOM     12  H   UNL     1       2.716  -2.647   1.943  0.00  0.00    -0.082 HD
ATOM     13  H   UNL     1       1.737  -2.097   3.167  0.00  0.00    -0.082 HD
ENDROOT
BRANCH   9  14
ATOM     14  S   UNL     1       1.863  -8.162   3.367  0.00  0.00    +0.061 S 
ATOM     15  O   UNL     1       1.264  -8.531   4.602  0.00  0.00    -0.153 OA
ATOM     16  O   UNL     1       1.796  -8.986   2.211  0.00  0.00    -0.153 OA
BRANCH  14  17
ATOM     17  C   UNL     1       3.573  -7.894   3.697  0.00  0.00    +0.106 A 
ATOM     18  C   UNL     1       4.498  -8.003   2.675  0.00  0.00    +0.030 A 
ATOM     19  C   UNL     1       5.839  -7.793   2.930  0.00  0.00    +0.025 A 
ATOM     20  C   UNL     1       6.258  -7.474   4.214  0.00  0.00    +0.033 A 
ATOM     21  C   UNL     1       5.327  -7.365   5.239  0.00  0.00    +0.025 A 
ATOM     22  C   UNL     1       3.987  -7.571   4.976  0.00  0.00    +0.030 A 
BRANCH  20  23
ATOM     23  N   UNL     1       7.617  -7.262   4.476  0.00  0.00    -0.286 N 
ATOM     24  C   UNL     1       8.401  -6.685   3.544  0.00  0.00    +0.214 C 
ATOM     25  O   UNL     1       7.912  -6.262   2.518  0.00  0.00    -0.276 OA
ATOM     26  C   UNL     1       9.885  -6.567   3.776  0.00  0.00    +0.109 C 
ATOM     27  H   UNL     1       7.994  -7.530   5.329  0.00  0.00    +0.155 HD
ENDBRANCH  20  23
ENDBRANCH  14  17
ENDBRANCH   9  14
BRANCH   1  28
ATOM     28  C   UNL     1       0.750  -0.429   1.619  0.00  0.00    -0.020 C 
ATOM     29  C   UNL     1       0.162  -0.277   3.023  0.00  0.00    +0.006 C 
BRANCH  28  31
ATOM     30  C   UNL     1      -0.232   1.738   0.858  0.00  0.00    +0.004 C 
ATOM     31  C   UNL     1      -0.182   0.231   0.602  0.00  0.00    -0.001 C 
ENDBRANCH  28  31
ENDBRANCH   1  28
BRANCH   4  32
ATOM     32  C   UNL     1      -1.307  -4.747   2.384  0.00  0.00    +0.109 C 
BRANCH  32  33
ATOM     33  C   UNL     1      -1.991  -4.340   3.690  0.00  0.00    +0.006 C 
ATOM     34  C   UNL     1      -2.086  -5.393   4.796  0.00  0.00    +0.005 C 
ATOM     35  C   UNL     1      -3.338  -4.991   4.014  0.00  0.00    +0.005 C 
ENDBRANCH  32  33
ENDBRANCH   4  32
TORSDOF 7
