REMARK  Name = ZINC65265652
REMARK  3 active torsions:
REMARK  status: ('A' for Active; 'I' for Inactive)
REMARK    1  A    between atoms: C_4  and  C_7
REMARK    2  A    between atoms: C_7  and  N_8
REMARK    3  A    between atoms: C_24  and  C_26
REMARK                            x       y       z     vdW  Elec       q    Type
REMARK                         _______ _______ _______ _____ _____    ______ ____
ROOT
ATOM      1  N   UNL     1       3.042   0.824   2.082  0.00  0.00    -0.371 N 
ATOM      2  C   UNL     1       4.214   0.343   1.821  0.00  0.00    +0.098 C 
ATOM      3  N   UNL     1       4.788   0.465   0.568  0.00  0.00    -0.286 N 
ATOM      4  C   UNL     1       5.528  -0.619   0.082  0.00  0.00    +0.145 A 
ATOM      5  C   UNL     1       5.883  -1.662   0.940  0.00  0.00    +0.069 A 
ATOM      6  C   UNL     1       6.628  -2.723   0.445  0.00  0.00    +0.028 A 
ATOM      7  C   UNL     1       6.987  -2.707  -0.896  0.00  0.00    +0.022 A 
ATOM      8  C   UNL     1       6.595  -1.647  -1.688  0.00  0.00    +0.113 A 
ATOM      9  N   UNL     1       5.889  -0.649  -1.191  0.00  0.00    -0.238 NA
ATOM     10  N   UNL     1       5.486  -1.649   2.283  0.00  0.00    -0.329 N 
ATOM     11  C   UNL     1       5.031  -0.378   2.873  0.00  0.00    +0.089 C 
ATOM     12  C   UNL     1       4.161  -0.654   4.097  0.00  0.00    +0.052 C 
ATOM     13  C   UNL     1       4.982  -1.414   5.144  0.00  0.00    +0.110 C 
ATOM     14  N   UNL     1       6.208  -0.655   5.425  0.00  0.00    -0.297 N 
ATOM     15  C   UNL     1       7.075  -0.272   4.302  0.00  0.00    +0.110 C 
ATOM     16  C   UNL     1       6.234   0.477   3.263  0.00  0.00    +0.052 C 
ATOM     17  C   UNL     1       6.531  -0.316   6.689  0.00  0.00    +0.253 C 
ATOM     18  O   UNL     1       5.750  -0.533   7.596  0.00  0.00    -0.269 OA
ATOM     19  H   UNL     1       2.665   0.728   2.970  0.00  0.00    +0.161 HD
ATOM     20  H   UNL     1       5.512  -2.461   2.814  0.00  0.00    +0.147 HD
ATOM     21  H   UNL     1       4.681   1.275   0.044  0.00  0.00    +0.155 HD
ENDROOT
BRANCH  17  22
ATOM     22  C   UNL     1       7.824   0.315   6.971  0.00  0.00    +0.074 A 
ATOM     23  C   UNL     1       8.200   1.089   8.058  0.00  0.00    +0.021 A 
ATOM     24  C   UNL     1       9.496   1.548   8.044  0.00  0.00    +0.008 A 
ATOM     25  C   UNL     1      10.299   1.224   7.001  0.00  0.00    +0.046 A 
ATOM     26  S   UNL     1       9.325   0.281   6.009  0.00  0.00    -0.092 S 
ENDBRANCH  17  22
BRANCH   1  27
ATOM     27  C   UNL     1       2.284   1.515   1.036  0.00  0.00    +0.149 C 
BRANCH  27  31
ATOM     28  C   UNL     1      -1.464   2.821   2.615  0.00  0.00    +0.000 A 
ATOM     29  C   UNL     1      -0.358   3.648   2.685  0.00  0.00    +0.000 A 
ATOM     30  C   UNL     1       0.855   3.226   2.174  0.00  0.00    +0.005 A 
ATOM     31  C   UNL     1       0.962   1.976   1.593  0.00  0.00    -0.028 A 
ATOM     32  C   UNL     1      -0.143   1.148   1.524  0.00  0.00    +0.005 A 
ATOM     33  C   UNL     1      -1.356   1.571   2.034  0.00  0.00    +0.000 A 
ENDBRANCH  27  31
ENDBRANCH   1  27
TORSDOF 3
