REMARK  Name = ZINC02418654
REMARK  1 active torsions:
REMARK  status: ('A' for Active; 'I' for Inactive)
REMARK    1  A    between atoms: C_10  and  N_11
REMARK                            x       y       z     vdW  Elec       q    Type
REMARK                         _______ _______ _______ _____ _____    ______ ____
ROOT
ATOM      1  N   UNL     1       4.873   0.100  -0.044  0.00  0.00    -0.209 N 
ATOM      2  C   UNL     1       5.508   0.461   1.077  0.00  0.00    +0.228 C 
ATOM      3  O   UNL     1       5.133   0.217   2.204  0.00  0.00    -0.275 OA
ATOM      4  C   UNL     1       6.766   1.220   0.720  0.00  0.00    +0.074 C 
ATOM      5  C   UNL     1       7.998   0.385   1.118  0.00  0.00    -0.054 C 
ATOM      6  C   UNL     1       7.609  -0.586   2.248  0.00  0.00    -0.016 C 
ATOM      7  C   UNL     1       7.156  -1.879   1.544  0.00  0.00    -0.020 C 
ATOM      8  C   UNL     1       7.281  -1.581   0.036  0.00  0.00    -0.076 C 
ATOM      9  N   UNL     1       8.293  -0.470  -0.072  0.00  0.00    +0.395 N 
ATOM     10  C   UNL     1       7.982   0.387  -1.228  0.00  0.00    +0.053 C 
ATOM     11  C   UNL     1       6.748   1.232  -0.833  0.00  0.00    +0.089 C 
ATOM     12  C   UNL     1       5.484   0.476  -1.173  0.00  0.00    +0.229 C 
ATOM     13  O   UNL     1       5.084   0.249  -2.295  0.00  0.00    -0.275 OA
ATOM     14  C   UNL     1       9.147   1.265  -1.593  0.00  0.00    -0.026 A 
ATOM     15  C   UNL     1       9.859   2.225  -0.910  0.00  0.00    +0.024 A 
ATOM     16  C   UNL     1      10.909   2.881  -1.530  0.00  0.00    +0.041 A 
ATOM     17  C   UNL     1      11.240   2.568  -2.837  0.00  0.00    +0.022 A 
ATOM     18  C   UNL     1      10.528   1.607  -3.524  0.00  0.00    +0.025 A 
ATOM     19  C   UNL     1       9.471   0.942  -2.907  0.00  0.00    +0.036 A 
ATOM     20  N   UNL     1       8.615  -0.053  -3.385  0.00  0.00    -0.286 N 
ATOM     21  C   UNL     1       7.712  -0.433  -2.461  0.00  0.00    +0.212 C 
ATOM     22  O   UNL     1       6.848  -1.274  -2.597  0.00  0.00    -0.277 OA
ATOM     23 CL   UNL     1      11.808   4.093  -0.671  0.00  0.00    -0.084 Cl
ATOM     24  H   UNL     1       8.665  -0.426  -4.279  0.00  0.00    +0.155 HD
ATOM     25  H   UNL     1       9.243  -0.809  -0.079  0.00  0.00    -0.079 HD
ENDROOT
BRANCH   1  35
ATOM     26  C   UNL     1      -0.016   1.357   0.009  0.00  0.00    +0.001 A 
ATOM     27  C   UNL     1       1.169   2.090   0.002  0.00  0.00    +0.001 A 
ATOM     28  C   UNL     1       2.378   1.466  -0.013  0.00  0.00    +0.010 A 
ATOM     29  C   UNL     1       2.437   0.064  -0.021  0.00  0.00    +0.004 A 
ATOM     30  C   UNL     1       1.233  -0.683  -0.013  0.00  0.00    -0.016 A 
ATOM     31  C   UNL     1       0.002  -0.004   0.002  0.00  0.00    +0.008 A 
ATOM     32  C   UNL     1       1.290  -2.087  -0.021  0.00  0.00    +0.008 A 
ATOM     33  C   UNL     1       2.496  -2.718  -0.035  0.00  0.00    +0.002 A 
ATOM     34  C   UNL     1       3.685  -1.995  -0.042  0.00  0.00    +0.024 A 
ATOM     35  C   UNL     1       3.672  -0.617  -0.036  0.00  0.00    +0.052 A 
ENDBRANCH   1  35
TORSDOF 1
