REMARK  Name = ZINC13804157
REMARK  7 active torsions:
REMARK  status: ('A' for Active; 'I' for Inactive)
REMARK    1  A    between atoms: C_4  and  C_7
REMARK    2  A    between atoms: C_7  and  C_8
REMARK    3  A    between atoms: C_13  and  C_14
REMARK    4  A    between atoms: C_13  and  N_67
REMARK    5  A    between atoms: C_15  and  C_25
REMARK    6  A    between atoms: N_27  and  N_28
REMARK    7  A    between atoms: C_29  and  C_30
REMARK                            x       y       z     vdW  Elec       q    Type
REMARK                         _______ _______ _______ _____ _____    ______ ____
ROOT
ATOM      1  C   UNL     1      -0.538   1.914   3.615  0.00  0.00    +0.063 A 
ATOM      2  C   UNL     1      -0.190   3.146   4.091  0.00  0.00    +0.170 A 
ATOM      3  N   UNL     1      -0.954   3.421   5.162  0.00  0.00    -0.124 NA
ATOM      4  N   UNL     1      -1.750   2.434   5.389  0.00  0.00    -0.058 NA
ATOM      5  N   UNL     1      -1.518   1.447   4.421  0.00  0.00    -0.194 N 
ATOM      6  C   UNL     1      -2.173   0.216   4.310  0.00  0.00    +0.240 A 
ATOM      7  C   UNL     1      -3.230  -0.276   5.199  0.00  0.00    +0.206 A 
ATOM      8  N   UNL     1      -3.599  -1.456   4.783  0.00  0.00    -0.032 NA
ATOM      9  O   UNL     1      -2.817  -1.780   3.647  0.00  0.00    -0.239 OA
ATOM     10  N   UNL     1      -1.944  -0.691   3.404  0.00  0.00    -0.027 NA
ATOM     11  N   UNL     1      -3.752   0.401   6.295  0.00  0.00    -0.337 N 
ATOM     12  H   UNL     1      -3.415   1.280   6.528  0.00  0.00    +0.144 HD
ATOM     13  H   UNL     1      -4.454  -0.006   6.827  0.00  0.00    +0.144 HD
ENDROOT
BRANCH   2  14
ATOM     14  C   UNL     1       0.847   4.028   3.523  0.00  0.00    +0.285 C 
ATOM     15  O   UNL     1       1.477   3.674   2.545  0.00  0.00    -0.267 OA
ATOM     16  N   UNL     1       1.097   5.226   4.088  0.00  0.00    -0.202 N 
ATOM     17  H   UNL     1       0.594   5.508   4.869  0.00  0.00    +0.178 HD
BRANCH  16  18
ATOM     18  N   UNL     1       2.082   6.064   3.549  0.00  0.00    -0.192 NA
ATOM     19  C   UNL     1       2.318   7.201   4.086  0.00  0.00    +0.107 C 
BRANCH  19  20
ATOM     20  C   UNL     1       3.378   8.102   3.506  0.00  0.00    +0.036 C 
ATOM     21  C   UNL     1       2.745   9.431   3.075  0.00  0.00    +0.013 C 
ATOM     22  C   UNL     1       3.801  10.252   2.331  0.00  0.00    +0.027 C 
ATOM     23  C   UNL     1       5.072  10.301   3.126  0.00  0.00    -0.031 C 
ATOM     24  C   UNL     1       5.353   9.490   4.096  0.00  0.00    -0.030 C 
ATOM     25  C   UNL     1       4.442   8.394   4.566  0.00  0.00    +0.036 C 
ENDBRANCH  19  20
ENDBRANCH  16  18
ENDBRANCH   2  14
BRANCH   1  26
ATOM     26  C   UNL     1       0.059   1.209   2.425  0.00  0.00    -0.020 C 
BRANCH  26  32
ATOM     27  C   UNL     1      -2.194   1.077  -1.207  0.00  0.00    -0.010 C 
ATOM     28  C   UNL     1      -0.752   1.593  -1.232  0.00  0.00    -0.015 C 
ATOM     29  C   UNL     1      -0.013   1.086   0.008  0.00  0.00    -0.078 C 
ATOM     30  C   UNL     1      -2.071   1.038   1.287  0.00  0.00    -0.078 C 
ATOM     31  C   UNL     1      -2.872   1.544   0.085  0.00  0.00    -0.015 C 
ATOM     32  N   UNL     1      -0.701   1.589   1.216  0.00  0.00    +0.383 N 
ATOM     33  H   UNL     1      -0.755   2.613   1.165  0.00  0.00    -0.081 HD
BRANCH  27  34
ATOM     34  C   UNL     1      -2.956   1.629  -2.413  0.00  0.00    +0.038 C 
BRANCH  34  38
ATOM     35  C   UNL     1      -6.868  -0.083  -2.533  0.00  0.00    +0.000 A 
ATOM     36  C   UNL     1      -6.649   1.094  -1.841  0.00  0.00    +0.000 A 
ATOM     37  C   UNL     1      -5.383   1.648  -1.802  0.00  0.00    +0.003 A 
ATOM     38  C   UNL     1      -4.336   1.025  -2.455  0.00  0.00    -0.047 A 
ATOM     39  C   UNL     1      -4.556  -0.148  -3.152  0.00  0.00    +0.003 A 
ATOM     40  C   UNL     1      -5.821  -0.705  -3.187  0.00  0.00    +0.000 A 
ENDBRANCH  34  38
ENDBRANCH  27  34
ENDBRANCH  26  32
ENDBRANCH   1  26
TORSDOF 7
