REMARK  Name = ZINC13408090
REMARK  14 active torsions:
REMARK  status: ('A' for Active; 'I' for Inactive)
REMARK    1  A    between atoms: C_1  and  C_2
REMARK    2  A    between atoms: C_2  and  O_3
REMARK    3  A    between atoms: O_3  and  C_4
REMARK    4  A    between atoms: C_4  and  C_6
REMARK    5  A    between atoms: C_8  and  C_29
REMARK    6  A    between atoms: C_9  and  C_24
REMARK    7  A    between atoms: C_11  and  C_19
REMARK    8  A    between atoms: C_11  and  O_23
REMARK    9  A    between atoms: C_13  and  C_14
REMARK   10  A    between atoms: C_13  and  O_18
REMARK   11  A    between atoms: C_24  and  O_26
REMARK   12  A    between atoms: O_26  and  C_27
REMARK   13  A    between atoms: C_27  and  C_28
REMARK   14  A    between atoms: C_34  and  O_35
REMARK                            x       y       z     vdW  Elec       q    Type
REMARK                         _______ _______ _______ _____ _____    ______ ____
ROOT
ATOM      1  C   UNL     1      -2.637  -2.595  -0.239  0.00  0.00    +0.162 C 
ATOM      2  C   UNL     1      -2.803  -4.117  -0.217  0.00  0.00    +0.059 C 
ATOM      3  C   UNL     1      -4.256  -4.459   0.124  0.00  0.00    +0.162 C 
ATOM      4  C   UNL     1      -4.620  -3.832   1.471  0.00  0.00    +0.230 C 
ATOM      5  N   UNL     1      -4.445  -2.375   1.399  0.00  0.00    -0.245 NA
ATOM      6  C   UNL     1      -3.048  -2.021   1.119  0.00  0.00    +0.230 C 
ATOM      7  H   UNL     1      -5.064  -1.971   0.712  0.00  0.00    +0.128 HD
ENDROOT
BRANCH   2   8
ATOM      8  C   UNL     1      -2.457  -4.681  -1.571  0.00  0.00    -0.001 A 
ATOM      9  C   UNL     1      -3.070  -4.183  -2.704  0.00  0.00    +0.007 A 
ATOM     10  C   UNL     1      -2.753  -4.700  -3.947  0.00  0.00    +0.001 A 
ATOM     11  C   UNL     1      -1.823  -5.717  -4.058  0.00  0.00    +0.004 A 
ATOM     12  C   UNL     1      -1.207  -6.218  -2.928  0.00  0.00    +0.046 A 
ATOM     13  C   UNL     1      -1.519  -5.697  -1.680  0.00  0.00    +0.120 A 
BRANCH  13  14
ATOM     14  O   UNL     1      -0.910  -6.184  -0.567  0.00  0.00    -0.506 OA
ATOM     15  H   UNL     1      -1.375  -6.927  -0.158  0.00  0.00    +0.292 HD
ENDBRANCH  13  14
ENDBRANCH   2   8
BRANCH   6  16
ATOM     16  C   UNL     1      -2.902  -0.498   1.094  0.00  0.00    +0.433 C 
ATOM     17  F   UNL     1      -3.626   0.022   0.015  0.00  0.00    -0.166 F 
ATOM     18  F   UNL     1      -3.396   0.037   2.288  0.00  0.00    -0.166 F 
ATOM     19  F   UNL     1      -1.552  -0.161   0.955  0.00  0.00    -0.166 F 
ENDBRANCH   6  16
BRANCH   4  20
ATOM     20  C   UNL     1      -6.078  -4.154   1.806  0.00  0.00    +0.433 C 
ATOM     21  F   UNL     1      -6.274  -5.538   1.752  0.00  0.00    -0.166 F 
ATOM     22  F   UNL     1      -6.374  -3.691   3.093  0.00  0.00    -0.166 F 
ATOM     23  F   UNL     1      -6.919  -3.527   0.880  0.00  0.00    -0.166 F 
ENDBRANCH   4  20
BRANCH   1  24
ATOM     24  C   UNL     1      -1.196  -2.250  -0.515  0.00  0.00    +0.315 C 
ATOM     25  O   UNL     1      -0.311  -2.888   0.006  0.00  0.00    -0.250 OA
BRANCH  24  26
ATOM     26  O   UNL     1      -0.895  -1.235  -1.341  0.00  0.00    -0.465 OA
BRANCH  26  28
ATOM     27  C   UNL     1       0.636   0.217  -2.518  0.00  0.00    +0.048 C 
ATOM     28  C   UNL     1       0.491  -0.965  -1.557  0.00  0.00    +0.229 C 
ENDBRANCH  26  28
ENDBRANCH  24  26
ENDBRANCH   1  24
BRANCH   6  29
ATOM     29  O   UNL     1      -2.207  -2.563   2.139  0.00  0.00    -0.366 OA
ATOM     30  H   UNL     1      -2.411  -2.242   3.028  0.00  0.00    +0.212 HD
ENDBRANCH   6  29
BRANCH   4  31
ATOM     31  O   UNL     1      -3.769  -4.363   2.489  0.00  0.00    -0.366 OA
ATOM     32  H   UNL     1      -3.944  -4.009   3.372  0.00  0.00    +0.212 HD
ENDBRANCH   4  31
BRANCH   3  33
ATOM     33  C   UNL     1      -5.166  -3.914  -0.948  0.00  0.00    +0.315 C 
ATOM     34  O   UNL     1      -5.245  -2.721  -1.124  0.00  0.00    -0.250 OA
BRANCH  33  35
ATOM     35  O   UNL     1      -5.888  -4.754  -1.706  0.00  0.00    -0.465 OA
BRANCH  35  36
ATOM     36  C   UNL     1      -6.728  -4.168  -2.702  0.00  0.00    +0.229 C 
ATOM     37  C   UNL     1      -7.467  -5.273  -3.460  0.00  0.00    +0.048 C 
ENDBRANCH  35  36
ENDBRANCH  33  35
ENDBRANCH   3  33
TORSDOF 12
