REMARK  Name = ZINC49525233
REMARK  4 active torsions:
REMARK  status: ('A' for Active; 'I' for Inactive)
REMARK    1  A    between atoms: C_1  and  C_2
REMARK    2  A    between atoms: C_2  and  C_4
REMARK    3  A    between atoms: C_2  and  N_11
REMARK    4  A    between atoms: N_11  and  C_12
REMARK                            x       y       z     vdW  Elec       q    Type
REMARK                         _______ _______ _______ _____ _____    ______ ____
ROOT
ATOM      1  N   UNL     1       0.688  -0.476  -1.203  0.00  0.00    -0.333 N 
ATOM      2  H   UNL     1       0.175  -0.710  -1.993  0.00  0.00    +0.147 HD
ENDROOT
BRANCH   1   3
ATOM      3  C   UNL     1       2.093  -0.592  -1.216  0.00  0.00    +0.087 A 
ATOM      4  C   UNL     1       2.926  -0.307  -0.185  0.00  0.00    +0.129 A 
ATOM      5  N   UNL     1       4.198  -0.550  -0.604  0.00  0.00    -0.281 N 
ATOM      6  H   UNL     1       5.004  -0.435  -0.077  0.00  0.00    +0.188 HD
ATOM      7  N   UNL     1       4.138  -0.998  -1.930  0.00  0.00    -0.157 NA
ATOM      8  C   UNL     1       2.879  -1.030  -2.298  0.00  0.00    +0.159 A 
ATOM      9  N   UNL     1       2.401  -1.427  -3.553  0.00  0.00    -0.340 N 
ATOM     10  H   UNL     1       1.448  -1.415  -3.735  0.00  0.00    +0.144 HD
ATOM     11  H   UNL     1       3.022  -1.715  -4.240  0.00  0.00    +0.144 HD
ENDBRANCH   1   3
BRANCH   1  13
ATOM     12  C   UNL     1      -0.019   1.526   0.010  0.00  0.00    +0.033 C 
ATOM     13  C   UNL     1       0.002  -0.004   0.002  0.00  0.00    +0.098 C 
BRANCH  13  14
ATOM     14  C   UNL     1      -1.412  -0.526   0.013  0.00  0.00    -0.028 A 
ATOM     15  C   UNL     1      -2.141  -0.569  -1.161  0.00  0.00    +0.006 A 
ATOM     16  C   UNL     1      -3.438  -1.048  -1.151  0.00  0.00    +0.015 A 
ATOM     17  C   UNL     1      -4.005  -1.484   0.032  0.00  0.00    +0.018 A 
ATOM     18  C   UNL     1      -3.275  -1.440   1.206  0.00  0.00    +0.015 A 
ATOM     19  C   UNL     1      -1.977  -0.966   1.195  0.00  0.00    +0.006 A 
ATOM     20 BR   UNL     1      -5.779  -2.138   0.046  0.00  0.00    -0.050 Br
ENDBRANCH  13  14
ENDBRANCH   1  13
TORSDOF 3
