REMARK  Name = ZINC39710609
REMARK  12 active torsions:
REMARK  status: ('A' for Active; 'I' for Inactive)
REMARK    1  A    between atoms: C_1  and  C_2
REMARK    2  A    between atoms: C_7  and  C_14
REMARK    3  A    between atoms: C_14  and  C_16
REMARK    4  A    between atoms: C_14  and  N_25
REMARK    5  A    between atoms: N_20  and  C_21
REMARK    6  A    between atoms: C_21  and  C_22
REMARK    7  A    between atoms: C_22  and  O_23
REMARK    8  A    between atoms: O_23  and  C_24
REMARK    9  A    between atoms: N_25  and  C_26
REMARK   10  A    between atoms: N_25  and  C_33
REMARK   11  A    between atoms: C_26  and  C_27
REMARK   12  A    between atoms: C_33  and  C_34
REMARK                            x       y       z     vdW  Elec       q    Type
REMARK                         _______ _______ _______ _____ _____    ______ ____
ROOT
ATOM      1  C   UNL     1       1.552  -5.893   1.265  0.00  0.00    +0.019 C 
ENDROOT
BRANCH   1   8
ATOM      2  C   UNL     1      -4.239  -6.800  -3.410  0.00  0.00    +0.044 C 
ATOM      3  C   UNL     1      -3.341  -6.606  -2.215  0.00  0.00    -0.049 A 
ATOM      4  C   UNL     1      -3.608  -7.329  -1.052  0.00  0.00    +0.004 A 
ATOM      5  C   UNL     1      -2.834  -7.196   0.056  0.00  0.00    +0.010 A 
ATOM      6  C   UNL     1      -1.700  -6.273   0.019  0.00  0.00    -0.007 A 
ATOM      7  C   UNL     1      -0.896  -6.108   1.107  0.00  0.00    -0.006 C 
ATOM      8  C   UNL     1       0.257  -5.131   0.978  0.00  0.00    +0.092 C 
ATOM      9  C   UNL     1       0.420  -4.420  -0.346  0.00  0.00    +0.223 C 
ATOM     10  O   UNL     1       1.328  -3.626  -0.504  0.00  0.00    -0.275 OA
ATOM     11  N   UNL     1      -0.427  -4.665  -1.331  0.00  0.00    -0.285 N 
ATOM     12  C   UNL     1      -1.441  -5.523  -1.223  0.00  0.00    +0.041 A 
ATOM     13  C   UNL     1      -2.301  -5.737  -2.316  0.00  0.00    +0.027 A 
ATOM     14  H   UNL     1      -0.304  -4.199  -2.173  0.00  0.00    +0.155 HD
ENDBRANCH   1   8
BRANCH   1  15
ATOM     15  C   UNL     1       1.677  -7.049   0.306  0.00  0.00    +0.139 A 
ATOM     16  N   UNL     1       1.005  -8.174   0.345  0.00  0.00    -0.115 NA
ATOM     17  N   UNL     1       1.395  -8.905  -0.642  0.00  0.00    -0.023 NA
ATOM     18  N   UNL     1       2.298  -8.275  -1.310  0.00  0.00    -0.044 NA
ATOM     19  N   UNL     1       2.495  -7.125  -0.759  0.00  0.00    -0.229 N 
BRANCH  19  20
ATOM     20  C   UNL     1       3.437  -6.096  -1.208  0.00  0.00    +0.175 C 
BRANCH  20  21
ATOM     21  C   UNL     1       4.793  -6.316  -0.534  0.00  0.00    +0.183 C 
BRANCH  21  22
ATOM     22  O   UNL     1       5.711  -5.312  -0.972  0.00  0.00    -0.381 OA
ATOM     23  C   UNL     1       7.014  -5.427  -0.398  0.00  0.00    +0.194 C 
ENDBRANCH  21  22
ENDBRANCH  20  21
ENDBRANCH  19  20
ENDBRANCH   1  15
BRANCH   1  24
ATOM     24  N   UNL     1       1.527  -6.400   2.643  0.00  0.00    +0.392 N 
ATOM     25  H   UNL     1       0.696  -6.955   2.783  0.00  0.00    -0.080 HD
BRANCH  24  26
ATOM     26  C   UNL     1       2.716  -7.231   2.881  0.00  0.00    -0.042 C 
BRANCH  26  27
ATOM     27  C   UNL     1       2.558  -7.973   4.183  0.00  0.00    -0.064 A 
ATOM     28  C   UNL     1       2.886  -7.354   5.375  0.00  0.00    +0.002 A 
ATOM     29  C   UNL     1       2.742  -8.035   6.569  0.00  0.00    +0.000 A 
ATOM     30  C   UNL     1       2.268  -9.334   6.572  0.00  0.00    +0.000 A 
ATOM     31  C   UNL     1       1.938  -9.951   5.380  0.00  0.00    +0.000 A 
ATOM     32  C   UNL     1       2.079  -9.269   4.186  0.00  0.00    +0.002 A 
ENDBRANCH  26  27
ENDBRANCH  24  26
BRANCH  24  33
ATOM     33  C   UNL     1       1.525  -5.269   3.581  0.00  0.00    -0.042 C 
BRANCH  33  34
ATOM     34  C   UNL     1       2.650  -4.328   3.235  0.00  0.00    -0.064 A 
ATOM     35  C   UNL     1       3.925  -4.571   3.711  0.00  0.00    +0.003 A 
ATOM     36  C   UNL     1       4.957  -3.708   3.394  0.00  0.00    +0.020 A 
ATOM     37  C   UNL     1       4.713  -2.600   2.601  0.00  0.00    +0.041 A 
ATOM     38  C   UNL     1       3.437  -2.357   2.126  0.00  0.00    +0.020 A 
ATOM     39  C   UNL     1       2.407  -3.224   2.438  0.00  0.00    +0.003 A 
ATOM     40 CL   UNL     1       6.009  -1.515   2.204  0.00  0.00    -0.084 Cl
ENDBRANCH  33  34
ENDBRANCH  24  33
ENDBRANCH   1  24
TORSDOF 10
