REMARK  Name = ZINC34797553
REMARK  2 active torsions:
REMARK  status: ('A' for Active; 'I' for Inactive)
REMARK    1  A    between atoms: C_17  and  C_19
REMARK    2  A    between atoms: C_22  and  N_25
REMARK                            x       y       z     vdW  Elec       q    Type
REMARK                         _______ _______ _______ _____ _____    ______ ____
ROOT
ATOM      1  C   UNL     1      -0.017   1.372   0.010  0.00  0.00    +0.001 A 
ATOM      2  C   UNL     1       1.169   2.095   0.002  0.00  0.00    +0.001 A 
ATOM      3  C   UNL     1       2.376   1.457  -0.013  0.00  0.00    +0.010 A 
ATOM      4  C   UNL     1       2.427   0.057  -0.021  0.00  0.00    +0.008 A 
ATOM      5  C   UNL     1       1.224  -0.680  -0.013  0.00  0.00    -0.008 A 
ATOM      6  C   UNL     1       0.002  -0.004   0.002  0.00  0.00    +0.009 A 
ATOM      7  C   UNL     1       1.271  -2.149  -0.022  0.00  0.00    -0.008 A 
ATOM      8  C   UNL     1       0.093  -2.901  -0.015  0.00  0.00    +0.009 A 
ATOM      9  C   UNL     1       0.159  -4.266  -0.024  0.00  0.00    +0.001 A 
ATOM     10  C   UNL     1       1.386  -4.916  -0.040  0.00  0.00    +0.001 A 
ATOM     11  C   UNL     1       2.552  -4.206  -0.047  0.00  0.00    +0.011 A 
ATOM     12  C   UNL     1       2.516  -2.808  -0.038  0.00  0.00    +0.010 A 
ATOM     13  C   UNL     1       3.761  -2.028  -0.046  0.00  0.00    +0.098 A 
ATOM     14  C   UNL     1       3.711  -0.639  -0.038  0.00  0.00    +0.075 A 
ATOM     15  N   UNL     1       5.017  -0.202  -0.048  0.00  0.00    -0.337 N 
ATOM     16  H   UNL     1       5.316   0.721  -0.045  0.00  0.00    +0.167 HD
ATOM     17  C   UNL     1       5.813  -1.313  -0.062  0.00  0.00    +0.139 A 
ATOM     18  N   UNL     1       5.058  -2.387  -0.062  0.00  0.00    -0.227 NA
ENDROOT
BRANCH  17  19
ATOM     19  C   UNL     1       7.290  -1.306  -0.076  0.00  0.00    +0.017 A 
ATOM     20  C   UNL     1       7.984  -0.094  -0.070  0.00  0.00    +0.013 A 
ATOM     21  C   UNL     1       9.362  -0.091  -0.084  0.00  0.00    +0.023 A 
ATOM     22  C   UNL     1      10.061  -1.293  -0.103  0.00  0.00    +0.025 A 
ATOM     23  C   UNL     1       9.373  -2.502  -0.109  0.00  0.00    +0.023 A 
ATOM     24  C   UNL     1       7.995  -2.511  -0.090  0.00  0.00    +0.013 A 
BRANCH  22  25
ATOM     25  N   UNL     1      11.455  -1.287  -0.116  0.00  0.00    -0.358 N 
ATOM     26  H   UNL     1      11.937  -0.445  -0.112  0.00  0.00    +0.142 HD
ATOM     27  H   UNL     1      11.944  -2.125  -0.130  0.00  0.00    +0.142 HD
ENDBRANCH  22  25
ENDBRANCH  17  19
TORSDOF 2
