REMARK  Name = ZINC54642675
REMARK  12 active torsions:
REMARK  status: ('A' for Active; 'I' for Inactive)
REMARK    1  A    between atoms: C_1  and  C_2
REMARK    2  A    between atoms: C_2  and  C_3
REMARK    3  A    between atoms: C_3  and  C_4
REMARK    4  A    between atoms: C_4  and  O_5
REMARK    5  A    between atoms: O_5  and  C_6
REMARK    6  A    between atoms: C_6  and  C_8
REMARK    7  A    between atoms: C_9  and  C_33
REMARK    8  A    between atoms: C_13  and  S_25
REMARK    9  A    between atoms: C_16  and  C_18
REMARK   10  A    between atoms: C_21  and  O_24
REMARK   11  A    between atoms: S_25  and  C_26
REMARK   12  A    between atoms: C_26  and  C_27
REMARK                            x       y       z     vdW  Elec       q    Type
REMARK                         _______ _______ _______ _____ _____    ______ ____
ROOT
ATOM      1  C   UNL     1      -4.213  -4.488   0.225  0.00  0.00    +0.082 C 
ATOM      2  C   UNL     1      -4.334  -5.788  -0.085  0.00  0.00    +0.020 C 
ATOM      3  N   UNL     1      -5.554  -6.377  -0.307  0.00  0.00    -0.287 N 
ATOM      4  C   UNL     1      -6.650  -5.539  -0.460  0.00  0.00    +0.219 A 
ATOM      5  N   UNL     1      -7.854  -5.801  -0.889  0.00  0.00    -0.187 NA
ATOM      6  C   UNL     1      -8.589  -4.679  -0.876  0.00  0.00    +0.211 A 
ATOM      7  N   UNL     1      -7.848  -3.687  -0.432  0.00  0.00    -0.141 NA
ATOM      8  N   UNL     1      -6.590  -4.220  -0.153  0.00  0.00    -0.220 N 
ATOM      9  C   UNL     1      -5.394  -3.566   0.376  0.00  0.00    +0.179 C 
ATOM     10  C   UNL     1      -3.089  -6.630  -0.194  0.00  0.00    +0.061 C 
ATOM     11  H   UNL     1      -5.647  -7.341  -0.354  0.00  0.00    +0.155 HD
ENDROOT
BRANCH   9  12
ATOM     12  C   UNL     1      -5.596  -3.242   1.834  0.00  0.00    -0.018 A 
ATOM     13  C   UNL     1      -5.841  -4.258   2.739  0.00  0.00    +0.009 A 
ATOM     14  C   UNL     1      -6.027  -3.964   4.076  0.00  0.00    +0.046 A 
ATOM     15  C   UNL     1      -5.967  -2.647   4.510  0.00  0.00    +0.117 A 
ATOM     16  C   UNL     1      -5.720  -1.630   3.599  0.00  0.00    +0.046 A 
ATOM     17  C   UNL     1      -5.530  -1.930   2.265  0.00  0.00    +0.009 A 
BRANCH  15  18
ATOM     18  O   UNL     1      -6.150  -2.355   5.824  0.00  0.00    -0.507 OA
ATOM     19  H   UNL     1      -5.335  -2.356   6.345  0.00  0.00    +0.292 HD
ENDBRANCH  15  18
ENDBRANCH   9  12
BRANCH   1  20
ATOM     20  C   UNL     1      -2.918  -3.962   0.426  0.00  0.00    +0.339 C 
ATOM     21  O   UNL     1      -2.414  -3.247  -0.421  0.00  0.00    -0.245 OA
BRANCH  20  22
ATOM     22  O   UNL     1      -2.239  -4.251   1.556  0.00  0.00    -0.461 OA
BRANCH  22  23
ATOM     23  C   UNL     1      -0.935  -3.684   1.692  0.00  0.00    +0.232 C 
BRANCH  23  24
ATOM     24  C   UNL     1      -0.326  -4.120   3.027  0.00  0.00    +0.041 C 
BRANCH  24  26
ATOM     25  C   UNL     1       1.679  -3.949   4.507  0.00  0.00    +0.004 C 
ATOM     26  C   UNL     1       1.071  -3.513   3.173  0.00  0.00    -0.000 C 
ENDBRANCH  24  26
ENDBRANCH  23  24
ENDBRANCH  22  23
ENDBRANCH  20  22
ENDBRANCH   1  20
BRANCH   6  27
ATOM     27  S   UNL     1     -10.274  -4.553  -1.374  0.00  0.00    -0.080 S 
BRANCH  27  28
ATOM     28  C   UNL     1     -10.711  -6.242  -1.874  0.00  0.00    +0.112 C 
BRANCH  28  29
ATOM     29  C   UNL     1     -12.147  -6.275  -2.329  0.00  0.00    -0.037 A 
ATOM     30  C   UNL     1     -13.155  -6.526  -1.417  0.00  0.00    +0.004 A 
ATOM     31  C   UNL     1     -14.473  -6.557  -1.834  0.00  0.00    +0.000 A 
ATOM     32  C   UNL     1     -14.783  -6.336  -3.163  0.00  0.00    +0.000 A 
ATOM     33  C   UNL     1     -13.775  -6.084  -4.075  0.00  0.00    +0.000 A 
ATOM     34  C   UNL     1     -12.457  -6.049  -3.657  0.00  0.00    +0.004 A 
ENDBRANCH  28  29
ENDBRANCH  27  28
ENDBRANCH   6  27
TORSDOF 10
