REMARK  Name = ZINC65425885
REMARK  5 active torsions:
REMARK  status: ('A' for Active; 'I' for Inactive)
REMARK    1  A    between atoms: C_7  and  C_10
REMARK    2  A    between atoms: C_10  and  C_11
REMARK    3  A    between atoms: C_11  and  C_12
REMARK    4  A    between atoms: C_17  and  C_23
REMARK    5  A    between atoms: C_19  and  O_22
REMARK                            x       y       z     vdW  Elec       q    Type
REMARK                         _______ _______ _______ _____ _____    ______ ____
ROOT
ATOM      1  C   UNL     1      -0.484  -4.830  -1.460  0.00  0.00    +0.216 C 
ATOM      2  O   UNL     1      -0.925  -5.254  -0.412  0.00  0.00    -0.276 OA
ATOM      3  N   UNL     1      -0.837  -5.413  -2.623  0.00  0.00    -0.299 N 
ATOM      4  C   UNL     1      -0.307  -4.916  -3.900  0.00  0.00    +0.108 C 
ATOM      5  C   UNL     1       0.331  -6.084  -4.658  0.00  0.00    +0.030 C 
ATOM      6  C   UNL     1      -0.690  -7.215  -4.799  0.00  0.00    +0.051 C 
ATOM      7  C   UNL     1      -1.103  -7.707  -3.410  0.00  0.00    +0.139 C 
ATOM      8  C   UNL     1      -1.753  -6.561  -2.638  0.00  0.00    +0.139 C 
ENDROOT
BRANCH   6   9
ATOM      9  C   UNL     1      -0.076  -8.353  -5.573  0.00  0.00    -0.038 A 
ATOM     10  C   UNL     1       1.053  -8.986  -5.088  0.00  0.00    +0.008 A 
ATOM     11  C   UNL     1       1.620 -10.031  -5.795  0.00  0.00    +0.050 A 
ATOM     12  C   UNL     1       1.057 -10.445  -6.991  0.00  0.00    +0.166 A 
ATOM     13  C   UNL     1      -0.081  -9.807  -7.479  0.00  0.00    +0.166 A 
ATOM     14  C   UNL     1      -0.647  -8.764  -6.763  0.00  0.00    +0.053 A 
ATOM     15  O   UNL     1      -0.437 -10.392  -8.659  0.00  0.00    -0.453 OA
ATOM     16  C   UNL     1       0.726 -11.123  -9.093  0.00  0.00    +0.466 C 
ATOM     17  O   UNL     1       1.413 -11.431  -7.865  0.00  0.00    -0.453 OA
ENDBRANCH   6   9
BRANCH   7  18
ATOM     18  O   UNL     1      -2.033  -8.784  -3.543  0.00  0.00    -0.390 OA
ATOM     19  H   UNL     1      -2.339  -9.147  -2.700  0.00  0.00    +0.210 HD
ENDBRANCH   7  18
BRANCH   1  20
ATOM     20  C   UNL     1       0.457  -3.653  -1.462  0.00  0.00    +0.100 C 
BRANCH  20  21
ATOM     21  C   UNL     1       0.691  -3.186  -0.024  0.00  0.00    +0.042 C 
BRANCH  21  28
ATOM     22  C   UNL     1      -0.016   1.348   0.009  0.00  0.00    +0.001 A 
ATOM     23  C   UNL     1       1.166   2.101   0.002  0.00  0.00    +0.002 A 
ATOM     24  C   UNL     1       2.391   1.535  -0.013  0.00  0.00    +0.026 A 
ATOM     25  C   UNL     1       2.529   0.120  -0.022  0.00  0.00    +0.043 A 
ATOM     26  N   UNL     1       3.587  -0.654  -0.037  0.00  0.00    -0.380 N 
ATOM     27  C   UNL     1       3.143  -2.053  -0.041  0.00  0.00    +0.144 C 
ATOM     28  C   UNL     1       1.631  -2.008  -0.025  0.00  0.00    -0.041 C 
ATOM     29  C   UNL     1       1.295  -0.698  -0.014  0.00  0.00    -0.001 A 
ATOM     30  C   UNL     1       0.002  -0.004   0.002  0.00  0.00    +0.010 A 
ATOM     31  H   UNL     1       4.509  -0.353  -0.045  0.00  0.00    +0.160 HD
ENDBRANCH  21  28
ENDBRANCH  20  21
ENDBRANCH   1  20
TORSDOF 5
