REMARK  Name = ZINC01305138
REMARK  19 active torsions:
REMARK  status: ('A' for Active; 'I' for Inactive)
REMARK    1  A    between atoms: C_1  and  C_2
REMARK    2  A    between atoms: C_2  and  N_69
REMARK    3  A    between atoms: C_3  and  C_4
REMARK    4  A    between atoms: C_3  and  N_69
REMARK    5  A    between atoms: C_5  and  C_6
REMARK    6  A    between atoms: C_5  and  N_69
REMARK    7  A    between atoms: N_10  and  C_11
REMARK    8  A    between atoms: N_14  and  C_19
REMARK    9  A    between atoms: N_17  and  C_18
REMARK   10  A    between atoms: C_19  and  C_20
REMARK   11  A    between atoms: C_20  and  O_21
REMARK   12  A    between atoms: O_21  and  C_22
REMARK   13  A    between atoms: C_22  and  C_24
REMARK   14  A    between atoms: C_26  and  O_34
REMARK   15  A    between atoms: C_27  and  O_32
REMARK   16  A    between atoms: C_28  and  O_30
REMARK   17  A    between atoms: O_30  and  C_31
REMARK   18  A    between atoms: O_32  and  C_33
REMARK   19  A    between atoms: O_34  and  C_35
REMARK                            x       y       z     vdW  Elec       q    Type
REMARK                         _______ _______ _______ _____ _____    ______ ____
ROOT
ATOM      1  C   UNL     1      -4.937   4.169  -4.951  0.00  0.00    +0.096 A 
ATOM      2  N   UNL     1      -4.438   5.116  -4.197  0.00  0.00    -0.216 NA
ATOM      3  C   UNL     1      -4.525   4.765  -2.912  0.00  0.00    +0.168 A 
ATOM      4  C   UNL     1      -5.120   3.510  -2.868  0.00  0.00    +0.151 A 
ATOM      5  N   UNL     1      -5.371   3.155  -4.178  0.00  0.00    -0.327 N 
ATOM      6  C   UNL     1      -5.992   1.911  -4.640  0.00  0.00    +0.151 C 
ATOM      7  C   UNL     1      -5.334   2.894  -1.615  0.00  0.00    +0.283 A 
ATOM      8  O   UNL     1      -5.854   1.795  -1.550  0.00  0.00    -0.265 OA
ATOM      9  N   UNL     1      -4.956   3.538  -0.491  0.00  0.00    -0.256 N 
ATOM     10  C   UNL     1      -4.386   4.755  -0.549  0.00  0.00    +0.333 A 
ATOM     11  O   UNL     1      -4.064   5.307   0.485  0.00  0.00    -0.246 OA
ATOM     12  N   UNL     1      -4.160   5.374  -1.723  0.00  0.00    -0.280 N 
ATOM     13  C   UNL     1      -3.531   6.697  -1.742  0.00  0.00    +0.155 C 
ENDROOT
BRANCH   1  14
ATOM     14  C   UNL     1      -5.012   4.207  -6.455  0.00  0.00    -0.003 C 
BRANCH  14  15
ATOM     15  N   UNL     1      -6.288   4.838  -6.853  0.00  0.00    +0.384 N 
ATOM     16  H   UNL     1      -6.383   5.736  -6.363  0.00  0.00    -0.081 HD
BRANCH  15  18
ATOM     17  C   UNL     1      -5.444   6.320  -8.604  0.00  0.00    -0.017 C 
ATOM     18  C   UNL     1      -6.297   5.085  -8.310  0.00  0.00    -0.082 C 
ENDBRANCH  15  18
BRANCH  15  19
ATOM     19  C   UNL     1      -7.421   3.966  -6.481  0.00  0.00    -0.082 C 
ATOM     20  C   UNL     1      -8.719   4.767  -6.600  0.00  0.00    -0.017 C 
ENDBRANCH  15  19
ENDBRANCH  14  15
ENDBRANCH   1  14
BRANCH   9  21
ATOM     21  C   UNL     1      -5.176   2.906   0.811  0.00  0.00    +0.171 C 
BRANCH  21  22
ATOM     22  C   UNL     1      -3.953   2.065   1.183  0.00  0.00    +0.254 C 
BRANCH  22  23
ATOM     23  O   UNL     1      -2.806   2.936   1.368  0.00  0.00    -0.459 OA
BRANCH  23  24
ATOM     24  C   UNL     1      -1.639   2.349   1.701  0.00  0.00    +0.339 C 
ATOM     25  O   UNL     1      -1.583   1.143   1.834  0.00  0.00    -0.245 OA
BRANCH  24  26
ATOM     26  C   UNL     1      -0.430   3.171   1.899  0.00  0.00    +0.066 A 
ATOM     27  C   UNL     1      -0.493   4.558   1.741  0.00  0.00    +0.064 A 
ATOM     28  C   UNL     1       0.640   5.326   1.932  0.00  0.00    +0.166 A 
ATOM     29  C   UNL     1       1.846   4.717   2.271  0.00  0.00    +0.204 A 
ATOM     30  C   UNL     1       1.912   3.335   2.424  0.00  0.00    +0.166 A 
ATOM     31  C   UNL     1       0.781   2.563   2.239  0.00  0.00    +0.064 A 
BRANCH  30  32
ATOM     32  O   UNL     1       3.092   2.744   2.754  0.00  0.00    -0.491 OA
ATOM     33  C   UNL     1       3.088   1.322   2.894  0.00  0.00    +0.277 C 
ENDBRANCH  30  32
BRANCH  29  34
ATOM     34  O   UNL     1       2.960   5.474   2.453  0.00  0.00    -0.488 OA
ATOM     35  C   UNL     1       3.777   5.713   1.305  0.00  0.00    +0.277 C 
ENDBRANCH  29  34
BRANCH  28  36
ATOM     36  O   UNL     1       0.579   6.676   1.784  0.00  0.00    -0.491 OA
ATOM     37  C   UNL     1      -0.690   7.234   1.435  0.00  0.00    +0.277 C 
ENDBRANCH  28  36
ENDBRANCH  24  26
ENDBRANCH  23  24
ENDBRANCH  22  23
ENDBRANCH  21  22
ENDBRANCH   9  21
TORSDOF 12
