REMARK  Name = ZINC66476096
REMARK  5 active torsions:
REMARK  status: ('A' for Active; 'I' for Inactive)
REMARK    1  A    between atoms: C_6  and  C_7
REMARK    2  A    between atoms: C_10  and  S_12
REMARK    3  A    between atoms: S_12  and  C_13
REMARK    4  A    between atoms: C_13  and  C_14
REMARK    5  A    between atoms: C_14  and  O_20
REMARK                            x       y       z     vdW  Elec       q    Type
REMARK                         _______ _______ _______ _____ _____    ______ ____
ROOT
ATOM      1  C   UNL     1      -1.265  -0.763   0.011  0.00  0.00    +0.249 A 
ATOM      2  N   UNL     1      -2.474  -0.256   0.019  0.00  0.00    -0.106 NA
ATOM      3  N   UNL     1      -3.338  -1.209   0.025  0.00  0.00    -0.101 NA
ATOM      4  C   UNL     1      -2.714  -2.364   0.020  0.00  0.00    +0.278 A 
ATOM      5  O   UNL     1      -1.392  -2.109   0.005  0.00  0.00    -0.411 OA
ENDROOT
BRANCH   1  11
ATOM      6  C   UNL     1      -0.017   1.392   0.010  0.00  0.00    +0.014 A 
ATOM      7  C   UNL     1       1.170   2.095   0.002  0.00  0.00    +0.016 A 
ATOM      8  C   UNL     1       2.378   1.419  -0.013  0.00  0.00    +0.018 A 
ATOM      9  C   UNL     1       2.404   0.035  -0.021  0.00  0.00    +0.016 A 
ATOM     10  C   UNL     1       1.224  -0.680  -0.014  0.00  0.00    +0.014 A 
ATOM     11  C   UNL     1       0.002  -0.004   0.002  0.00  0.00    +0.039 A 
ATOM     12 BR   UNL     1       4.000   2.390  -0.024  0.00  0.00    -0.050 Br
ENDBRANCH   1  11
BRANCH   4  13
ATOM     13  S   UNL     1      -3.469  -3.956   0.024  0.00  0.00    -0.063 S 
BRANCH  13  14
ATOM     14  C   UNL     1      -5.247  -3.599   0.036  0.00  0.00    +0.113 C 
BRANCH  14  15
ATOM     15  C   UNL     1      -6.032  -4.913   0.041  0.00  0.00    +0.075 C 
ATOM     16  C   UNL     1      -5.590  -5.774  -1.144  0.00  0.00    +0.035 C 
ATOM     17  C   UNL     1      -6.374  -7.088  -1.140  0.00  0.00    +0.003 C 
ATOM     18  C   UNL     1      -7.870  -6.790  -1.255  0.00  0.00    +0.000 C 
ATOM     19  C   UNL     1      -8.312  -5.928  -0.070  0.00  0.00    +0.003 C 
ATOM     20  C   UNL     1      -7.528  -4.614  -0.075  0.00  0.00    +0.035 C 
BRANCH  15  21
ATOM     21  O   UNL     1      -5.778  -5.614   1.260  0.00  0.00    -0.388 OA
ATOM     22  H   UNL     1      -4.848  -5.837   1.399  0.00  0.00    +0.210 HD
ENDBRANCH  15  21
ENDBRANCH  14  15
ENDBRANCH  13  14
ENDBRANCH   4  13
TORSDOF 5
