REMARK  Name = ZINC36635894
REMARK  3 active torsions:
REMARK  status: ('A' for Active; 'I' for Inactive)
REMARK    1  A    between atoms: C_6  and  N_7
REMARK    2  A    between atoms: N_7  and  C_8
REMARK    3  A    between atoms: N_13  and  C_16
REMARK                            x       y       z     vdW  Elec       q    Type
REMARK                         _______ _______ _______ _____ _____    ______ ____
ROOT
ATOM      1  C   UNL     1      -1.177  -2.185   0.002  0.00  0.00    +0.166 C 
ATOM      2  C   UNL     1      -2.493  -2.750   0.572  0.00  0.00    +0.128 C 
ATOM      3  C   UNL     1      -3.073  -3.535  -0.585  0.00  0.00    +0.229 C 
ATOM      4  O   UNL     1      -4.119  -4.147  -0.564  0.00  0.00    -0.275 OA
ATOM      5  N   UNL     1      -2.248  -3.444  -1.636  0.00  0.00    -0.207 N 
ATOM      6  C   UNL     1      -1.146  -2.709  -1.417  0.00  0.00    +0.247 C 
ATOM      7  O   UNL     1      -0.268  -2.498  -2.226  0.00  0.00    -0.273 OA
ENDROOT
BRANCH   5   8
ATOM      8  C   UNL     1      -2.512  -4.068  -2.864  0.00  0.00    +0.062 A 
ATOM      9  C   UNL     1      -3.221  -3.394  -3.849  0.00  0.00    +0.027 A 
ATOM     10  C   UNL     1      -3.479  -4.010  -5.057  0.00  0.00    +0.022 A 
ATOM     11  C   UNL     1      -3.033  -5.299  -5.288  0.00  0.00    +0.042 A 
ATOM     12  C   UNL     1      -2.326  -5.975  -4.309  0.00  0.00    +0.042 A 
ATOM     13  C   UNL     1      -2.060  -5.361  -3.099  0.00  0.00    +0.064 A 
ATOM     14 CL   UNL     1      -1.167  -6.206  -1.873  0.00  0.00    -0.082 Cl
ATOM     15 CL   UNL     1      -3.360  -6.071  -6.808  0.00  0.00    -0.083 Cl
ENDBRANCH   5   8
BRANCH   1  16
ATOM     16  N   UNL     1      -1.198  -0.720   0.010  0.00  0.00    -0.332 N 
ATOM     17  H   UNL     1      -2.045  -0.248   0.020  0.00  0.00    +0.147 HD
BRANCH  16  23
ATOM     18  C   UNL     1      -0.017   1.385   0.010  0.00  0.00    +0.024 A 
ATOM     19  C   UNL     1       1.171   2.091   0.002  0.00  0.00    +0.023 A 
ATOM     20  C   UNL     1       2.378   1.416  -0.013  0.00  0.00    +0.059 A 
ATOM     21  C   UNL     1       2.401   0.031  -0.021  0.00  0.00    +0.061 A 
ATOM     22  C   UNL     1       1.216  -0.680  -0.013  0.00  0.00    +0.044 A 
ATOM     23  C   UNL     1       0.002  -0.004   0.002  0.00  0.00    +0.029 A 
ATOM     24 CL   UNL     1       3.918  -0.812  -0.041  0.00  0.00    -0.082 Cl
ATOM     25 CL   UNL     1       3.868   2.307  -0.024  0.00  0.00    -0.082 Cl
ENDBRANCH  16  23
ENDBRANCH   1  16
TORSDOF 3
