REMARK  Name = ZINC20912204
REMARK  7 active torsions:
REMARK  status: ('A' for Active; 'I' for Inactive)
REMARK    1  A    between atoms: C_10  and  C_11
REMARK    2  A    between atoms: N_12  and  N_13
REMARK    3  A    between atoms: C_17  and  S_20
REMARK    4  A    between atoms: N_18  and  N_19
REMARK    5  A    between atoms: S_20  and  C_21
REMARK    6  A    between atoms: C_21  and  C_22
REMARK    7  A    between atoms: N_24  and  C_25
REMARK                            x       y       z     vdW  Elec       q    Type
REMARK                         _______ _______ _______ _____ _____    ______ ____
ROOT
ATOM      1  N   UNL     1       0.767   0.158   0.018  0.00  0.00    -0.204 N 
ATOM      2  C   UNL     1      -0.542  -0.301  -0.009  0.00  0.00    +0.254 A 
ATOM      3  N   UNL     1      -1.620   0.445  -0.012  0.00  0.00    -0.109 NA
ATOM      4  N   UNL     1      -2.734  -0.404  -0.045  0.00  0.00    -0.119 NA
ATOM      5  C   UNL     1      -2.300  -1.642  -0.054  0.00  0.00    +0.210 A 
ATOM      6  N   UNL     1      -0.934  -1.610  -0.032  0.00  0.00    -0.211 N 
ATOM      7  H   UNL     1       1.601  -0.559   0.023  0.00  0.00    +0.177 HD
ENDROOT
BRANCH   6   8
ATOM      8  N   UNL     1      -0.106  -2.697  -0.033  0.00  0.00    -0.294 N 
ATOM      9  H   UNL     1      -0.530  -3.712  -0.052  0.00  0.00    +0.163 HD
ATOM     10  H   UNL     1       0.985  -2.557  -0.014  0.00  0.00    +0.163 HD
ENDBRANCH   6   8
BRANCH   1  12
ATOM     11  C   UNL     1       2.254   1.964   0.066  0.00  0.00    +0.139 C 
ATOM     12  N   UNL     1       1.027   1.534   0.040  0.00  0.00    -0.187 NA
BRANCH  11  22
ATOM     13  C   UNL     1      -0.591   6.252   0.429  0.00  0.00    +0.001 A 
ATOM     14  C   UNL     1      -0.889   4.891   0.410  0.00  0.00    +0.001 A 
ATOM     15  C   UNL     1       0.100   3.959   0.301  0.00  0.00    +0.009 A 
ATOM     16  C   UNL     1       1.433   4.373   0.206  0.00  0.00    -0.009 A 
ATOM     17  C   UNL     1       1.741   5.755   0.225  0.00  0.00    -0.017 A 
ATOM     18  C   UNL     1       0.696   6.689   0.339  0.00  0.00    +0.008 A 
ATOM     19  C   UNL     1       3.080   6.167   0.129  0.00  0.00    +0.008 A 
ATOM     20  C   UNL     1       4.082   5.252   0.019  0.00  0.00    +0.001 A 
ATOM     21  C   UNL     1       3.829   3.887   0.003  0.00  0.00    +0.010 A 
ATOM     22  C   UNL     1       2.526   3.409   0.088  0.00  0.00    +0.002 A 
ENDBRANCH  11  22
ENDBRANCH   1  12
BRANCH   5  23
ATOM     23  S   UNL     1      -3.302  -3.090  -0.089  0.00  0.00    -0.075 S 
BRANCH  23  24
ATOM     24  C   UNL     1      -4.946  -2.335  -0.105  0.00  0.00    +0.173 C 
BRANCH  24  25
ATOM     25  C   UNL     1      -5.996  -3.416  -0.136  0.00  0.00    +0.227 C 
ATOM     26  O   UNL     1      -5.665  -4.582  -0.147  0.00  0.00    -0.275 OA
ATOM     27  N   UNL     1      -7.303  -3.086  -0.152  0.00  0.00    -0.285 N 
ATOM     28  H   UNL     1      -7.605  -2.032  -0.067  0.00  0.00    +0.155 HD
BRANCH  27  29
ATOM     29  C   UNL     1      -8.275  -4.085  -0.279  0.00  0.00    +0.033 A 
ATOM     30  C   UNL     1      -9.443  -3.834  -0.987  0.00  0.00    +0.024 A 
ATOM     31  C   UNL     1     -10.398  -4.823  -1.114  0.00  0.00    +0.017 A 
ATOM     32  C   UNL     1     -10.197  -6.060  -0.528  0.00  0.00    +0.018 A 
ATOM     33  C   UNL     1      -9.037  -6.311   0.183  0.00  0.00    +0.017 A 
ATOM     34  C   UNL     1      -8.076  -5.328   0.309  0.00  0.00    +0.024 A 
ATOM     35 BR   UNL     1     -11.510  -7.410  -0.699  0.00  0.00    -0.050 Br
ENDBRANCH  27  29
ENDBRANCH  24  25
ENDBRANCH  23  24
ENDBRANCH   5  23
TORSDOF 7
