REMARK  Name = ZINC36240590
REMARK  11 active torsions:
REMARK  status: ('A' for Active; 'I' for Inactive)
REMARK    1  A    between atoms: C_1  and  C_2
REMARK    2  A    between atoms: C_2  and  C_3
REMARK    3  A    between atoms: C_2  and  C_4
REMARK    4  A    between atoms: C_7  and  C_10
REMARK    5  A    between atoms: C_10  and  S_11
REMARK    6  A    between atoms: S_11  and  C_12
REMARK    7  A    between atoms: C_15  and  S_17
REMARK    8  A    between atoms: S_17  and  C_18
REMARK    9  A    between atoms: C_18  and  C_19
REMARK   10  A    between atoms: C_21  and  O_22
REMARK   11  A    between atoms: C_31  and  C_33
REMARK                            x       y       z     vdW  Elec       q    Type
REMARK                         _______ _______ _______ _____ _____    ______ ____
ROOT
ATOM      1  C   UNL     1     -12.736  -4.415   0.103  0.00  0.00    +0.112 C 
ENDROOT
BRANCH   1   2
ATOM      2  C   UNL     1     -14.206  -4.631  -0.144  0.00  0.00    -0.020 A 
ATOM      3  C   UNL     1     -15.153  -3.884   0.529  0.00  0.00    +0.092 A 
ATOM      4  C   UNL     1     -16.502  -4.097   0.287  0.00  0.00    +0.285 A 
ATOM      5  O   UNL     1     -16.916  -5.017  -0.591  0.00  0.00    -0.425 OA
ATOM      6  C   UNL     1     -16.034  -5.774  -1.276  0.00  0.00    +0.141 A 
ATOM      7  C   UNL     1     -14.647  -5.597  -1.074  0.00  0.00    +0.022 A 
ATOM      8  C   UNL     1     -13.725  -6.380  -1.790  0.00  0.00    +0.013 A 
ATOM      9  C   UNL     1     -14.168  -7.306  -2.680  0.00  0.00    +0.024 A 
ATOM     10  C   UNL     1     -15.546  -7.486  -2.891  0.00  0.00    +0.037 A 
ATOM     11  C   UNL     1     -16.474  -6.723  -2.180  0.00  0.00    +0.070 A 
ATOM     12  N   UNL     1     -15.978  -8.416  -3.787  0.00  0.00    -0.286 N 
ATOM     13  C   UNL     1     -17.221  -8.382  -4.226  0.00  0.00    +0.214 C 
ATOM     14  O   UNL     1     -17.947  -7.450  -3.927  0.00  0.00    -0.276 OA
ATOM     15  C   UNL     1     -17.744  -9.495  -5.097  0.00  0.00    +0.109 C 
ATOM     16  H   UNL     1     -15.371  -9.104  -4.101  0.00  0.00    +0.155 HD
BRANCH   4  17
ATOM     17  O   UNL     1     -17.415  -3.361   0.950  0.00  0.00    -0.480 OA
ATOM     18  H   UNL     1     -18.331  -3.573   0.723  0.00  0.00    +0.295 HD
ENDBRANCH   4  17
ENDBRANCH   1   2
BRANCH   1  19
ATOM     19  S   UNL     1     -12.207  -2.876  -0.699  0.00  0.00    -0.092 S 
BRANCH  19  23
ATOM     20  C   UNL     1      -7.879  -2.223   0.020  0.00  0.00    +0.160 A 
ATOM     21  N   UNL     1      -8.397  -3.314   0.551  0.00  0.00    -0.134 NA
ATOM     22  N   UNL     1      -9.733  -3.592   0.376  0.00  0.00    -0.134 NA
ATOM     23  C   UNL     1     -10.489  -2.768  -0.322  0.00  0.00    +0.160 A 
ATOM     24  S   UNL     1      -9.308  -1.508  -0.778  0.00  0.00    -0.033 S 
BRANCH  20  25
ATOM     25  S   UNL     1      -6.222  -1.628   0.086  0.00  0.00    -0.092 S 
BRANCH  25  26
ATOM     26  C   UNL     1      -5.345  -2.878   1.064  0.00  0.00    +0.111 C 
BRANCH  26  30
ATOM     27  C   UNL     1      -1.238  -1.767   1.447  0.00  0.00    -0.045 A 
ATOM     28  C   UNL     1      -2.159  -1.343   2.386  0.00  0.00    +0.004 A 
ATOM     29  C   UNL     1      -3.488  -1.702   2.262  0.00  0.00    +0.005 A 
ATOM     30  C   UNL     1      -3.896  -2.486   1.199  0.00  0.00    -0.037 A 
ATOM     31  C   UNL     1      -2.975  -2.910   0.259  0.00  0.00    +0.005 A 
ATOM     32  C   UNL     1      -1.646  -2.547   0.381  0.00  0.00    +0.004 A 
BRANCH  27  34
ATOM     33  C   UNL     1       0.331   0.149   1.561  0.00  0.00    +0.012 C 
ATOM     34  C   UNL     1       0.211  -1.376   1.582  0.00  0.00    +0.013 C 
ATOM     35  C   UNL     1       0.764  -1.913   2.903  0.00  0.00    +0.012 C 
ENDBRANCH  27  34
ENDBRANCH  26  30
ENDBRANCH  25  26
ENDBRANCH  20  25
ENDBRANCH  19  23
ENDBRANCH   1  19
TORSDOF 8
