REMARK  Name = ZINC19310089
REMARK  7 active torsions:
REMARK  status: ('A' for Active; 'I' for Inactive)
REMARK    1  A    between atoms: C_1  and  C_2
REMARK    2  A    between atoms: C_6  and  C_19
REMARK    3  A    between atoms: N_8  and  C_9
REMARK    4  A    between atoms: C_14  and  C_15
REMARK    5  A    between atoms: N_21  and  N_22
REMARK    6  A    between atoms: C_23  and  C_25
REMARK    7  A    between atoms: C_25  and  C_26
REMARK                            x       y       z     vdW  Elec       q    Type
REMARK                         _______ _______ _______ _____ _____    ______ ____
ROOT
ATOM      1  C   UNL     1       1.409   3.764  -1.427  0.00  0.00    +0.284 C 
ATOM      2  O   UNL     1       0.306   4.263  -1.317  0.00  0.00    -0.267 OA
ATOM      3  N   UNL     1       1.587   2.688  -2.218  0.00  0.00    -0.229 N 
ATOM      4  H   UNL     1       2.586   2.237  -2.316  0.00  0.00    +0.173 HD
ENDROOT
BRANCH   1  10
ATOM      5  C   UNL     1       5.946   5.850   1.335  0.00  0.00    +0.066 C 
ATOM      6  C   UNL     1       4.700   5.362   0.642  0.00  0.00    +0.044 A 
ATOM      7  C   UNL     1       3.526   6.005   0.846  0.00  0.00    +0.076 A 
ATOM      8  C   UNL     1       2.377   5.517   0.170  0.00  0.00    +0.213 A 
ATOM      9  O   UNL     1       1.287   6.050   0.303  0.00  0.00    -0.285 OA
ATOM     10  C   UNL     1       2.555   4.339  -0.693  0.00  0.00    +0.194 A 
ATOM     11  N   UNL     1       3.755   3.809  -0.802  0.00  0.00    -0.158 NA
ATOM     12  N   UNL     1       4.769   4.284  -0.177  0.00  0.00    -0.236 N 
BRANCH  12  13
ATOM     13  C   UNL     1       6.008   3.659  -0.351  0.00  0.00    +0.077 A 
ATOM     14  C   UNL     1       6.920   4.163  -1.270  0.00  0.00    +0.028 A 
ATOM     15  C   UNL     1       8.145   3.547  -1.434  0.00  0.00    +0.002 A 
ATOM     16  C   UNL     1       8.460   2.423  -0.693  0.00  0.00    +0.001 A 
ATOM     17  C   UNL     1       7.553   1.916   0.219  0.00  0.00    +0.014 A 
ATOM     18  C   UNL     1       6.328   2.530   0.392  0.00  0.00    +0.080 A 
BRANCH  18  19
ATOM     19  C   UNL     1       5.341   1.977   1.387  0.00  0.00    +0.419 C 
ATOM     20  F   UNL     1       5.886   0.847   2.007  0.00  0.00    -0.166 F 
ATOM     21  F   UNL     1       5.058   2.948   2.354  0.00  0.00    -0.166 F 
ATOM     22  F   UNL     1       4.161   1.621   0.725  0.00  0.00    -0.166 F 
ENDBRANCH  18  19
ENDBRANCH  12  13
ENDBRANCH   1  10
BRANCH   3  23
ATOM     23  N   UNL     1       0.501   2.143  -2.914  0.00  0.00    -0.234 N 
ATOM     24  C   UNL     1       0.679   1.066  -3.705  0.00  0.00    +0.230 C 
ATOM     25  O   UNL     1       1.780   0.569  -3.814  0.00  0.00    -0.274 OA
ATOM     26  H   UNL     1      -0.498   2.594  -2.815  0.00  0.00    +0.173 HD
BRANCH  24  27
ATOM     27  C   UNL     1      -0.490   0.480  -4.454  0.00  0.00    +0.104 C 
BRANCH  27  28
ATOM     28  C   UNL     1      -0.020  -0.725  -5.271  0.00  0.00    -0.020 C 
ATOM     29  C   UNL     1       1.052  -0.278  -6.268  0.00  0.00    +0.011 C 
ATOM     30  C   UNL     1       1.523  -1.483  -7.085  0.00  0.00    -0.010 C 
ATOM     31  C   UNL     1       0.336  -2.078  -7.845  0.00  0.00    +0.007 C 
ATOM     32  C   UNL     1      -0.736  -2.525  -6.849  0.00  0.00    -0.010 C 
ATOM     33  C   UNL     1      -1.207  -1.320  -6.032  0.00  0.00    +0.011 C 
ATOM     34  C   UNL     1      -0.151  -3.581  -5.910  0.00  0.00    +0.007 C 
ATOM     35  C   UNL     1       1.035  -2.986  -5.149  0.00  0.00    -0.010 C 
ATOM     36  C   UNL     1       2.107  -2.540  -6.145  0.00  0.00    +0.007 C 
ATOM     37  C   UNL     1       0.565  -1.781  -4.332  0.00  0.00    +0.011 C 
ENDBRANCH  27  28
ENDBRANCH  24  27
ENDBRANCH   3  23
TORSDOF 6
