REMARK  Name = ZINC09420766
REMARK  6 active torsions:
REMARK  status: ('A' for Active; 'I' for Inactive)
REMARK    1  A    between atoms: C_1  and  C_2
REMARK    2  A    between atoms: C_5  and  C_32
REMARK    3  A    between atoms: C_9  and  C_10
REMARK    4  A    between atoms: C_9  and  N_55
REMARK    5  A    between atoms: C_11  and  O_31
REMARK    6  A    between atoms: C_18  and  C_19
REMARK                            x       y       z     vdW  Elec       q    Type
REMARK                         _______ _______ _______ _____ _____    ______ ____
ROOT
ATOM      1  C   UNL     1      -0.658   1.666   3.644  0.00  0.00    +0.020 A 
ATOM      2  C   UNL     1      -0.028   2.788   4.157  0.00  0.00    +0.122 A 
ATOM      3  C   UNL     1      -0.537   3.436   5.279  0.00  0.00    +0.046 A 
ATOM      4  C   UNL     1      -1.662   2.962   5.893  0.00  0.00    +0.019 A 
ATOM      5  C   UNL     1      -2.304   1.830   5.391  0.00  0.00    +0.068 A 
ATOM      6  C   UNL     1      -1.803   1.171   4.256  0.00  0.00    +0.144 A 
ATOM      7  O   UNL     1      -2.587   0.112   3.963  0.00  0.00    -0.451 OA
ATOM      8  C   UNL     1      -3.616  -0.010   4.833  0.00  0.00    +0.179 C 
ATOM      9  C   UNL     1      -4.580  -0.972   4.810  0.00  0.00    +0.096 C 
ATOM     10  C   UNL     1      -3.505   1.083   5.808  0.00  0.00    +0.232 C 
ATOM     11  O   UNL     1      -4.241   1.320   6.750  0.00  0.00    -0.283 OA
ENDROOT
BRANCH   9  12
ATOM     12  C   UNL     1      -4.562  -1.968   3.805  0.00  0.00    +0.133 A 
ATOM     13  C   UNL     1      -5.469  -2.978   3.680  0.00  0.00    +0.058 A 
ATOM     14  C   UNL     1      -5.081  -3.742   2.551  0.00  0.00    +0.022 A 
ATOM     15  C   UNL     1      -5.603  -4.880   1.926  0.00  0.00    +0.027 A 
ATOM     16  C   UNL     1      -4.983  -5.392   0.821  0.00  0.00    +0.019 A 
ATOM     17  C   UNL     1      -3.838  -4.791   0.314  0.00  0.00    +0.019 A 
ATOM     18  C   UNL     1      -3.307  -3.669   0.915  0.00  0.00    +0.048 A 
ATOM     19  C   UNL     1      -3.921  -3.131   2.039  0.00  0.00    +0.136 A 
ATOM     20  O   UNL     1      -3.645  -2.064   2.818  0.00  0.00    -0.455 OA
ATOM     21 BR   UNL     1      -5.688  -6.930  -0.023  0.00  0.00    -0.050 Br
ENDBRANCH   9  12
BRANCH   2  22
ATOM     22  O   UNL     1       1.094   3.263   3.557  0.00  0.00    -0.506 OA
ATOM     23  H   UNL     1       0.923   3.916   2.865  0.00  0.00    +0.292 HD
ENDBRANCH   2  22
BRANCH   1  24
ATOM     24  C   UNL     1      -0.099   0.979   2.425  0.00  0.00    -0.036 C 
BRANCH  24  32
ATOM     25  C   UNL     1      -0.024   1.117  -2.491  0.00  0.00    +0.005 C 
ATOM     26  C   UNL     1      -0.752   1.593  -1.232  0.00  0.00    -0.031 C 
ATOM     27  C   UNL     1      -0.788   3.123  -1.209  0.00  0.00    +0.003 C 
ATOM     28  C   UNL     1      -1.465   3.591   0.082  0.00  0.00    -0.031 C 
ATOM     29  C   UNL     1      -0.705   3.026   1.284  0.00  0.00    -0.075 C 
ATOM     30  C   UNL     1      -0.013   1.086   0.008  0.00  0.00    -0.075 C 
ATOM     31  C   UNL     1      -1.452   5.120   0.141  0.00  0.00    +0.005 C 
ATOM     32  N   UNL     1      -0.728   1.550   1.216  0.00  0.00    +0.383 N 
ATOM     33  H   UNL     1      -1.704   1.234   1.167  0.00  0.00    -0.081 HD
ENDBRANCH  24  32
ENDBRANCH   1  24
TORSDOF 4
