REMARK  Name = ZINC13498653
REMARK  12 active torsions:
REMARK  status: ('A' for Active; 'I' for Inactive)
REMARK    1  A    between atoms: C_1  and  C_2
REMARK    2  A    between atoms: C_2  and  C_3
REMARK    3  A    between atoms: C_2  and  C_4
REMARK    4  A    between atoms: C_4  and  C_6
REMARK    5  A    between atoms: C_4  and  N_71
REMARK    6  A    between atoms: N_10  and  C_11
REMARK    7  A    between atoms: C_11  and  C_12
REMARK    8  A    between atoms: C_18  and  C_19
REMARK    9  A    between atoms: C_18  and  N_71
REMARK   10  A    between atoms: C_23  and  O_31
REMARK   11  A    between atoms: O_31  and  C_32
REMARK   12  A    between atoms: C_33  and  N_71
REMARK                            x       y       z     vdW  Elec       q    Type
REMARK                         _______ _______ _______ _____ _____    ______ ____
ROOT
ATOM      1  N   UNL     1      -2.405   0.459   9.501  0.00  0.00    +0.391 N 
ATOM      2  H   UNL     1      -3.188   0.244   8.873  0.00  0.00    -0.080 HD
ENDROOT
BRANCH   1   3
ATOM      3  C   UNL     1      -1.622  -0.773   9.732  0.00  0.00    -0.067 C 
ATOM      4  C   UNL     1      -0.496  -0.531  10.758  0.00  0.00    -0.015 C 
ATOM      5  C   UNL     1       0.686  -1.383  10.234  0.00  0.00    -0.002 C 
ATOM      6  C   UNL     1       0.580  -1.206   8.698  0.00  0.00    -0.002 C 
ATOM      7  C   UNL     1      -0.938  -1.202   8.422  0.00  0.00    -0.015 C 
ENDBRANCH   1   3
BRANCH   1   8
ATOM      8  C   UNL     1      -2.943   0.963  10.783  0.00  0.00    +0.006 C 
BRANCH   8   9
ATOM      9  C   UNL     1      -3.634  -0.165  11.505  0.00  0.00    +0.138 A 
ATOM     10  N   UNL     1      -4.447  -1.048  10.979  0.00  0.00    -0.115 NA
ATOM     11  N   UNL     1      -4.828  -1.846  11.916  0.00  0.00    -0.023 NA
ATOM     12  N   UNL     1      -4.285  -1.490  13.028  0.00  0.00    -0.044 NA
ATOM     13  N   UNL     1      -3.542  -0.457  12.815  0.00  0.00    -0.228 N 
BRANCH  13  14
ATOM     14  C   UNL     1      -2.746   0.264  13.813  0.00  0.00    +0.178 C 
BRANCH  14  15
ATOM     15  C   UNL     1      -3.629   1.290  14.525  0.00  0.00    +0.140 C 
ATOM     16  C   UNL     1      -2.783   2.102  15.529  0.00  0.00    +0.035 C 
ATOM     17  C   UNL     1      -3.752   2.249  16.734  0.00  0.00    +0.031 C 
ATOM     18  C   UNL     1      -4.511   0.900  16.668  0.00  0.00    +0.160 C 
ATOM     19  O   UNL     1      -4.654   0.618  15.267  0.00  0.00    -0.375 OA
ENDBRANCH  14  15
ENDBRANCH  13  14
ENDBRANCH   8   9
BRANCH   8  21
ATOM     20  C   UNL     1      -5.120   1.506   9.685  0.00  0.00    +0.006 C 
ATOM     21  C   UNL     1      -3.951   2.076  10.491  0.00  0.00    -0.024 C 
ATOM     22  C   UNL     1      -4.473   2.651  11.809  0.00  0.00    +0.006 C 
ENDBRANCH   8  21
ENDBRANCH   1   8
BRANCH   1  23
ATOM     23  C   UNL     1      -1.553   1.490   8.871  0.00  0.00    -0.036 C 
BRANCH  23  24
ATOM     24  C   UNL     1      -0.469   1.931   9.820  0.00  0.00    +0.001 A 
ATOM     25  C   UNL     1       0.816   1.557   9.599  0.00  0.00    +0.017 A 
ATOM     26  C   UNL     1       1.846   2.002  10.540  0.00  0.00    +0.002 A 
ATOM     27  C   UNL     1       3.188   1.652  10.358  0.00  0.00    +0.055 A 
ATOM     28  C   UNL     1       4.133   2.084  11.267  0.00  0.00    +0.121 A 
ATOM     29  C   UNL     1       3.757   2.873  12.352  0.00  0.00    +0.047 A 
ATOM     30  C   UNL     1       2.439   3.228  12.537  0.00  0.00    +0.030 A 
ATOM     31  C   UNL     1       1.470   2.799  11.637  0.00  0.00    +0.049 A 
ATOM     32  N   UNL     1       0.145   3.145  11.805  0.00  0.00    -0.322 N 
ATOM     33  H   UNL     1      -0.113   3.695  12.561  0.00  0.00    +0.169 HD
ATOM     34  C   UNL     1      -0.794   2.732  10.936  0.00  0.00    +0.251 A 
ATOM     35  O   UNL     1      -1.955   3.057  11.115  0.00  0.00    -0.268 OA
BRANCH  28  36
ATOM     36  O   UNL     1       5.439   1.743  11.099  0.00  0.00    -0.495 OA
ATOM     37  C   UNL     1       6.366   2.228  12.072  0.00  0.00    +0.277 C 
ENDBRANCH  28  36
ENDBRANCH  23  24
ENDBRANCH   1  23
TORSDOF 9
