REMARK  Name = ZINC03148924
REMARK  6 active torsions:
REMARK  status: ('A' for Active; 'I' for Inactive)
REMARK    1  A    between atoms: C_1  and  O_2
REMARK    2  A    between atoms: O_2  and  C_3
REMARK    3  A    between atoms: C_7  and  C_10
REMARK    4  A    between atoms: C_8  and  O_9
REMARK    5  A    between atoms: N_11  and  C_12
REMARK    6  A    between atoms: C_15  and  N_18
REMARK                            x       y       z     vdW  Elec       q    Type
REMARK                         _______ _______ _______ _____ _____    ______ ____
ROOT
ATOM      1  C   UNL     1       3.708   3.133  -0.814  0.00  0.00    +0.123 C 
ATOM      2  N   UNL     1       3.562   2.110  -0.020  0.00  0.00    -0.255 NA
ENDROOT
BRANCH   1   7
ATOM      3  C   UNL     1       7.213   4.220   0.009  0.00  0.00    +0.163 A 
ATOM      4  C   UNL     1       7.358   5.306  -0.840  0.00  0.00    +0.064 A 
ATOM      5  C   UNL     1       6.319   5.684  -1.676  0.00  0.00    +0.022 A 
ATOM      6  C   UNL     1       5.132   4.983  -1.673  0.00  0.00    +0.028 A 
ATOM      7  C   UNL     1       4.972   3.884  -0.822  0.00  0.00    +0.039 A 
ATOM      8  C   UNL     1       6.021   3.506   0.028  0.00  0.00    +0.167 A 
ATOM      9 BR   UNL     1       6.532   7.169  -2.828  0.00  0.00    -0.050 Br
BRANCH   3  11
ATOM     10  C   UNL     1       9.431   4.638   0.760  0.00  0.00    +0.277 C 
ATOM     11  O   UNL     1       8.237   3.856   0.827  0.00  0.00    -0.491 OA
ENDBRANCH   3  11
BRANCH   8  12
ATOM     12  O   UNL     1       5.875   2.444   0.862  0.00  0.00    -0.503 OA
ATOM     13  H   UNL     1       6.147   1.600   0.476  0.00  0.00    +0.292 HD
ENDBRANCH   8  12
ENDBRANCH   1   7
BRANCH   2  14
ATOM     14  C   UNL     1       2.385   1.411  -0.013  0.00  0.00    +0.064 A 
ATOM     15  C   UNL     1       1.166   2.093   0.002  0.00  0.00    +0.029 A 
ATOM     16  C   UNL     1      -0.017   1.386   0.010  0.00  0.00    +0.025 A 
ATOM     17  C   UNL     1       0.002  -0.004   0.002  0.00  0.00    +0.030 A 
ATOM     18  C   UNL     1       1.214  -0.686  -0.013  0.00  0.00    +0.025 A 
ATOM     19  C   UNL     1       2.400   0.014  -0.021  0.00  0.00    +0.029 A 
BRANCH  17  20
ATOM     20  N   UNL     1      -1.198  -0.717   0.010  0.00  0.00    -0.330 N 
ATOM     21  C   UNL     1      -2.033  -0.329   1.154  0.00  0.00    +0.105 C 
ATOM     22  C   UNL     1      -3.395  -1.019   1.051  0.00  0.00    +0.019 C 
ATOM     23  C   UNL     1      -3.192  -2.537   1.034  0.00  0.00    +0.003 C 
ATOM     24  C   UNL     1      -2.280  -2.909  -0.138  0.00  0.00    +0.019 C 
ATOM     25  C   UNL     1      -0.951  -2.164  -0.000  0.00  0.00    +0.105 C 
ENDBRANCH  17  20
ENDBRANCH   2  14
TORSDOF 5
