REMARK  Name = ZINC34734751
REMARK  8 active torsions:
REMARK  status: ('A' for Active; 'I' for Inactive)
REMARK    1  A    between atoms: C_1  and  C_2
REMARK    2  A    between atoms: C_2  and  C_3
REMARK    3  A    between atoms: C_3  and  C_4
REMARK    4  A    between atoms: C_4  and  N_5
REMARK    5  A    between atoms: C_20  and  C_22
REMARK    6  A    between atoms: C_20  and  C_23
REMARK    7  A    between atoms: N_26  and  C_27
REMARK    8  A    between atoms: C_27  and  C_28
REMARK                            x       y       z     vdW  Elec       q    Type
REMARK                         _______ _______ _______ _____ _____    ______ ____
ROOT
ATOM      1  N   UNL     1       1.853  -1.576  -3.552  0.00  0.00    +0.382 N 
ATOM      2  C   UNL     1       2.387  -1.837  -4.895  0.00  0.00    -0.060 C 
ATOM      3  C   UNL     1       2.508  -3.349  -5.110  0.00  0.00    +0.089 C 
ATOM      4  N   UNL     1       3.313  -3.913  -4.015  0.00  0.00    -0.304 N 
ATOM      5  C   UNL     1       2.944  -3.567  -2.634  0.00  0.00    +0.089 C 
ATOM      6  C   UNL     1       2.803  -2.044  -2.536  0.00  0.00    -0.060 C 
ATOM      7  C   UNL     1       4.378  -4.739  -4.276  0.00  0.00    +0.202 A 
ATOM      8  N   UNL     1       5.575  -4.219  -4.453  0.00  0.00    -0.208 NA
ATOM      9  C   UNL     1       6.623  -4.994  -4.706  0.00  0.00    +0.118 A 
ATOM     10  C   UNL     1       6.514  -6.392  -4.798  0.00  0.00    +0.076 A 
ATOM     11  C   UNL     1       7.755  -7.109  -5.084  0.00  0.00    -0.018 A 
ATOM     12  C   UNL     1       8.874  -6.367  -5.230  0.00  0.00    +0.021 A 
ATOM     13  S   UNL     1       8.349  -4.693  -4.999  0.00  0.00    -0.071 S 
ATOM     14  C   UNL     1      10.248  -6.886  -5.522  0.00  0.00    +0.203 C 
ATOM     15  O   UNL     1      10.240  -8.306  -5.309  0.00  0.00    -0.368 OA
ATOM     16  C   UNL     1       9.142  -8.971  -5.940  0.00  0.00    +0.068 C 
ATOM     17  C   UNL     1       7.834  -8.628  -5.222  0.00  0.00    +0.071 C 
ATOM     18  C   UNL     1       9.051  -8.525  -7.401  0.00  0.00    +0.041 C 
ATOM     19  C   UNL     1       9.368 -10.483  -5.888  0.00  0.00    +0.041 C 
ATOM     20  C   UNL     1       5.202  -6.928  -4.600  0.00  0.00    +0.264 A 
ATOM     21  O   UNL     1       5.010  -8.130  -4.661  0.00  0.00    -0.267 OA
ATOM     22  N   UNL     1       4.184  -6.087  -4.342  0.00  0.00    -0.271 N 
ATOM     23  H   UNL     1       0.976  -2.063  -3.441  0.00  0.00    -0.082 HD
ENDROOT
BRANCH   1  24
ATOM     24  C   UNL     1       1.634  -0.133  -3.387  0.00  0.00    -0.079 C 
BRANCH  24  25
ATOM     25  C   UNL     1       0.551   0.334  -4.363  0.00  0.00    -0.019 C 
BRANCH  25  27
ATOM     26  C   UNL     1      -0.759   2.304  -5.166  0.00  0.00    +0.004 C 
ATOM     27  C   UNL     1       0.324   1.837  -4.191  0.00  0.00    -0.005 C 
ENDBRANCH  25  27
ENDBRANCH  24  25
ENDBRANCH   1  24
BRANCH  22  28
ATOM     28  C   UNL     1       2.839  -6.630  -4.133  0.00  0.00    +0.223 C 
BRANCH  28  29
ATOM     29  C   UNL     1       2.151  -6.792  -5.464  0.00  0.00    +0.230 C 
ATOM     30  O   UNL     1       2.726  -6.485  -6.486  0.00  0.00    -0.274 OA
ATOM     31  N   UNL     1       0.895  -7.279  -5.518  0.00  0.00    -0.328 N 
ATOM     32  H   UNL     1       0.434  -7.525  -4.700  0.00  0.00    +0.145 HD
ATOM     33  H   UNL     1       0.452  -7.383  -6.374  0.00  0.00    +0.145 HD
ENDBRANCH  28  29
ENDBRANCH  22  28
TORSDOF 5
