REMARK  Name = ZINC36159429
REMARK  11 active torsions:
REMARK  status: ('A' for Active; 'I' for Inactive)
REMARK    1  A    between atoms: C_2  and  C_3
REMARK    2  A    between atoms: C_3  and  N_4
REMARK    3  A    between atoms: N_4  and  C_5
REMARK    4  A    between atoms: N_4  and  C_21
REMARK    5  A    between atoms: C_5  and  C_6
REMARK    6  A    between atoms: C_21  and  C_22
REMARK    7  A    between atoms: C_22  and  C_24
REMARK    8  A    between atoms: C_22  and  O_32
REMARK    9  A    between atoms: C_24  and  O_25
REMARK   10  A    between atoms: O_25  and  C_26
REMARK   11  A    between atoms: C_26  and  C_27
REMARK                            x       y       z     vdW  Elec       q    Type
REMARK                         _______ _______ _______ _____ _____    ______ ____
ROOT
ATOM      1  N   UNL     1      -1.304  -1.532  -1.566  0.00  0.00    +0.388 N 
ATOM      2  H   UNL     1      -1.248  -1.011  -2.428  0.00  0.00    -0.081 HD
ENDROOT
BRANCH   1   3
ATOM      3  C   UNL     1      -0.880  -0.677  -0.449  0.00  0.00    -0.051 C 
BRANCH   3   5
ATOM      4  C   UNL     1       0.775   1.098  -0.717  0.00  0.00    +0.002 C 
ATOM      5  C   UNL     1       0.524  -0.188  -0.696  0.00  0.00    -0.053 C 
ENDBRANCH   3   5
ENDBRANCH   1   3
BRANCH   1   6
ATOM      6  C   UNL     1      -0.423  -2.706  -1.646  0.00  0.00    -0.003 C 
BRANCH   6   7
ATOM      7  C   UNL     1      -0.752  -3.497  -2.886  0.00  0.00    +0.094 A 
ATOM      8  N   UNL     1      -0.147  -4.695  -3.092  0.00  0.00    -0.312 N 
ATOM      9  H   UNL     1       0.488  -5.025  -2.438  0.00  0.00    +0.170 HD
ATOM     10  C   UNL     1      -0.412  -5.434  -4.186  0.00  0.00    +0.260 A 
ATOM     11  O   UNL     1       0.139  -6.508  -4.356  0.00  0.00    -0.267 OA
ATOM     12  C   UNL     1      -1.353  -4.937  -5.146  0.00  0.00    +0.075 A 
ATOM     13  C   UNL     1      -1.791  -5.559  -6.395  0.00  0.00    -0.023 A 
ATOM     14  C   UNL     1      -2.697  -4.882  -7.132  0.00  0.00    -0.004 A 
ATOM     15  S   UNL     1      -3.015  -3.397  -6.217  0.00  0.00    -0.073 S 
ATOM     16  C   UNL     1      -1.927  -3.691  -4.846  0.00  0.00    +0.116 A 
ATOM     17  N   UNL     1      -1.618  -3.021  -3.740  0.00  0.00    -0.229 NA
ATOM     18  C   UNL     1      -3.299  -5.300  -8.439  0.00  0.00    +0.043 C 
ATOM     19  C   UNL     1      -2.458  -6.448  -9.014  0.00  0.00    +0.005 C 
ATOM     20  C   UNL     1      -2.219  -7.482  -7.910  0.00  0.00    +0.005 C 
ATOM     21  C   UNL     1      -1.261  -6.912  -6.863  0.00  0.00    +0.037 C 
ENDBRANCH   6   7
ENDBRANCH   1   6
BRANCH   1  22
ATOM     22  C   UNL     1      -2.688  -1.973  -1.348  0.00  0.00    -0.044 C 
BRANCH  22  23
ATOM     23  C   UNL     1      -3.628  -0.770  -1.454  0.00  0.00    +0.124 C 
BRANCH  23  24
ATOM     24  O   UNL     1      -3.409   0.104  -0.345  0.00  0.00    -0.391 OA
ATOM     25  H   UNL     1      -3.567  -0.306   0.517  0.00  0.00    +0.210 HD
ENDBRANCH  23  24
BRANCH  23  26
ATOM     26  C   UNL     1      -5.079  -1.255  -1.442  0.00  0.00    +0.189 C 
BRANCH  26  27
ATOM     27  O   UNL     1      -5.954  -0.145  -1.657  0.00  0.00    -0.370 OA
BRANCH  27  28
ATOM     28  C   UNL     1      -7.340  -0.491  -1.665  0.00  0.00    +0.234 C 
BRANCH  28  29
ATOM     29  C   UNL     1      -8.166   0.748  -1.899  0.00  0.00    +0.130 A 
ATOM     30  C   UNL     1      -8.553   1.221  -3.097  0.00  0.00    +0.047 A 
ATOM     31  C   UNL     1      -9.303   2.393  -2.852  0.00  0.00    +0.041 A 
ATOM     32  C   UNL     1      -9.331   2.567  -1.518  0.00  0.00    +0.195 A 
ATOM     33  O   UNL     1      -8.645   1.564  -0.946  0.00  0.00    -0.465 OA
ENDBRANCH  28  29
ENDBRANCH  27  28
ENDBRANCH  26  27
ENDBRANCH  23  26
ENDBRANCH  22  23
ENDBRANCH   1  22
TORSDOF 11
