REMARK  Name = ZINC39664111
REMARK  9 active torsions:
REMARK  status: ('A' for Active; 'I' for Inactive)
REMARK    1  A    between atoms: C_1  and  C_2
REMARK    2  A    between atoms: C_4  and  C_9
REMARK    3  A    between atoms: C_13  and  C_22
REMARK    4  A    between atoms: N_24  and  C_25
REMARK    5  A    between atoms: C_25  and  C_26
REMARK    6  A    between atoms: C_26  and  C_28
REMARK    7  A    between atoms: C_26  and  N_36
REMARK    8  A    between atoms: C_31  and  O_34
REMARK    9  A    between atoms: O_34  and  C_35
REMARK                            x       y       z     vdW  Elec       q    Type
REMARK                         _______ _______ _______ _____ _____    ______ ____
ROOT
ATOM      1  C   UNL     1      -0.002  -2.884  -2.731  0.00  0.00    +0.247 C 
ATOM      2  O   UNL     1      -0.054  -2.325  -3.809  0.00  0.00    -0.270 OA
ATOM      3  N   UNL     1       0.153  -4.221  -2.671  0.00  0.00    -0.296 N 
ATOM      4  C   UNL     1       0.112  -5.088  -1.470  0.00  0.00    +0.121 C 
ATOM      5  C   UNL     1      -0.639  -6.358  -1.930  0.00  0.00    +0.100 C 
ATOM      6  C   UNL     1      -0.442  -6.399  -3.455  0.00  0.00    -0.004 C 
ATOM      7  C   UNL     1       0.398  -5.159  -3.794  0.00  0.00    +0.115 C 
ATOM      8  C   UNL     1       0.302  -7.668  -3.858  0.00  0.00    -0.010 C 
ATOM      9  C   UNL     1       0.434  -7.715  -5.383  0.00  0.00    -0.082 C 
ATOM     10  N   UNL     1      -0.901  -7.692  -5.992  0.00  0.00    +0.379 N 
ATOM     11  C   UNL     1      -1.574  -6.427  -5.676  0.00  0.00    -0.082 C 
ATOM     12  C   UNL     1      -1.791  -6.326  -4.164  0.00  0.00    -0.010 C 
ATOM     13  H   UNL     1      -0.813  -7.784  -6.994  0.00  0.00    -0.086 HD
ATOM     14  H   UNL     1      -1.446  -8.461  -5.633  0.00  0.00    -0.086 HD
ENDROOT
BRANCH   1  18
ATOM     15  C   UNL     1      -1.423   1.269  -0.360  0.00  0.00    +0.047 C 
ATOM     16  C   UNL     1      -0.791  -0.099  -0.340  0.00  0.00    -0.015 A 
ATOM     17  C   UNL     1      -0.694  -0.830  -1.505  0.00  0.00    +0.019 A 
ATOM     18  C   UNL     1      -0.108  -2.097  -1.485  0.00  0.00    +0.037 A 
ATOM     19  C   UNL     1       0.376  -2.618  -0.283  0.00  0.00    +0.016 A 
ATOM     20  C   UNL     1       0.274  -1.880   0.876  0.00  0.00    +0.039 A 
ATOM     21  C   UNL     1      -0.304  -0.619   0.850  0.00  0.00    +0.126 A 
ATOM     22  F   UNL     1      -0.396   0.103   1.988  0.00  0.00    -0.205 F 
ENDBRANCH   1  18
BRANCH   5  23
ATOM     23  C   UNL     1      -0.040  -7.583  -1.288  0.00  0.00    +0.218 C 
ATOM     24  O   UNL     1       1.119  -7.576  -0.931  0.00  0.00    -0.275 OA
ATOM     25  N   UNL     1      -0.793  -8.687  -1.112  0.00  0.00    -0.316 N 
ATOM     26  H   UNL     1      -1.720  -8.693  -1.398  0.00  0.00    +0.149 HD
BRANCH  25  27
ATOM     27  C   UNL     1      -0.211  -9.878  -0.488  0.00  0.00    +0.093 C 
BRANCH  27  28
ATOM     28  C   UNL     1      -1.299 -10.937  -0.297  0.00  0.00    -0.020 C 
BRANCH  28  29
ATOM     29  C   UNL     1      -1.785 -11.406  -1.644  0.00  0.00    -0.059 A 
ATOM     30  C   UNL     1      -1.054 -12.341  -2.354  0.00  0.00    +0.005 A 
ATOM     31  C   UNL     1      -1.497 -12.773  -3.589  0.00  0.00    +0.046 A 
ATOM     32  C   UNL     1      -2.676 -12.268  -4.117  0.00  0.00    +0.120 A 
ATOM     33  C   UNL     1      -3.408 -11.330  -3.404  0.00  0.00    +0.046 A 
ATOM     34  C   UNL     1      -2.963 -10.905  -2.166  0.00  0.00    +0.005 A 
BRANCH  32  35
ATOM     35  O   UNL     1      -3.114 -12.690  -5.333  0.00  0.00    -0.495 OA
ATOM     36  C   UNL     1      -4.335 -12.127  -5.814  0.00  0.00    +0.277 C 
ENDBRANCH  32  35
ENDBRANCH  28  29
BRANCH  28  37
ATOM     37  N   UNL     1      -0.749 -12.076   0.449  0.00  0.00    +0.385 N 
ATOM     38  C   UNL     1      -0.423 -11.668   1.840  0.00  0.00    -0.078 C 
ATOM     39  C   UNL     1      -0.413 -13.012   2.610  0.00  0.00    -0.020 C 
ATOM     40  C   UNL     1      -1.571 -13.796   1.952  0.00  0.00    -0.020 C 
ATOM     41  C   UNL     1      -1.763 -13.145   0.570  0.00  0.00    -0.078 C 
ATOM     42  H   UNL     1       0.076 -12.429  -0.013  0.00  0.00    -0.081 HD
ENDBRANCH  28  37
ENDBRANCH  27  28
ENDBRANCH  25  27
ENDBRANCH   5  23
TORSDOF 7
