REMARK  Name = ZINC38980023
REMARK  7 active torsions:
REMARK  status: ('A' for Active; 'I' for Inactive)
REMARK    1  A    between atoms: C_1  and  C_2
REMARK    2  A    between atoms: C_2  and  O_3
REMARK    3  A    between atoms: O_3  and  C_4
REMARK    4  A    between atoms: C_4  and  C_6
REMARK    5  A    between atoms: N_9  and  C_12
REMARK    6  A    between atoms: N_15  and  S_16
REMARK    7  A    between atoms: S_16  and  C_19
REMARK                            x       y       z     vdW  Elec       q    Type
REMARK                         _______ _______ _______ _____ _____    ______ ____
ROOT
ATOM      1  C   UNL     1       4.386  -4.581  -4.742  0.00  0.00    +0.222 C 
ATOM      2  C   UNL     1       4.412  -6.070  -4.481  0.00  0.00    +0.189 C 
ATOM      3  N   UNL     1       3.304  -6.747  -4.405  0.00  0.00    -0.110 NA
ATOM      4  N   UNL     1       5.597  -6.684  -4.329  0.00  0.00    -0.226 NA
ATOM      5  C   UNL     1       6.732  -6.021  -4.402  0.00  0.00    +0.089 A 
ATOM      6  C   UNL     1       7.965  -6.702  -4.236  0.00  0.00    +0.030 A 
ATOM      7  C   UNL     1       9.133  -6.027  -4.309  0.00  0.00    +0.002 A 
ATOM      8  C   UNL     1       9.197  -4.644  -4.548  0.00  0.00    +0.002 A 
ATOM      9  C   UNL     1       8.083  -3.900  -4.721  0.00  0.00    +0.027 A 
ATOM     10  C   UNL     1       6.771  -4.560  -4.655  0.00  0.00    +0.063 A 
ATOM     11  N   UNL     1       5.674  -3.874  -4.817  0.00  0.00    -0.361 N 
ATOM     12  H   UNL     1       5.707  -2.919  -4.982  0.00  0.00    +0.162 HD
ENDROOT
BRANCH   1  16
ATOM     13  C   UNL     1       3.011  -2.082  -1.557  0.00  0.00    +0.100 C 
ATOM     14  C   UNL     1       3.338  -3.551  -1.275  0.00  0.00    +0.030 C 
ATOM     15  C   UNL     1       4.257  -4.084  -2.376  0.00  0.00    +0.087 C 
ATOM     16  N   UNL     1       3.591  -3.953  -3.678  0.00  0.00    -0.276 NA
ATOM     17  C   UNL     1       3.310  -2.546  -3.992  0.00  0.00    +0.087 C 
ATOM     18  C   UNL     1       2.362  -1.967  -2.939  0.00  0.00    +0.030 C 
BRANCH  13  19
ATOM     19  C   UNL     1       2.058  -1.567  -0.509  0.00  0.00    +0.310 C 
ATOM     20  O   UNL     1       0.971  -1.152  -0.833  0.00  0.00    -0.251 OA
BRANCH  19  21
ATOM     21  O   UNL     1       2.417  -1.571   0.784  0.00  0.00    -0.465 OA
BRANCH  21  23
ATOM     22  C   UNL     1       2.047  -1.154   3.136  0.00  0.00    +0.048 C 
ATOM     23  C   UNL     1       1.464  -1.070   1.724  0.00  0.00    +0.229 C 
ENDBRANCH  21  23
ENDBRANCH  19  21
ENDBRANCH  13  19
ENDBRANCH   1  16
BRANCH   3  24
ATOM     24  S   UNL     1       3.347  -8.377  -4.118  0.00  0.00    +0.102 S 
ATOM     25  O   UNL     1       3.955  -8.973  -5.255  0.00  0.00    -0.146 OA
ATOM     26  O   UNL     1       3.861  -8.545  -2.804  0.00  0.00    -0.146 OA
BRANCH  24  27
ATOM     27  C   UNL     1       1.679  -8.944  -4.082  0.00  0.00    +0.132 A 
ATOM     28  C   UNL     1       1.229  -9.828  -5.044  0.00  0.00    +0.050 A 
ATOM     29  C   UNL     1      -0.080 -10.274  -5.016  0.00  0.00    +0.043 A 
ATOM     30  C   UNL     1      -0.940  -9.833  -4.025  0.00  0.00    +0.021 A 
ATOM     31  C   UNL     1      -0.490  -8.949  -3.063  0.00  0.00    +0.023 A 
ATOM     32  C   UNL     1       0.822  -8.508  -3.088  0.00  0.00    +0.068 A 
ATOM     33 CL   UNL     1       1.389  -7.403  -1.875  0.00  0.00    -0.082 Cl
ATOM     34 CL   UNL     1      -0.645 -11.384  -6.225  0.00  0.00    -0.083 Cl
ENDBRANCH  24  27
ENDBRANCH   3  24
TORSDOF 6
