REMARK  Name = ZINC11286530
REMARK  4 active torsions:
REMARK  status: ('A' for Active; 'I' for Inactive)
REMARK    1  A    between atoms: C_1  and  C_2
REMARK    2  A    between atoms: C_16  and  C_17
REMARK    3  A    between atoms: C_16  and  N_66
REMARK    4  A    between atoms: C_21  and  C_30
REMARK                            x       y       z     vdW  Elec       q    Type
REMARK                         _______ _______ _______ _____ _____    ______ ____
ROOT
ATOM      1  C   UNL     1       5.941   2.622  -0.531  0.00  0.00    -0.008 C 
ATOM      2  C   UNL     1       5.746   2.149  -1.972  0.00  0.00    -0.040 C 
ATOM      3  C   UNL     1       4.366   1.563  -2.120  0.00  0.00    -0.054 A 
ATOM      4  C   UNL     1       3.304   2.210  -1.507  0.00  0.00    +0.051 A 
ATOM      5  C   UNL     1       2.017   1.711  -1.619  0.00  0.00    +0.162 A 
ATOM      6  C   UNL     1       1.789   0.556  -2.358  0.00  0.00    +0.162 A 
ATOM      7  C   UNL     1       2.854  -0.088  -2.967  0.00  0.00    +0.053 A 
ATOM      8  C   UNL     1       4.141   0.413  -2.847  0.00  0.00    -0.038 A 
ATOM      9  C   UNL     1       5.267  -0.325  -3.520  0.00  0.00    -0.019 C 
ATOM     10  C   UNL     1       5.600  -1.600  -2.723  0.00  0.00    +0.010 C 
ATOM     11  C   UNL     1       4.794  -2.714  -3.437  0.00  0.00    +0.001 C 
ATOM     12  C   UNL     1       4.913  -2.318  -4.930  0.00  0.00    +0.001 C 
ATOM     13  C   UNL     1       4.831  -0.777  -4.922  0.00  0.00    +0.010 C 
ATOM     14  C   UNL     1       6.506   0.560  -3.620  0.00  0.00    -0.066 C 
ATOM     15  O   UNL     1       0.537   0.054  -2.489  0.00  0.00    -0.485 OA
ATOM     16  C   UNL     1      -0.494   0.531  -1.639  0.00  0.00    +0.270 C 
ATOM     17  C   UNL     1      -0.343   2.017  -1.351  0.00  0.00    +0.270 C 
ATOM     18  O   UNL     1       0.992   2.352  -1.005  0.00  0.00    -0.485 OA
ATOM     19  N   UNL     1       6.764   1.131  -2.281  0.00  0.00    +0.390 N 
ATOM     20  H   UNL     1       6.711   0.381  -1.582  0.00  0.00    -0.080 HD
ENDROOT
BRANCH  19  21
ATOM     21  C   UNL     1       8.114   1.735  -2.238  0.00  0.00    +0.020 C 
BRANCH  21  22
ATOM     22  C   UNL     1       9.141   0.633  -2.209  0.00  0.00    +0.203 C 
ATOM     23  O   UNL     1       8.786  -0.525  -2.145  0.00  0.00    -0.277 OA
ATOM     24  N   UNL     1      10.454   0.933  -2.253  0.00  0.00    -0.266 N 
ATOM     25  C   UNL     1      10.913   2.322  -2.427  0.00  0.00    +0.168 C 
ATOM     26  C   UNL     1      12.097   2.543  -1.475  0.00  0.00    +0.276 C 
ATOM     27  O   UNL     1      13.120   1.594  -1.786  0.00  0.00    -0.476 OA
ATOM     28  C   UNL     1      12.759   0.288  -1.898  0.00  0.00    +0.143 A 
ATOM     29  C   UNL     1      11.434  -0.067  -2.129  0.00  0.00    +0.078 A 
ATOM     30  C   UNL     1      11.081  -1.402  -2.252  0.00  0.00    +0.027 A 
ATOM     31  C   UNL     1      12.048  -2.383  -2.131  0.00  0.00    +0.002 A 
ATOM     32  C   UNL     1      13.364  -2.033  -1.894  0.00  0.00    +0.004 A 
ATOM     33  C   UNL     1      13.722  -0.703  -1.778  0.00  0.00    +0.047 A 
BRANCH  26  34
ATOM     34  C   UNL     1      12.634   3.940  -1.652  0.00  0.00    +0.253 C 
ATOM     35  O   UNL     1      13.755   4.109  -2.083  0.00  0.00    -0.272 OA
ATOM     36  N   UNL     1      11.868   5.002  -1.331  0.00  0.00    -0.326 N 
ATOM     37  H   UNL     1      10.972   4.866  -0.986  0.00  0.00    +0.145 HD
ATOM     38  H   UNL     1      12.214   5.901  -1.444  0.00  0.00    +0.145 HD
ENDBRANCH  26  34
ENDBRANCH  21  22
ENDBRANCH  19  21
TORSDOF 3
