REMARK  Name = ZINC20206016
REMARK  10 active torsions:
REMARK  status: ('A' for Active; 'I' for Inactive)
REMARK    1  A    between atoms: C_1  and  C_2
REMARK    2  A    between atoms: C_5  and  O_8
REMARK    3  A    between atoms: O_8  and  C_9
REMARK    4  A    between atoms: C_9  and  C_10
REMARK    5  A    between atoms: C_10  and  C_11
REMARK    6  A    between atoms: C_11  and  O_12
REMARK    7  A    between atoms: O_12  and  C_13
REMARK    8  A    between atoms: C_16  and  C_19
REMARK    9  A    between atoms: C_30  and  S_31
REMARK   10  A    between atoms: S_31  and  C_34
REMARK                            x       y       z     vdW  Elec       q    Type
REMARK                         _______ _______ _______ _____ _____    ______ ____
ROOT
ATOM      1  C   UNL     1       0.923  -9.346   3.220  0.00  0.00    +0.121 A 
ATOM      2  C   UNL     1       0.537  -8.661   4.368  0.00  0.00    +0.046 A 
ATOM      3  C   UNL     1       0.368  -9.336   5.549  0.00  0.00    +0.011 A 
ATOM      4  C   UNL     1       0.584 -10.721   5.598  0.00  0.00    -0.024 A 
ATOM      5  C   UNL     1       0.973 -11.406   4.438  0.00  0.00    +0.011 A 
ATOM      6  C   UNL     1       1.135 -10.720   3.262  0.00  0.00    +0.046 A 
ENDROOT
BRANCH   4   7
ATOM      7  C   UNL     1       0.405 -11.449   6.857  0.00  0.00    +0.024 C 
ATOM      8  C   UNL     1      -0.180 -12.695   6.854  0.00  0.00    +0.078 C 
ATOM      9  C   UNL     1      -0.213 -13.552   8.074  0.00  0.00    +0.117 C 
ATOM     10  N   UNL     1      -0.294 -13.074   9.287  0.00  0.00    -0.386 N 
ATOM     11  N   UNL     1      -0.150 -14.930   7.786  0.00  0.00    -0.203 N 
ATOM     12  C   UNL     1      -0.549 -15.358   6.537  0.00  0.00    +0.183 C 
ATOM     13  N   UNL     1      -0.899 -14.599   5.523  0.00  0.00    -0.152 NA
ATOM     14  C   UNL     1      -0.818 -13.258   5.638  0.00  0.00    +0.273 C 
ATOM     15  O   UNL     1      -1.254 -12.526   4.765  0.00  0.00    -0.268 OA
ATOM     16  S   UNL     1      -0.450 -17.018   6.654  0.00  0.00    +0.049 S 
ATOM     17  N   UNL     1       0.182 -17.145   8.201  0.00  0.00    -0.174 NA
ATOM     18  C   UNL     1       0.260 -15.918   8.615  0.00  0.00    +0.257 C 
ATOM     19  H   UNL     1      -0.237 -12.117   9.435  0.00  0.00    +0.157 HD
ATOM     20  H   UNL     1      -0.410 -13.676  10.038  0.00  0.00    +0.157 HD
BRANCH  18  21
ATOM     21  S   UNL     1       0.886 -15.547  10.220  0.00  0.00    +0.026 S 
ATOM     22  O   UNL     1       1.669 -16.678  10.575  0.00  0.00    -0.167 OA
ATOM     23  O   UNL     1       1.485 -14.265  10.088  0.00  0.00    -0.167 OA
ATOM     24  C   UNL     1      -0.582 -15.444  11.281  0.00  0.00    +0.203 C 
ENDBRANCH  18  21
ENDBRANCH   4   7
BRANCH   1  25
ATOM     25  O   UNL     1       1.089  -8.672   2.055  0.00  0.00    -0.492 OA
BRANCH  25  26
ATOM     26  C   UNL     1       0.857  -7.262   2.082  0.00  0.00    +0.232 C 
BRANCH  26  27
ATOM     27  C   UNL     1       1.091  -6.680   0.686  0.00  0.00    +0.082 C 
BRANCH  27  28
ATOM     28  C   UNL     1       0.842  -5.171   0.715  0.00  0.00    +0.232 C 
BRANCH  28  29
ATOM     29  O   UNL     1       1.061  -4.627  -0.588  0.00  0.00    -0.492 OA
BRANCH  29  34
ATOM     30  C   UNL     1       0.311   0.922  -1.202  0.00  0.00    +0.044 C 
ATOM     31  C   UNL     1       0.512  -0.563  -1.038  0.00  0.00    -0.050 A 
ATOM     32  C   UNL     1       0.892  -1.332  -2.122  0.00  0.00    +0.007 A 
ATOM     33  C   UNL     1       1.076  -2.693  -1.974  0.00  0.00    +0.046 A 
ATOM     34  C   UNL     1       0.881  -3.288  -0.736  0.00  0.00    +0.121 A 
ATOM     35  C   UNL     1       0.500  -2.514   0.350  0.00  0.00    +0.046 A 
ATOM     36  C   UNL     1       0.322  -1.152   0.198  0.00  0.00    +0.007 A 
ENDBRANCH  29  34
ENDBRANCH  28  29
ENDBRANCH  27  28
ENDBRANCH  26  27
ENDBRANCH  25  26
ENDBRANCH   1  25
TORSDOF 8
