REMARK  Name = ZINC23593434
REMARK  12 active torsions:
REMARK  status: ('A' for Active; 'I' for Inactive)
REMARK    1  A    between atoms: C_1  and  C_2
REMARK    2  A    between atoms: C_2  and  C_4
REMARK    3  A    between atoms: C_2  and  O_17
REMARK    4  A    between atoms: N_6  and  C_7
REMARK    5  A    between atoms: C_10  and  C_13
REMARK    6  A    between atoms: C_13  and  C_14
REMARK    7  A    between atoms: C_13  and  C_15
REMARK    8  A    between atoms: C_13  and  C_16
REMARK    9  A    between atoms: O_17  and  C_18
REMARK   10  A    between atoms: C_18  and  C_20
REMARK   11  A    between atoms: C_22  and  S_27
REMARK   12  A    between atoms: S_27  and  N_30
REMARK                            x       y       z     vdW  Elec       q    Type
REMARK                         _______ _______ _______ _____ _____    ______ ____
ROOT
ATOM      1  C   UNL     1       4.122   6.206  -1.438  0.00  0.00    +0.062 C 
ATOM      2  C   UNL     1       3.677   5.966   0.006  0.00  0.00    +0.259 C 
ENDROOT
BRANCH   2   3
ATOM      3  C   UNL     1       3.546   7.288   0.717  0.00  0.00    +0.258 C 
ATOM      4  O   UNL     1       2.477   7.623   1.182  0.00  0.00    -0.271 OA
ATOM      5  N   UNL     1       4.617   8.098   0.836  0.00  0.00    -0.282 N 
ATOM      6  H   UNL     1       5.602   7.763   0.482  0.00  0.00    +0.155 HD
BRANCH   5   7
ATOM      7  C   UNL     1       4.474   9.367   1.411  0.00  0.00    +0.034 A 
ATOM      8  C   UNL     1       5.234  10.431   0.944  0.00  0.00    +0.023 A 
ATOM      9  C   UNL     1       5.088  11.682   1.510  0.00  0.00    +0.006 A 
ATOM     10  C   UNL     1       4.193  11.874   2.546  0.00  0.00    -0.042 A 
ATOM     11  C   UNL     1       3.438  10.815   3.016  0.00  0.00    +0.006 A 
ATOM     12  C   UNL     1       3.576   9.562   2.451  0.00  0.00    +0.023 A 
BRANCH  10  13
ATOM     13  C   UNL     1       4.040  13.239   3.165  0.00  0.00    -0.013 C 
ATOM     14  C   UNL     1       4.388  13.167   4.653  0.00  0.00    +0.015 C 
ATOM     15  C   UNL     1       4.981  14.223   2.468  0.00  0.00    +0.015 C 
ATOM     16  C   UNL     1       2.594  13.714   3.002  0.00  0.00    +0.015 C 
ENDBRANCH  10  13
ENDBRANCH   5   7
ENDBRANCH   2   3
BRANCH   2  17
ATOM     17  O   UNL     1       2.394   5.285   0.010  0.00  0.00    -0.449 OA
BRANCH  17  18
ATOM     18  C   UNL     1       2.418   3.938   0.010  0.00  0.00    +0.341 C 
ATOM     19  O   UNL     1       3.480   3.349   0.005  0.00  0.00    -0.245 OA
BRANCH  18  20
ATOM     20  C   UNL     1       1.152   3.178   0.014  0.00  0.00    +0.075 A 
ATOM     21  C   UNL     1      -0.072   3.852   0.020  0.00  0.00    +0.044 A 
ATOM     22  C   UNL     1      -1.250   3.136   0.025  0.00  0.00    +0.106 A 
ATOM     23  C   UNL     1      -1.224   1.752   0.018  0.00  0.00    +0.029 A 
ATOM     24  C   UNL     1      -0.017   1.077   0.018  0.00  0.00    +0.018 A 
ATOM     25  C   UNL     1       1.172   1.781   0.014  0.00  0.00    +0.032 A 
ATOM     26 BR   UNL     1       2.821   0.857   0.007  0.00  0.00    -0.049 Br
BRANCH  22  27
ATOM     27  S   UNL     1      -2.794   3.985   0.031  0.00  0.00    +0.056 S 
ATOM     28  O   UNL     1      -3.748   3.090   0.586  0.00  0.00    -0.153 OA
ATOM     29  O   UNL     1      -2.547   5.272   0.581  0.00  0.00    -0.153 OA
BRANCH  27  30
ATOM     30  N   UNL     1      -3.229   4.222  -1.549  0.00  0.00    -0.204 NA
ATOM     31  H   UNL     1      -4.193   4.751  -1.589  0.00  0.00    +0.144 HD
ATOM     32  H   UNL     1      -3.325   3.248  -2.053  0.00  0.00    +0.144 HD
ENDBRANCH  27  30
ENDBRANCH  22  27
ENDBRANCH  18  20
ENDBRANCH  17  18
ENDBRANCH   2  17
TORSDOF 8
