REMARK  Name = ZINC39666068
REMARK  11 active torsions:
REMARK  status: ('A' for Active; 'I' for Inactive)
REMARK    1  A    between atoms: C_1  and  C_2
REMARK    2  A    between atoms: C_5  and  O_8
REMARK    3  A    between atoms: O_8  and  C_9
REMARK    4  A    between atoms: C_9  and  C_11
REMARK    5  A    between atoms: C_9  and  C_12
REMARK    6  A    between atoms: C_12  and  N_13
REMARK    7  A    between atoms: C_14  and  C_16
REMARK    8  A    between atoms: C_27  and  C_29
REMARK    9  A    between atoms: C_29  and  C_31
REMARK   10  A    between atoms: C_29  and  O_32
REMARK   11  A    between atoms: O_32  and  C_33
REMARK                            x       y       z     vdW  Elec       q    Type
REMARK                         _______ _______ _______ _____ _____    ______ ____
ROOT
ATOM      1  C   UNL     1       4.763  -6.468   0.463  0.00  0.00    +0.100 C 
ATOM      2  C   UNL     1       4.987  -5.591  -0.790  0.00  0.00    +0.121 C 
ATOM      3  N   UNL     1       6.256  -6.088  -1.373  0.00  0.00    -0.297 N 
ATOM      4  C   UNL     1       6.188  -7.560  -1.203  0.00  0.00    +0.115 C 
ATOM      5  C   UNL     1       5.552  -7.759   0.187  0.00  0.00    -0.004 C 
ATOM      6  C   UNL     1       4.611  -8.960   0.169  0.00  0.00    -0.010 C 
ATOM      7  C   UNL     1       5.426 -10.238  -0.048  0.00  0.00    -0.082 C 
ATOM      8  N   UNL     1       6.412 -10.381   1.029  0.00  0.00    +0.379 N 
ATOM      9  C   UNL     1       7.370  -9.270   0.981  0.00  0.00    -0.082 C 
ATOM     10  C   UNL     1       6.638  -7.950   1.242  0.00  0.00    -0.010 C 
ATOM     11  C   UNL     1       7.248  -5.366  -1.931  0.00  0.00    +0.256 C 
ATOM     12  O   UNL     1       7.118  -4.169  -2.076  0.00  0.00    -0.272 OA
ATOM     13  H   UNL     1       5.938 -10.377   1.920  0.00  0.00    -0.086 HD
ATOM     14  H   UNL     1       6.906 -11.254   0.918  0.00  0.00    -0.086 HD
ENDROOT
BRANCH   1  16
ATOM     15  N   UNL     1       2.791  -6.981   1.865  0.00  0.00    -0.312 N 
ATOM     16  C   UNL     1       3.298  -6.775   0.633  0.00  0.00    +0.218 C 
ATOM     17  O   UNL     1       2.574  -6.836  -0.338  0.00  0.00    -0.275 OA
ATOM     18  H   UNL     1       3.370  -6.933   2.642  0.00  0.00    +0.149 HD
BRANCH  15  19
ATOM     19  C   UNL     1       1.367  -7.279   2.030  0.00  0.00    +0.148 C 
BRANCH  19  20
ATOM     20  C   UNL     1       1.055  -7.469   3.516  0.00  0.00    +0.187 C 
ATOM     21  C   UNL     1      -0.404  -7.902   3.680  0.00  0.00    +0.053 C 
BRANCH  20  22
ATOM     22  O   UNL     1       1.266  -6.237   4.208  0.00  0.00    -0.488 OA
BRANCH  22  27
ATOM     23  C   UNL     1       2.532  -6.566   9.687  0.00  0.00    +0.044 C 
ATOM     24  C   UNL     1       2.193  -6.478   8.221  0.00  0.00    -0.050 A 
ATOM     25  C   UNL     1       1.868  -7.623   7.518  0.00  0.00    +0.007 A 
ATOM     26  C   UNL     1       1.558  -7.545   6.174  0.00  0.00    +0.046 A 
ATOM     27  C   UNL     1       1.571  -6.316   5.530  0.00  0.00    +0.121 A 
ATOM     28  C   UNL     1       1.896  -5.168   6.238  0.00  0.00    +0.046 A 
ATOM     29  C   UNL     1       2.201  -5.251   7.583  0.00  0.00    +0.007 A 
ENDBRANCH  22  27
ENDBRANCH  20  22
ENDBRANCH  19  20
ENDBRANCH  15  19
ENDBRANCH   1  16
BRANCH  11  30
ATOM     30  C   UNL     1       8.518  -6.046  -2.374  0.00  0.00    +0.256 C 
ATOM     31  C   UNL     1       8.216  -6.971  -3.554  0.00  0.00    +0.062 C 
BRANCH  30  32
ATOM     32  O   UNL     1       9.471  -5.060  -2.773  0.00  0.00    -0.480 OA
BRANCH  32  33
ATOM     33  C   UNL     1      10.784  -5.406  -2.701  0.00  0.00    +0.122 A 
ATOM     34  C   UNL     1      11.767  -4.462  -2.961  0.00  0.00    +0.045 A 
ATOM     35  C   UNL     1      13.100  -4.816  -2.886  0.00  0.00    +0.004 A 
ATOM     36  C   UNL     1      13.455  -6.110  -2.554  0.00  0.00    +0.000 A 
ATOM     37  C   UNL     1      12.477  -7.053  -2.295  0.00  0.00    +0.004 A 
ATOM     38  C   UNL     1      11.143  -6.702  -2.362  0.00  0.00    +0.045 A 
ENDBRANCH  32  33
ENDBRANCH  30  32
ENDBRANCH  11  30
TORSDOF 8
