REMARK  Name = ZINC22473164
REMARK  14 active torsions:
REMARK  status: ('A' for Active; 'I' for Inactive)
REMARK    1  A    between atoms: C_1  and  O_2
REMARK    2  A    between atoms: O_2  and  C_3
REMARK    3  A    between atoms: C_5  and  C_13
REMARK    4  A    between atoms: C_7  and  O_11
REMARK    5  A    between atoms: C_8  and  O_9
REMARK    6  A    between atoms: O_9  and  C_10
REMARK    7  A    between atoms: O_11  and  C_12
REMARK    8  A    between atoms: N_15  and  C_16
REMARK    9  A    between atoms: N_15  and  C_31
REMARK   10  A    between atoms: C_16  and  C_17
REMARK   11  A    between atoms: C_17  and  C_18
REMARK   12  A    between atoms: C_18  and  N_19
REMARK   13  A    between atoms: C_22  and  O_23
REMARK   14  A    between atoms: C_31  and  C_32
REMARK                            x       y       z     vdW  Elec       q    Type
REMARK                         _______ _______ _______ _____ _____    ______ ____
ROOT
ATOM      1  C   UNL     1       0.643  -0.882   3.144  0.00  0.00    +0.247 C 
ATOM      2  O   UNL     1      -0.120  -1.662   3.679  0.00  0.00    -0.270 OA
ATOM      3  N   UNL     1       0.160   0.201   2.502  0.00  0.00    -0.293 N 
ENDROOT
BRANCH   1   6
ATOM      4  C   UNL     1       3.965  -2.637   3.097  0.00  0.00    +0.166 A 
ATOM      5  C   UNL     1       2.601  -2.416   3.049  0.00  0.00    +0.062 A 
ATOM      6  C   UNL     1       2.099  -1.121   3.196  0.00  0.00    +0.044 A 
ATOM      7  C   UNL     1       2.977  -0.051   3.386  0.00  0.00    +0.062 A 
ATOM      8  C   UNL     1       4.340  -0.278   3.439  0.00  0.00    +0.166 A 
ATOM      9  C   UNL     1       4.838  -1.570   3.292  0.00  0.00    +0.204 A 
BRANCH   4  11
ATOM     10  C   UNL     1       3.502  -4.945   2.757  0.00  0.00    +0.277 C 
ATOM     11  O   UNL     1       4.454  -3.898   2.954  0.00  0.00    -0.491 OA
ENDBRANCH   4  11
BRANCH   9  12
ATOM     12  O   UNL     1       6.178  -1.789   3.339  0.00  0.00    -0.488 OA
ATOM     13  C   UNL     1       6.890  -1.723   2.102  0.00  0.00    +0.277 C 
ENDBRANCH   9  12
BRANCH   8  14
ATOM     14  O   UNL     1       5.195   0.762   3.630  0.00  0.00    -0.491 OA
ATOM     15  C   UNL     1       4.615   2.061   3.773  0.00  0.00    +0.277 C 
ENDBRANCH   8  14
ENDBRANCH   1   6
BRANCH   3  16
ATOM     16  C   UNL     1      -1.279   0.473   2.506  0.00  0.00    +0.110 C 
BRANCH  16  17
ATOM     17  C   UNL     1      -1.931  -0.213   1.303  0.00  0.00    +0.040 C 
BRANCH  17  18
ATOM     18  C   UNL     1      -3.434   0.071   1.307  0.00  0.00    +0.114 C 
BRANCH  18  19
ATOM     19  N   UNL     1      -4.058  -0.585   0.156  0.00  0.00    -0.384 N 
ATOM     20  C   UNL     1      -5.415  -0.470  -0.051  0.00  0.00    +0.053 A 
ATOM     21  C   UNL     1      -6.202   0.254   0.808  0.00  0.00    +0.113 A 
ATOM     22  C   UNL     1      -7.579   0.353   0.571  0.00  0.00    +0.286 A 
ATOM     23  O   UNL     1      -8.162  -0.244  -0.480  0.00  0.00    -0.425 OA
ATOM     24  C   UNL     1      -7.452  -0.974  -1.368  0.00  0.00    +0.141 A 
ATOM     25  C   UNL     1      -6.065  -1.115  -1.204  0.00  0.00    +0.041 A 
ATOM     26  C   UNL     1      -5.325  -1.862  -2.122  0.00  0.00    +0.013 A 
ATOM     27  C   UNL     1      -5.964  -2.453  -3.191  0.00  0.00    +0.001 A 
ATOM     28  C   UNL     1      -7.333  -2.308  -3.355  0.00  0.00    +0.004 A 
ATOM     29  C   UNL     1      -8.077  -1.582  -2.448  0.00  0.00    +0.047 A 
ATOM     30  H   UNL     1      -3.443  -1.170  -0.544  0.00  0.00    +0.160 HD
BRANCH  22  31
ATOM     31  O   UNL     1      -8.267   1.000   1.342  0.00  0.00    -0.480 OA
ATOM     32  H   UNL     1      -9.350   1.088   1.171  0.00  0.00    +0.295 HD
ENDBRANCH  22  31
ENDBRANCH  18  19
ENDBRANCH  17  18
ENDBRANCH  16  17
ENDBRANCH   3  16
BRANCH   3  33
ATOM     33  C   UNL     1       1.075   1.105   1.801  0.00  0.00    +0.143 C 
BRANCH  33  34
ATOM     34  C   UNL     1       0.766   2.529   2.186  0.00  0.00    -0.030 A 
ATOM     35  C   UNL     1       0.348   3.430   1.224  0.00  0.00    +0.005 A 
ATOM     36  C   UNL     1       0.060   4.735   1.578  0.00  0.00    +0.000 A 
ATOM     37  C   UNL     1       0.199   5.142   2.891  0.00  0.00    +0.000 A 
ATOM     38  C   UNL     1       0.622   4.243   3.852  0.00  0.00    +0.000 A 
ATOM     39  C   UNL     1       0.905   2.936   3.500  0.00  0.00    +0.005 A 
ENDBRANCH  33  34
ENDBRANCH   3  33
TORSDOF 11
