REMARK  Name = ZINC17021148
REMARK  7 active torsions:
REMARK  status: ('A' for Active; 'I' for Inactive)
REMARK    1  A    between atoms: C_1  and  S_2
REMARK    2  A    between atoms: S_2  and  C_3
REMARK    3  A    between atoms: C_6  and  N_10
REMARK    4  A    between atoms: C_7  and  O_9
REMARK    5  A    between atoms: N_11  and  C_12
REMARK    6  A    between atoms: C_15  and  S_18
REMARK    7  A    between atoms: S_18  and  N_21
REMARK                            x       y       z     vdW  Elec       q    Type
REMARK                         _______ _______ _______ _____ _____    ______ ____
ROOT
ATOM      1  C   UNL     1       3.542   5.020  -3.928  0.00  0.00    +0.086 A 
ATOM      2  C   UNL     1       2.706   6.134  -3.817  0.00  0.00    +0.031 A 
ATOM      3  C   UNL     1       2.097   6.418  -2.613  0.00  0.00    +0.031 A 
ATOM      4  C   UNL     1       2.313   5.603  -1.516  0.00  0.00    +0.109 A 
ATOM      5  C   UNL     1       3.144   4.501  -1.616  0.00  0.00    +0.031 A 
ATOM      6  C   UNL     1       3.755   4.202  -2.816  0.00  0.00    +0.031 A 
ENDROOT
BRANCH   4   7
ATOM      7  S   UNL     1       1.530   5.973   0.019  0.00  0.00    +0.073 S 
ATOM      8  O   UNL     1       1.242   7.365   0.002  0.00  0.00    -0.150 OA
ATOM      9  O   UNL     1       2.323   5.372   1.034  0.00  0.00    -0.150 OA
BRANCH   7  10
ATOM     10  N   UNL     1       0.073   5.187   0.028  0.00  0.00    -0.199 N 
ATOM     11  C   UNL     1       0.033   3.798   0.021  0.00  0.00    +0.138 A 
ATOM     12  C   UNL     1      -1.195   3.144   0.029  0.00  0.00    +0.045 A 
ATOM     13  C   UNL     1      -1.221   1.761   0.017  0.00  0.00    +0.005 A 
ATOM     14  C   UNL     1      -0.013   1.076   0.008  0.00  0.00    +0.020 A 
ATOM     15  C   UNL     1       1.169   1.789   0.001  0.00  0.00    +0.113 A 
ATOM     16  N   UNL     1       1.163   3.109   0.007  0.00  0.00    -0.239 NA
ATOM     17  H   UNL     1      -0.753   5.696   0.039  0.00  0.00    +0.175 HD
ENDBRANCH   7  10
ENDBRANCH   4   7
BRANCH   1  19
ATOM     18  N   UNL     1       4.921   3.704  -5.218  0.00  0.00    -0.140 NA
ATOM     19  N   UNL     1       4.150   4.733  -5.119  0.00  0.00    -0.149 NA
BRANCH  18  23
ATOM     20  C   UNL     1       6.722   2.853  -8.747  0.00  0.00    +0.193 A 
ATOM     21  N   UNL     1       6.942   2.058  -7.708  0.00  0.00    -0.205 NA
ATOM     22  C   UNL     1       6.377   2.300  -6.531  0.00  0.00    +0.152 A 
ATOM     23  C   UNL     1       5.525   3.418  -6.402  0.00  0.00    +0.187 A 
ATOM     24  C   UNL     1       5.323   4.232  -7.533  0.00  0.00    +0.246 A 
ATOM     25  N   UNL     1       5.932   3.916  -8.668  0.00  0.00    -0.185 NA
ATOM     26  N   UNL     1       6.616   1.471  -5.454  0.00  0.00    -0.341 N 
ATOM     27  H   UNL     1       6.197   1.654  -4.598  0.00  0.00    +0.144 HD
ATOM     28  H   UNL     1       7.204   0.705  -5.552  0.00  0.00    +0.144 HD
BRANCH  20  30
ATOM     29  C   UNL     1       6.868   3.845 -11.293  0.00  0.00    +0.093 C 
ATOM     30  S   UNL     1       7.503   2.484 -10.282  0.00  0.00    -0.089 S 
ENDBRANCH  20  30
BRANCH  24  31
ATOM     31  O   UNL     1       4.519   5.319  -7.464  0.00  0.00    -0.491 OA
ATOM     32  H   UNL     1       4.977   6.131  -7.210  0.00  0.00    +0.294 HD
ENDBRANCH  24  31
ENDBRANCH  18  23
ENDBRANCH   1  19
TORSDOF 6
