REMARK  Name = ZINC04696911
REMARK  9 active torsions:
REMARK  status: ('A' for Active; 'I' for Inactive)
REMARK    1  A    between atoms: C_1  and  C_2
REMARK    2  A    between atoms: C_2  and  C_3
REMARK    3  A    between atoms: C_3  and  C_4
REMARK    4  A    between atoms: C_4  and  C_5
REMARK    5  A    between atoms: C_5  and  O_6
REMARK    6  A    between atoms: O_6  and  C_7
REMARK    7  A    between atoms: C_12  and  C_13
REMARK    8  A    between atoms: C_13  and  C_21
REMARK    9  A    between atoms: N_14  and  N_15
REMARK                            x       y       z     vdW  Elec       q    Type
REMARK                         _______ _______ _______ _____ _____    ______ ____
ROOT
ATOM      1  C   UNL     1       2.146  -4.590   3.504  0.00  0.00    +0.129 A 
ATOM      2  C   UNL     1       2.722  -3.836   4.513  0.00  0.00    +0.047 A 
ATOM      3  C   UNL     1       3.356  -4.461   5.570  0.00  0.00    +0.019 A 
ATOM      4  C   UNL     1       3.421  -5.844   5.629  0.00  0.00    +0.019 A 
ATOM      5  C   UNL     1       2.852  -6.610   4.632  0.00  0.00    +0.028 A 
ATOM      6  C   UNL     1       2.203  -5.989   3.562  0.00  0.00    +0.040 A 
ATOM      7 BR   UNL     1       4.292  -6.685   7.081  0.00  0.00    -0.050 Br
ENDROOT
BRANCH   6   8
ATOM      8  C   UNL     1       1.588  -6.801   2.497  0.00  0.00    +0.067 C 
ATOM      9  N   UNL     1       0.991  -6.221   1.501  0.00  0.00    -0.185 NA
ATOM     10  C   UNL     1       1.653  -8.306   2.563  0.00  0.00    +0.068 C 
BRANCH   9  11
ATOM     11  N   UNL     1       0.407  -6.993   0.489  0.00  0.00    -0.210 N 
ATOM     12  C   UNL     1      -0.224  -6.380  -0.562  0.00  0.00    +0.174 C 
ATOM     13  N   UNL     1      -0.307  -5.064  -0.677  0.00  0.00    -0.358 N 
ATOM     14  C   UNL     1      -1.041  -4.731  -1.908  0.00  0.00    +0.134 C 
ATOM     15  C   UNL     1      -1.381  -6.110  -2.508  0.00  0.00    +0.125 C 
ATOM     16  N   UNL     1      -0.794  -7.056  -1.547  0.00  0.00    -0.316 N 
ATOM     17  H   UNL     1       0.448  -7.961   0.532  0.00  0.00    +0.177 HD
ATOM     18  H   UNL     1      -0.822  -8.023  -1.622  0.00  0.00    +0.149 HD
ATOM     19  H   UNL     1       0.058  -4.421  -0.049  0.00  0.00    +0.162 HD
ENDBRANCH   9  11
ENDBRANCH   6   8
BRANCH   1  20
ATOM     20  O   UNL     1       1.522  -3.976   2.465  0.00  0.00    -0.491 OA
BRANCH  20  21
ATOM     21  C   UNL     1       1.503  -2.548   2.473  0.00  0.00    +0.229 C 
BRANCH  21  22
ATOM     22  C   UNL     1       0.763  -2.041   1.233  0.00  0.00    +0.041 C 
BRANCH  22  23
ATOM     23  C   UNL     1       0.742  -0.511   1.242  0.00  0.00    +0.003 C 
BRANCH  23  25
ATOM     24  C   UNL     1      -0.019   1.526   0.010  0.00  0.00    +0.004 C 
ATOM     25  C   UNL     1       0.002  -0.004   0.002  0.00  0.00    -0.003 C 
ENDBRANCH  23  25
ENDBRANCH  22  23
ENDBRANCH  21  22
ENDBRANCH  20  21
ENDBRANCH   1  20
TORSDOF 7
