REMARK  Name = ZINC36861730
REMARK  5 active torsions:
REMARK  status: ('A' for Active; 'I' for Inactive)
REMARK    1  A    between atoms: C_1  and  C_2
REMARK    2  A    between atoms: C_2  and  C_4
REMARK    3  A    between atoms: C_2  and  N_14
REMARK    4  A    between atoms: C_15  and  C_17
REMARK    5  A    between atoms: C_19  and  N_23
REMARK                            x       y       z     vdW  Elec       q    Type
REMARK                         _______ _______ _______ _____ _____    ______ ____
ROOT
ATOM      1  N   UNL     1       0.688  -0.476  -1.203  0.00  0.00    -0.307 N 
ATOM      2  C   UNL     1       0.006  -0.608  -2.358  0.00  0.00    +0.261 C 
ATOM      3  O   UNL     1      -1.179  -0.335  -2.400  0.00  0.00    -0.269 OA
ATOM      4  H   UNL     1       1.632  -0.695  -1.170  0.00  0.00    +0.149 HD
ENDROOT
BRANCH   2   5
ATOM      5  C   UNL     1       0.693  -1.081  -3.565  0.00  0.00    +0.104 A 
ATOM      6  C   UNL     1       0.124  -1.257  -4.809  0.00  0.00    +0.055 A 
ATOM      7  C   UNL     1       1.134  -1.719  -5.664  0.00  0.00    +0.043 A 
ATOM      8  C   UNL     1       2.279  -1.815  -4.938  0.00  0.00    +0.106 A 
ATOM      9  N   UNL     1       2.022  -1.424  -3.662  0.00  0.00    -0.355 N 
ATOM     10  H   UNL     1       2.667  -1.394  -2.938  0.00  0.00    +0.166 HD
BRANCH   7  11
ATOM     11  N   UNL     1       0.989  -2.028  -7.029  0.00  0.00    -0.357 N 
ATOM     12  H   UNL     1       0.126  -1.927  -7.460  0.00  0.00    +0.142 HD
ATOM     13  H   UNL     1       1.752  -2.343  -7.539  0.00  0.00    +0.142 HD
ENDBRANCH   7  11
ENDBRANCH   2   5
BRANCH   1  15
ATOM     14  C   UNL     1      -0.019   1.526   0.010  0.00  0.00    +0.028 C 
ATOM     15  C   UNL     1       0.002  -0.004   0.002  0.00  0.00    +0.076 C 
BRANCH  15  16
ATOM     16  C   UNL     1       0.742  -0.511   1.242  0.00  0.00    -0.010 C 
ATOM     17  C   UNL     1       2.178   0.019   1.231  0.00  0.00    +0.012 C 
ATOM     18  C   UNL     1       2.917  -0.488   2.470  0.00  0.00    -0.010 C 
ATOM     19  C   UNL     1       2.201   0.005   3.729  0.00  0.00    +0.007 C 
ATOM     20  C   UNL     1       0.766  -0.524   3.740  0.00  0.00    -0.010 C 
ATOM     21  C   UNL     1       0.026  -0.018   2.500  0.00  0.00    +0.012 C 
ATOM     22  C   UNL     1       0.787  -2.054   3.732  0.00  0.00    +0.007 C 
ATOM     23  C   UNL     1       1.503  -2.548   2.473  0.00  0.00    -0.010 C 
ATOM     24  C   UNL     1       2.938  -2.018   2.462  0.00  0.00    +0.007 C 
ATOM     25  C   UNL     1       0.763  -2.041   1.233  0.00  0.00    +0.012 C 
ENDBRANCH  15  16
ENDBRANCH   1  15
TORSDOF 4
