REMARK  Name = ZINC58465094
REMARK  7 active torsions:
REMARK  status: ('A' for Active; 'I' for Inactive)
REMARK    1  A    between atoms: C_1  and  C_2
REMARK    2  A    between atoms: C_2  and  C_3
REMARK    3  A    between atoms: C_2  and  C_4
REMARK    4  A    between atoms: C_2  and  C_5
REMARK    5  A    between atoms: C_8  and  C_11
REMARK    6  A    between atoms: C_17  and  S_24
REMARK    7  A    between atoms: S_24  and  N_27
REMARK                            x       y       z     vdW  Elec       q    Type
REMARK                         _______ _______ _______ _____ _____    ______ ____
ROOT
ATOM      1  C   UNL     1       2.707  -1.868  -4.752  0.00  0.00    +0.191 C 
ATOM      2  N   UNL     1       2.159  -3.162  -5.152  0.00  0.00    -0.322 N 
ATOM      3  C   UNL     1       2.358  -4.334  -4.429  0.00  0.00    +0.057 A 
ATOM      4  C   UNL     1       1.463  -5.389  -4.598  0.00  0.00    +0.047 A 
ATOM      5  C   UNL     1       1.643  -6.571  -3.908  0.00  0.00    +0.069 A 
ATOM      6  C   UNL     1       2.714  -6.717  -3.044  0.00  0.00    +0.125 A 
ATOM      7  C   UNL     1       3.603  -5.673  -2.866  0.00  0.00    +0.060 A 
ATOM      8  C   UNL     1       3.421  -4.487  -3.548  0.00  0.00    +0.128 A 
ATOM      9  S   UNL     1       4.537  -3.142  -3.287  0.00  0.00    +0.062 S 
ATOM     10  O   UNL     1       4.194  -2.555  -2.039  0.00  0.00    -0.153 OA
ATOM     11  O   UNL     1       5.842  -3.622  -3.579  0.00  0.00    -0.153 OA
ATOM     12  N   UNL     1       4.148  -2.028  -4.471  0.00  0.00    -0.166 NA
ATOM     13 CL   UNL     1       0.521  -7.878  -4.124  0.00  0.00    -0.081 Cl
ATOM     14  H   UNL     1       1.628  -3.206  -5.963  0.00  0.00    +0.148 HD
ATOM     15  H   UNL     1       4.825  -1.521  -4.946  0.00  0.00    +0.150 HD
ENDROOT
BRANCH   1  19
ATOM     16  C   UNL     1       0.707  -0.490  -1.238  0.00  0.00    -0.042 A 
ATOM     17  C   UNL     1       0.036  -1.284  -2.148  0.00  0.00    +0.004 A 
ATOM     18  C   UNL     1       0.683  -1.730  -3.286  0.00  0.00    +0.007 A 
ATOM     19  C   UNL     1       2.001  -1.381  -3.513  0.00  0.00    -0.011 A 
ATOM     20  C   UNL     1       2.672  -0.586  -2.603  0.00  0.00    +0.007 A 
ATOM     21  C   UNL     1       2.024  -0.137  -1.467  0.00  0.00    +0.004 A 
BRANCH  16  23
ATOM     22  C   UNL     1      -0.019   1.526   0.010  0.00  0.00    +0.015 C 
ATOM     23  C   UNL     1       0.002  -0.004   0.002  0.00  0.00    -0.013 C 
ATOM     24  C   UNL     1       0.742  -0.511   1.242  0.00  0.00    +0.015 C 
ATOM     25  C   UNL     1      -1.433  -0.534   0.013  0.00  0.00    +0.015 C 
ENDBRANCH  16  23
ENDBRANCH   1  19
BRANCH   6  26
ATOM     26  S   UNL     1       2.945  -8.231  -2.172  0.00  0.00    +0.057 S 
ATOM     27  O   UNL     1       2.838  -9.273  -3.132  0.00  0.00    -0.153 OA
ATOM     28  O   UNL     1       4.098  -8.060  -1.359  0.00  0.00    -0.153 OA
BRANCH  26  29
ATOM     29  N   UNL     1       1.660  -8.403  -1.142  0.00  0.00    -0.203 NA
ATOM     30  H   UNL     1       0.967  -7.726  -1.113  0.00  0.00    +0.144 HD
ATOM     31  H   UNL     1       1.601  -9.182  -0.567  0.00  0.00    +0.144 HD
ENDBRANCH  26  29
ENDBRANCH   6  26
TORSDOF 4
