REMARK  Name = ZINC08734786
REMARK  12 active torsions:
REMARK  status: ('A' for Active; 'I' for Inactive)
REMARK    1  A    between atoms: C_1  and  C_2
REMARK    2  A    between atoms: C_2  and  O_3
REMARK    3  A    between atoms: O_3  and  C_4
REMARK    4  A    between atoms: C_9  and  C_10
REMARK    5  A    between atoms: C_10  and  N_66
REMARK    6  A    between atoms: C_11  and  C_13
REMARK    7  A    between atoms: C_11  and  C_14
REMARK    8  A    between atoms: C_11  and  N_66
REMARK    9  A    between atoms: N_16  and  C_17
REMARK   10  A    between atoms: C_20  and  S_23
REMARK   11  A    between atoms: S_23  and  N_26
REMARK   12  A    between atoms: C_32  and  C_35
REMARK                            x       y       z     vdW  Elec       q    Type
REMARK                         _______ _______ _______ _____ _____    ______ ____
ROOT
ATOM      1  C   UNL     1      -0.118   0.963   0.011  0.00  0.00    +0.014 C 
ATOM      2  C   UNL     1       1.239   1.659  -0.110  0.00  0.00    -0.004 C 
ENDROOT
BRANCH   1   3
ATOM      3  C   UNL     1      -0.815   1.437   1.261  0.00  0.00    +0.203 C 
ATOM      4  O   UNL     1      -1.891   1.990   1.183  0.00  0.00    -0.277 OA
ATOM      5  N   UNL     1      -0.242   1.246   2.466  0.00  0.00    -0.287 N 
ATOM      6  H   UNL     1       0.581   0.737   2.536  0.00  0.00    +0.155 HD
BRANCH   5   7
ATOM      7  C   UNL     1      -0.833   1.782   3.615  0.00  0.00    +0.033 A 
ATOM      8  C   UNL     1      -1.514   2.991   3.548  0.00  0.00    +0.025 A 
ATOM      9  C   UNL     1      -2.101   3.514   4.683  0.00  0.00    +0.030 A 
ATOM     10  C   UNL     1      -2.003   2.842   5.887  0.00  0.00    +0.106 A 
ATOM     11  C   UNL     1      -1.321   1.641   5.958  0.00  0.00    +0.030 A 
ATOM     12  C   UNL     1      -0.736   1.109   4.826  0.00  0.00    +0.025 A 
BRANCH  10  13
ATOM     13  S   UNL     1      -2.748   3.517   7.334  0.00  0.00    +0.061 S 
ATOM     14  O   UNL     1      -3.791   4.374   6.892  0.00  0.00    -0.153 OA
ATOM     15  O   UNL     1      -2.981   2.427   8.217  0.00  0.00    -0.153 OA
BRANCH  13  16
ATOM     16  N   UNL     1      -1.618   4.483   8.063  0.00  0.00    -0.177 NA
ATOM     17  C   UNL     1      -0.648   4.050   9.080  0.00  0.00    +0.109 C 
ATOM     18  C   UNL     1       0.178   5.290   9.481  0.00  0.00    +0.018 C 
ATOM     19  C   UNL     1      -0.752   6.468   9.089  0.00  0.00    +0.018 C 
ATOM     20  C   UNL     1      -1.421   5.921   7.803  0.00  0.00    +0.109 C 
ENDBRANCH  13  16
ENDBRANCH  10  13
ENDBRANCH   5   7
ENDBRANCH   1   3
BRANCH   1  21
ATOM     21  N   UNL     1      -0.949   1.295  -1.161  0.00  0.00    +0.389 N 
ATOM     22  H   UNL     1      -1.940   1.208  -0.910  0.00  0.00    -0.084 HD
ATOM     23  H   UNL     1      -0.753   2.260  -1.453  0.00  0.00    -0.084 HD
BRANCH  21  24
ATOM     24  C   UNL     1      -0.647   0.380  -2.278  0.00  0.00    -0.042 C 
BRANCH  24  30
ATOM     25  C   UNL     1      -1.152   1.806  -4.274  0.00  0.00    +0.122 A 
ATOM     26  C   UNL     1      -1.947   2.134  -5.364  0.00  0.00    +0.053 A 
ATOM     27  C   UNL     1      -3.083   1.403  -5.630  0.00  0.00    +0.001 A 
ATOM     28  C   UNL     1      -3.453   0.340  -4.817  0.00  0.00    +0.125 A 
ATOM     29  C   UNL     1      -2.647   0.010  -3.731  0.00  0.00    +0.051 A 
ATOM     30  C   UNL     1      -1.509   0.742  -3.460  0.00  0.00    -0.019 A 
ATOM     31  O   UNL     1      -4.611  -0.232  -5.250  0.00  0.00    -0.488 OA
ATOM     32  C   UNL     1      -4.837   0.136  -6.621  0.00  0.00    +0.175 C 
ATOM     33  C   UNL     1      -4.121   1.503  -6.731  0.00  0.00    +0.083 C 
ATOM     34  C   UNL     1      -4.203  -0.886  -7.567  0.00  0.00    +0.052 C 
BRANCH  25  35
ATOM     35  O   UNL     1      -0.029   2.525  -4.007  0.00  0.00    -0.492 OA
BRANCH  35  37
ATOM     36  C   UNL     1       1.564   4.292  -4.432  0.00  0.00    +0.048 C 
ATOM     37  C   UNL     1       0.275   3.607  -4.889  0.00  0.00    +0.225 C 
ENDBRANCH  35  37
ENDBRANCH  25  35
ENDBRANCH  24  30
ENDBRANCH  21  24
ENDBRANCH   1  21
TORSDOF 9
