REMARK  Name = ZINC39517951
REMARK  4 active torsions:
REMARK  status: ('A' for Active; 'I' for Inactive)
REMARK    1  A    between atoms: C_1  and  C_2
REMARK    2  A    between atoms: N_11  and  C_15
REMARK    3  A    between atoms: C_15  and  C_16
REMARK    4  A    between atoms: C_21  and  C_24
REMARK                            x       y       z     vdW  Elec       q    Type
REMARK                         _______ _______ _______ _____ _____    ______ ____
ROOT
ATOM      1  C   UNL     1       3.283   2.947   2.363  0.00  0.00    +0.237 C 
ATOM      2  O   UNL     1       2.356   3.291   1.662  0.00  0.00    -0.274 OA
ATOM      3  N   UNL     1       4.262   3.824   2.664  0.00  0.00    -0.263 N 
ATOM      4  C   UNL     1       4.209   5.121   2.169  0.00  0.00    +0.165 A 
ATOM      5  N   UNL     1       5.068   6.098   2.353  0.00  0.00    -0.225 NA
ATOM      6  C   UNL     1       4.875   7.293   1.808  0.00  0.00    +0.082 A 
ATOM      7  C   UNL     1       3.745   7.446   1.055  0.00  0.00    +0.077 A 
ATOM      8  S   UNL     1       3.032   5.815   1.187  0.00  0.00    -0.060 S 
ATOM      9  H   UNL     1       5.004   3.549   3.225  0.00  0.00    +0.157 HD
ENDROOT
BRANCH   6  10
ATOM     10  C   UNL     1       5.837   8.406   2.007  0.00  0.00    +0.028 A 
ATOM     11  C   UNL     1       5.670   9.618   1.343  0.00  0.00    +0.039 A 
ATOM     12  C   UNL     1       6.568  10.608   1.551  0.00  0.00    +0.080 A 
ATOM     13  S   UNL     1       7.699   9.857   2.708  0.00  0.00    -0.065 S 
ATOM     14  C   UNL     1       6.903   8.265   2.850  0.00  0.00    +0.089 A 
ATOM     15 CL   UNL     1       7.364   6.894   3.810  0.00  0.00    -0.075 Cl
ATOM     16 CL   UNL     1       6.610  12.203   0.866  0.00  0.00    -0.076 Cl
ENDBRANCH   6  10
BRANCH   1  17
ATOM     17  C   UNL     1       3.341   1.540   2.899  0.00  0.00    +0.214 C 
BRANCH  17  27
ATOM     18  C   UNL     1      -0.022   1.529   0.010  0.00  0.00    +0.010 C 
ATOM     19  C   UNL     1      -0.000  -0.001  -0.004  0.00  0.00    +0.018 C 
ATOM     20  C   UNL     1       0.710  -0.489  -1.270  0.00  0.00    +0.006 C 
ATOM     21  C   UNL     1       0.750  -2.018  -1.274  0.00  0.00    +0.000 C 
ATOM     22  C   UNL     1       1.519  -2.512  -0.046  0.00  0.00    +0.003 C 
ATOM     23  C   UNL     1       0.811  -2.033   1.224  0.00  0.00    +0.035 C 
ATOM     24  C   UNL     1       0.742  -0.510   1.226  0.00  0.00    +0.115 C 
ATOM     25  C   UNL     1       2.131   0.082   1.287  0.00  0.00    +0.247 C 
ATOM     26  O   UNL     1       3.022  -0.052   0.476  0.00  0.00    -0.273 OA
ATOM     27  N   UNL     1       2.171   0.791   2.434  0.00  0.00    -0.215 N 
ATOM     28  C   UNL     1       1.008   0.726   3.095  0.00  0.00    +0.310 C 
ATOM     29  O   UNL     1       0.801   1.284   4.154  0.00  0.00    -0.252 OA
ATOM     30  N   UNL     1       0.095  -0.027   2.453  0.00  0.00    -0.285 N 
ATOM     31  H   UNL     1      -0.812  -0.213   2.743  0.00  0.00    +0.151 HD
ENDBRANCH  17  27
ENDBRANCH   1  17
TORSDOF 3
