REMARK  Name = ZINC65534602
REMARK  6 active torsions:
REMARK  status: ('A' for Active; 'I' for Inactive)
REMARK    1  A    between atoms: C_1  and  C_2
REMARK    2  A    between atoms: C_2  and  C_3
REMARK    3  A    between atoms: C_2  and  C_4
REMARK    4  A    between atoms: C_4  and  C_5
REMARK    5  A    between atoms: C_8  and  C_20
REMARK    6  A    between atoms: N_10  and  C_12
REMARK                            x       y       z     vdW  Elec       q    Type
REMARK                         _______ _______ _______ _____ _____    ______ ____
ROOT
ATOM      1  C   UNL     1      -2.135  -0.131  -1.286  0.00  0.00    +0.141 C 
ATOM      2  N   UNL     1      -3.554  -0.584  -1.283  0.00  0.00    -0.276 NA
ATOM      3  C   UNL     1      -3.852  -0.723  -2.729  0.00  0.00    +0.206 C 
ATOM      4  N   UNL     1      -2.551  -0.873  -3.402  0.00  0.00    -0.240 N 
ATOM      5  N   UNL     1      -1.563  -0.864  -2.444  0.00  0.00    -0.221 NA
ATOM      6  H   UNL     1      -3.650  -1.469  -0.807  0.00  0.00    +0.126 HD
ATOM      7  H   UNL     1      -1.304  -1.804  -2.185  0.00  0.00    +0.146 HD
ENDROOT
BRANCH   3   8
ATOM      8  C   UNL     1      -4.559   0.508  -3.234  0.00  0.00    +0.062 A 
ATOM      9  N   UNL     1      -3.964   1.735  -3.127  0.00  0.00    -0.308 N 
ATOM     10  C   UNL     1      -4.587   2.841  -3.575  0.00  0.00    +0.327 A 
ATOM     11  O   UNL     1      -4.040   3.921  -3.470  0.00  0.00    -0.247 OA
ATOM     12  N   UNL     1      -5.807   2.767  -4.137  0.00  0.00    -0.275 N 
ATOM     13  C   UNL     1      -6.428   1.576  -4.261  0.00  0.00    +0.254 A 
ATOM     14  O   UNL     1      -7.532   1.508  -4.769  0.00  0.00    -0.268 OA
ATOM     15  C   UNL     1      -5.781   0.405  -3.798  0.00  0.00    +0.094 A 
ATOM     16  H   UNL     1      -6.243   3.574  -4.455  0.00  0.00    +0.173 HD
ATOM     17  H   UNL     1      -3.084   1.809  -2.725  0.00  0.00    +0.170 HD
ENDBRANCH   3   8
BRANCH   4  18
ATOM     18  C   UNL     1      -2.351  -0.999  -4.780  0.00  0.00    +0.083 A 
ATOM     19  C   UNL     1      -2.856  -0.038  -5.647  0.00  0.00    +0.027 A 
ATOM     20  C   UNL     1      -2.657  -0.165  -7.008  0.00  0.00    +0.003 A 
ATOM     21  C   UNL     1      -1.956  -1.246  -7.510  0.00  0.00    +0.023 A 
ATOM     22  C   UNL     1      -1.452  -2.206  -6.650  0.00  0.00    +0.078 A 
ATOM     23  C   UNL     1      -1.642  -2.083  -5.285  0.00  0.00    +0.164 A 
ATOM     24  F   UNL     1      -1.145  -3.017  -4.445  0.00  0.00    -0.202 F 
ATOM     25 CL   UNL     1      -0.573  -3.562  -7.285  0.00  0.00    -0.081 Cl
ENDBRANCH   4  18
BRANCH   1  26
ATOM     26  C   UNL     1      -1.433  -0.534   0.013  0.00  0.00    +0.039 C 
BRANCH  26  28
ATOM     27  C   UNL     1      -0.019   1.526   0.010  0.00  0.00    +0.007 C 
ATOM     28  C   UNL     1       0.002  -0.004   0.002  0.00  0.00    -0.014 C 
ATOM     29  C   UNL     1       0.742  -0.511   1.242  0.00  0.00    +0.007 C 
ENDBRANCH  26  28
ENDBRANCH   1  26
TORSDOF 4
