REMARK  Name = ZINC51633781
REMARK  7 active torsions:
REMARK  status: ('A' for Active; 'I' for Inactive)
REMARK    1  A    between atoms: C_1  and  C_2
REMARK    2  A    between atoms: C_2  and  C_3
REMARK    3  A    between atoms: C_2  and  C_4
REMARK    4  A    between atoms: C_4  and  C_6
REMARK    5  A    between atoms: C_4  and  C_10
REMARK    6  A    between atoms: N_7  and  O_8
REMARK    7  A    between atoms: N_12  and  C_13
REMARK                            x       y       z     vdW  Elec       q    Type
REMARK                         _______ _______ _______ _____ _____    ______ ____
ROOT
ATOM      1  C   UNL     1       2.323   0.441  -1.338  0.00  0.00    +0.224 C 
ATOM      2  O   UNL     1       3.348  -0.195  -1.459  0.00  0.00    -0.275 OA
ATOM      3  N   UNL     1       2.371   1.784  -1.235  0.00  0.00    -0.312 N 
ATOM      4  H   UNL     1       1.560   2.287  -1.063  0.00  0.00    +0.149 HD
ENDROOT
BRANCH   3   5
ATOM      5  C   UNL     1       3.650   2.484  -1.384  0.00  0.00    +0.078 C 
ATOM      6  C   UNL     1       3.398   3.929  -1.833  0.00  0.00    +0.027 C 
ATOM      7  C   UNL     1       4.738   4.557  -2.209  0.00  0.00    +0.037 C 
ATOM      8  C   UNL     1       5.743   4.361  -1.104  0.00  0.00    -0.044 A 
ATOM      9  C   UNL     1       6.870   5.174  -1.103  0.00  0.00    +0.004 A 
ATOM     10  C   UNL     1       7.829   5.041  -0.121  0.00  0.00    +0.000 A 
ATOM     11  C   UNL     1       7.670   4.090   0.870  0.00  0.00    +0.000 A 
ATOM     12  C   UNL     1       6.551   3.283   0.872  0.00  0.00    +0.004 A 
ATOM     13  C   UNL     1       5.582   3.419  -0.114  0.00  0.00    -0.042 A 
ATOM     14  C   UNL     1       4.378   2.515  -0.042  0.00  0.00    +0.057 C 
ENDBRANCH   3   5
BRANCH   1  15
ATOM     15  C   UNL     1       0.994  -0.270  -1.302  0.00  0.00    +0.144 C 
BRANCH  15  16
ATOM     16  C   UNL     1       1.172  -1.690  -1.772  0.00  0.00    +0.144 C 
ATOM     17  N   UNL     1       1.373  -2.635  -0.914  0.00  0.00    -0.076 NA
ATOM     18  N   UNL     1       1.120  -1.982  -3.117  0.00  0.00    -0.343 N 
ATOM     19  H   UNL     1       0.970  -1.273  -3.762  0.00  0.00    +0.144 HD
ATOM     20  H   UNL     1       1.234  -2.896  -3.420  0.00  0.00    +0.144 HD
BRANCH  17  21
ATOM     21  O   UNL     1       1.539  -3.970  -1.356  0.00  0.00    -0.408 OA
ATOM     22  H   UNL     1       1.684  -4.605  -0.642  0.00  0.00    +0.328 HD
ENDBRANCH  17  21
ENDBRANCH  15  16
BRANCH  15  24
ATOM     23  C   UNL     1      -0.825  -1.106   0.193  0.00  0.00    +0.008 C 
ATOM     24  C   UNL     1       0.455  -0.270   0.130  0.00  0.00    +0.002 C 
ATOM     25  C   UNL     1       1.503  -0.871   1.069  0.00  0.00    +0.008 C 
ENDBRANCH  15  24
ENDBRANCH   1  15
TORSDOF 5
