REMARK  Name = ZINC61886608
REMARK  5 active torsions:
REMARK  status: ('A' for Active; 'I' for Inactive)
REMARK    1  A    between atoms: C_4  and  C_7
REMARK    2  A    between atoms: C_7  and  C_8
REMARK    3  A    between atoms: N_10  and  C_11
REMARK    4  A    between atoms: C_16  and  C_18
REMARK    5  A    between atoms: N_19  and  O_20
REMARK                            x       y       z     vdW  Elec       q    Type
REMARK                         _______ _______ _______ _____ _____    ______ ____
ROOT
ATOM      1  C   UNL     1       3.882  -4.085  -3.449  0.00  0.00    +0.083 C 
ATOM      2  C   UNL     1       5.243  -4.573  -2.911  0.00  0.00    +0.023 C 
ATOM      3  C   UNL     1       5.540  -5.852  -3.733  0.00  0.00    +0.003 C 
ATOM      4  C   UNL     1       5.015  -5.481  -5.143  0.00  0.00    +0.013 C 
ATOM      5  C   UNL     1       3.736  -4.662  -4.868  0.00  0.00    +0.076 C 
ENDROOT
BRANCH   5   6
ATOM      6  C   UNL     1       3.613  -3.544  -5.870  0.00  0.00    +0.136 C 
ATOM      7  N   UNL     1       2.446  -3.161  -6.271  0.00  0.00    -0.076 NA
ATOM      8  N   UNL     1       4.745  -2.929  -6.358  0.00  0.00    -0.344 N 
ATOM      9  H   UNL     1       5.621  -3.216  -6.057  0.00  0.00    +0.144 HD
ATOM     10  H   UNL     1       4.666  -2.209  -7.003  0.00  0.00    +0.144 HD
BRANCH   7  11
ATOM     11  O   UNL     1       1.281  -3.714  -5.687  0.00  0.00    -0.408 OA
ATOM     12  H   UNL     1       0.457  -3.312  -5.997  0.00  0.00    +0.328 HD
ENDBRANCH   7  11
ENDBRANCH   5   6
BRANCH   1  15
ATOM     13  C   UNL     1       3.380  -1.920  -2.451  0.00  0.00    +0.214 C 
ATOM     14  O   UNL     1       2.971  -2.500  -1.468  0.00  0.00    -0.276 OA
ATOM     15  N   UNL     1       3.858  -2.621  -3.498  0.00  0.00    -0.312 N 
ATOM     16  H   UNL     1       4.185  -2.156  -4.284  0.00  0.00    +0.149 HD
BRANCH  13  17
ATOM     17  C   UNL     1       3.355  -0.414  -2.501  0.00  0.00    +0.099 C 
BRANCH  17  21
ATOM     18  C   UNL     1       0.810   1.777   0.229  0.00  0.00    +0.000 C 
ATOM     19  C   UNL     1       2.275   2.202   0.110  0.00  0.00    +0.000 C 
ATOM     20  C   UNL     1       2.860   1.658  -1.195  0.00  0.00    +0.004 C 
ATOM     21  C   UNL     1       2.771   0.131  -1.196  0.00  0.00    -0.002 C 
ATOM     22  C   UNL     1       1.306  -0.295  -1.077  0.00  0.00    +0.004 C 
ATOM     23  C   UNL     1       0.721   0.250   0.228  0.00  0.00    +0.000 C 
ENDBRANCH  17  21
ENDBRANCH  13  17
ENDBRANCH   1  15
TORSDOF 5
