REMARK  Name = ZINC11762824
REMARK  5 active torsions:
REMARK  status: ('A' for Active; 'I' for Inactive)
REMARK    1  A    between atoms: C_1  and  C_2
REMARK    2  A    between atoms: N_11  and  C_15
REMARK    3  A    between atoms: C_15  and  C_16
REMARK    4  A    between atoms: N_25  and  C_28
REMARK    5  A    between atoms: C_28  and  C_29
REMARK                            x       y       z     vdW  Elec       q    Type
REMARK                         _______ _______ _______ _____ _____    ______ ____
ROOT
ATOM      1  C   UNL     1       1.154   0.526   5.534  0.00  0.00    +0.237 C 
ATOM      2  O   UNL     1       1.567  -0.591   5.305  0.00  0.00    -0.274 OA
ATOM      3  N   UNL     1       1.032   0.953   6.806  0.00  0.00    -0.263 N 
ATOM      4  C   UNL     1       1.380   0.112   7.857  0.00  0.00    +0.165 A 
ATOM      5  N   UNL     1       1.847  -1.117   7.801  0.00  0.00    -0.229 NA
ATOM      6  C   UNL     1       2.138  -1.805   8.897  0.00  0.00    +0.050 A 
ATOM      7  C   UNL     1       1.916  -1.146  10.066  0.00  0.00    -0.002 A 
ATOM      8  S   UNL     1       1.313   0.422   9.513  0.00  0.00    -0.059 S 
ATOM      9  C   UNL     1       2.143  -1.666  11.443  0.00  0.00    -0.033 C 
ATOM     10  N   UNL     1       2.298  -3.131  11.364  0.00  0.00    +0.386 N 
ATOM     11  C   UNL     1       3.280  -3.466  10.325  0.00  0.00    -0.072 C 
ATOM     12  C   UNL     1       2.687  -3.226   8.932  0.00  0.00    +0.038 C 
ATOM     13  H   UNL     1       0.701   1.846   6.989  0.00  0.00    +0.157 HD
ATOM     14  H   UNL     1       1.410  -3.551  11.136  0.00  0.00    -0.081 HD
ENDROOT
BRANCH   1  15
ATOM     15  C   UNL     1       0.777   1.438   4.394  0.00  0.00    +0.214 C 
BRANCH  15  25
ATOM     16  C   UNL     1      -0.019   1.526   0.010  0.00  0.00    +0.010 C 
ATOM     17  C   UNL     1       0.002  -0.004   0.002  0.00  0.00    +0.018 C 
ATOM     18  C   UNL     1       0.718  -0.498  -1.258  0.00  0.00    +0.006 C 
ATOM     19  C   UNL     1       0.756  -2.027  -1.255  0.00  0.00    +0.000 C 
ATOM     20  C   UNL     1       1.516  -2.519  -0.021  0.00  0.00    +0.003 C 
ATOM     21  C   UNL     1       0.803  -2.032   1.243  0.00  0.00    +0.035 C 
ATOM     22  C   UNL     1       0.739  -0.509   1.238  0.00  0.00    +0.115 C 
ATOM     23  C   UNL     1       0.069  -0.004   2.495  0.00  0.00    +0.247 C 
ATOM     24  O   UNL     1      -1.064  -0.228   2.863  0.00  0.00    -0.273 OA
ATOM     25  N   UNL     1       0.998   0.746   3.122  0.00  0.00    -0.215 N 
ATOM     26  C   UNL     1       2.148   0.781   2.437  0.00  0.00    +0.310 C 
ATOM     27  O   UNL     1       3.133   1.393   2.801  0.00  0.00    -0.252 OA
ATOM     28  N   UNL     1       2.091   0.063   1.300  0.00  0.00    -0.285 N 
ATOM     29  H   UNL     1       2.801  -0.054   0.650  0.00  0.00    +0.151 HD
ENDBRANCH  15  25
ENDBRANCH   1  15
BRANCH  10  30
ATOM     30  C   UNL     1       2.763  -3.645  12.660  0.00  0.00    -0.043 C 
BRANCH  30  31
ATOM     31  C   UNL     1       1.700  -3.412  13.703  0.00  0.00    -0.064 A 
ATOM     32  C   UNL     1       1.690  -2.235  14.428  0.00  0.00    +0.002 A 
ATOM     33  C   UNL     1       0.716  -2.021  15.385  0.00  0.00    +0.000 A 
ATOM     34  C   UNL     1      -0.249  -2.984  15.616  0.00  0.00    +0.000 A 
ATOM     35  C   UNL     1      -0.239  -4.160  14.890  0.00  0.00    +0.000 A 
ATOM     36  C   UNL     1       0.733  -4.372  13.930  0.00  0.00    +0.002 A 
ENDBRANCH  30  31
ENDBRANCH  10  30
TORSDOF 4
