REMARK  Name = ZINC03203668
REMARK  10 active torsions:
REMARK  status: ('A' for Active; 'I' for Inactive)
REMARK    1  A    between atoms: C_1  and  C_2
REMARK    2  A    between atoms: C_2  and  C_3
REMARK    3  A    between atoms: C_3  and  C_4
REMARK    4  A    between atoms: C_7  and  O_32
REMARK    5  A    between atoms: C_8  and  C_22
REMARK    6  A    between atoms: C_9  and  C_18
REMARK    7  A    between atoms: C_12  and  C_15
REMARK    8  A    between atoms: C_15  and  N_57
REMARK    9  A    between atoms: C_16  and  N_57
REMARK   10  A    between atoms: C_17  and  N_57
REMARK                            x       y       z     vdW  Elec       q    Type
REMARK                         _______ _______ _______ _____ _____    ______ ____
ROOT
ATOM      1  C   UNL     1      -7.808  -2.130   2.102  0.00  0.00    +0.000 A 
ATOM      2  C   UNL     1      -6.656  -1.414   2.164  0.00  0.00    +0.022 A 
ATOM      3  C   UNL     1      -5.751  -1.448   1.088  0.00  0.00    +0.060 A 
ATOM      4  C   UNL     1      -4.548  -0.712   1.131  0.00  0.00    +0.139 A 
ATOM      5  C   UNL     1      -3.680  -0.786   0.019  0.00  0.00    +0.071 A 
ATOM      6  C   UNL     1      -4.029  -1.558  -1.064  0.00  0.00    +0.219 A 
ATOM      7  O   UNL     1      -5.169  -2.254  -1.089  0.00  0.00    -0.450 OA
ATOM      8  C   UNL     1      -6.038  -2.225  -0.059  0.00  0.00    +0.144 A 
ATOM      9  C   UNL     1      -7.214  -2.949  -0.111  0.00  0.00    +0.026 A 
ATOM     10  C   UNL     1      -8.104  -2.906   0.966  0.00  0.00    +0.187 A 
ATOM     11  O   UNL     1      -9.239  -3.604   0.916  0.00  0.00    -0.287 OA
ENDROOT
BRANCH   5  12
ATOM     12  C   UNL     1      -2.403  -0.030   0.016  0.00  0.00    -0.007 A 
ATOM     13  C   UNL     1      -2.416   1.363   0.027  0.00  0.00    +0.012 A 
ATOM     14  C   UNL     1      -1.228   2.064   0.019  0.00  0.00    +0.050 A 
ATOM     15  C   UNL     1      -0.017   1.387   0.010  0.00  0.00    +0.162 A 
ATOM     16  C   UNL     1       0.002  -0.004   0.002  0.00  0.00    +0.163 A 
ATOM     17  C   UNL     1      -1.189  -0.712   0.004  0.00  0.00    +0.058 A 
ATOM     18  O   UNL     1       1.181  -0.685  -0.007  0.00  0.00    -0.485 OA
ATOM     19  C   UNL     1       2.347   0.053  -0.387  0.00  0.00    +0.270 C 
ATOM     20  C   UNL     1       2.335   1.391   0.365  0.00  0.00    +0.270 C 
ATOM     21  O   UNL     1       1.144   2.098   0.002  0.00  0.00    -0.485 OA
ENDBRANCH   5  12
BRANCH   6  22
ATOM     22  C   UNL     1      -3.100  -1.625  -2.249  0.00  0.00    +0.451 C 
ATOM     23  F   UNL     1      -2.198  -2.681  -2.075  0.00  0.00    -0.163 F 
ATOM     24  F   UNL     1      -3.845  -1.835  -3.414  0.00  0.00    -0.163 F 
ATOM     25  F   UNL     1      -2.394  -0.422  -2.357  0.00  0.00    -0.163 F 
ENDBRANCH   6  22
BRANCH   4  26
ATOM     26  O   UNL     1      -4.235   0.043   2.205  0.00  0.00    -0.505 OA
ATOM     27  H   UNL     1      -4.554   0.954   2.152  0.00  0.00    +0.292 HD
ENDBRANCH   4  26
BRANCH   1  28
ATOM     28  C   UNL     1      -8.776  -2.092   3.257  0.00  0.00    +0.039 C 
BRANCH  28  30
ATOM     29  C   UNL     1      -9.496  -3.245   5.353  0.00  0.00    +0.004 C 
ATOM     30  C   UNL     1      -8.514  -3.283   4.181  0.00  0.00    +0.001 C 
ENDBRANCH  28  30
ENDBRANCH   1  28
BRANCH   9  31
ATOM     31  C   UNL     1      -7.535  -3.783  -1.325  0.00  0.00    -0.036 C 
BRANCH  31  34
ATOM     32  C   UNL     1      -7.447  -1.885  -2.826  0.00  0.00    -0.096 C 
ATOM     33  C   UNL     1      -8.817  -3.803  -3.379  0.00  0.00    -0.096 C 
ATOM     34  N   UNL     1      -8.304  -2.958  -2.280  0.00  0.00    +0.379 N 
ATOM     35  H   UNL     1      -9.099  -2.532  -1.788  0.00  0.00    -0.082 HD
ENDBRANCH  31  34
ENDBRANCH   9  31
TORSDOF 7
