REMARK  Name = ZINC45483233
REMARK  13 active torsions:
REMARK  status: ('A' for Active; 'I' for Inactive)
REMARK    1  A    between atoms: C_1  and  C_2
REMARK    2  A    between atoms: C_2  and  C_3
REMARK    3  A    between atoms: C_2  and  C_4
REMARK    4  A    between atoms: C_4  and  C_6
REMARK    5  A    between atoms: C_4  and  N_23
REMARK    6  A    between atoms: C_6  and  N_7
REMARK    7  A    between atoms: N_10  and  C_11
REMARK    8  A    between atoms: C_11  and  C_12
REMARK    9  A    between atoms: C_12  and  C_14
REMARK   10  A    between atoms: C_12  and  O_22
REMARK   11  A    between atoms: C_17  and  O_20
REMARK   12  A    between atoms: O_20  and  C_21
REMARK   13  A    between atoms: N_23  and  C_24
REMARK                            x       y       z     vdW  Elec       q    Type
REMARK                         _______ _______ _______ _____ _____    ______ ____
ROOT
ATOM      1  N   UNL     1      -2.889  -2.369   0.546  0.00  0.00    -0.298 N 
ATOM      2  C   UNL     1      -3.216  -3.652   0.795  0.00  0.00    +0.300 C 
ATOM      3  O   UNL     1      -2.344  -4.492   0.902  0.00  0.00    -0.253 OA
ATOM      4  N   UNL     1      -4.511  -4.004   0.927  0.00  0.00    -0.297 N 
ATOM      5  H   UNL     1      -3.585  -1.698   0.461  0.00  0.00    +0.150 HD
ATOM      6  H   UNL     1      -5.207  -3.334   0.842  0.00  0.00    +0.150 HD
ENDROOT
BRANCH   1   7
ATOM      7  C   UNL     1      -1.482  -1.986   0.404  0.00  0.00    +0.128 C 
BRANCH   7   8
ATOM      8  C   UNL     1      -1.387  -0.484   0.127  0.00  0.00    +0.090 C 
BRANCH   8  10
ATOM      9  C   UNL     1       0.147   1.363  -0.564  0.00  0.00    +0.009 C 
ATOM     10  C   UNL     1       0.070  -0.107  -0.145  0.00  0.00    +0.005 C 
ATOM     11  C   UNL     1       0.897  -0.319   1.124  0.00  0.00    +0.009 C 
ENDBRANCH   8  10
BRANCH   8  12
ATOM     12  N   UNL     1      -2.205  -0.151  -1.042  0.00  0.00    -0.339 N 
ATOM     13  H   UNL     1      -1.997  -0.539  -1.906  0.00  0.00    +0.146 HD
BRANCH  12  14
ATOM     14  C   UNL     1      -3.284   0.727  -0.912  0.00  0.00    +0.027 A 
ATOM     15  C   UNL     1      -3.681   1.160   0.346  0.00  0.00    +0.023 A 
ATOM     16  C   UNL     1      -4.748   2.028   0.470  0.00  0.00    +0.002 A 
ATOM     17  C   UNL     1      -5.420   2.466  -0.656  0.00  0.00    +0.000 A 
ATOM     18  C   UNL     1      -5.027   2.037  -1.910  0.00  0.00    +0.002 A 
ATOM     19  C   UNL     1      -3.957   1.173  -2.042  0.00  0.00    +0.023 A 
ENDBRANCH  12  14
ENDBRANCH   8  12
ENDBRANCH   7   8
ENDBRANCH   1   7
BRANCH   4  20
ATOM     20  C   UNL     1      -4.867  -5.399   1.198  0.00  0.00    +0.141 C 
BRANCH  20  21
ATOM     21  C   UNL     1      -6.388  -5.527   1.300  0.00  0.00    +0.162 C 
BRANCH  21  22
ATOM     22  C   UNL     1      -6.754  -6.962   1.579  0.00  0.00    -0.017 A 
ATOM     23  C   UNL     1      -6.765  -7.431   2.879  0.00  0.00    +0.010 A 
ATOM     24  C   UNL     1      -7.100  -8.746   3.137  0.00  0.00    +0.046 A 
ATOM     25  C   UNL     1      -7.426  -9.596   2.090  0.00  0.00    +0.120 A 
ATOM     26  C   UNL     1      -7.415  -9.123   0.786  0.00  0.00    +0.046 A 
ATOM     27  C   UNL     1      -7.084  -7.805   0.534  0.00  0.00    +0.010 A 
BRANCH  25  28
ATOM     28  O   UNL     1      -7.755 -10.890   2.341  0.00  0.00    -0.495 OA
ATOM     29  C   UNL     1      -8.080 -11.708   1.215  0.00  0.00    +0.277 C 
ENDBRANCH  25  28
ENDBRANCH  21  22
BRANCH  21  30
ATOM     30  O   UNL     1      -6.865  -4.698   2.362  0.00  0.00    -0.386 OA
ATOM     31  H   UNL     1      -6.501  -4.922   3.229  0.00  0.00    +0.210 HD
ENDBRANCH  21  30
ENDBRANCH  20  21
ENDBRANCH   4  20
TORSDOF 10
