REMARK  Name = ZINC39631134
REMARK  11 active torsions:
REMARK  status: ('A' for Active; 'I' for Inactive)
REMARK    1  A    between atoms: C_1  and  C_2
REMARK    2  A    between atoms: C_2  and  C_4
REMARK    3  A    between atoms: C_2  and  N_11
REMARK    4  A    between atoms: C_4  and  C_5
REMARK    5  A    between atoms: C_5  and  C_6
REMARK    6  A    between atoms: C_6  and  C_7
REMARK    7  A    between atoms: C_7  and  C_8
REMARK    8  A    between atoms: C_7  and  C_9
REMARK    9  A    between atoms: C_7  and  O_10
REMARK   10  A    between atoms: C_12  and  C_14
REMARK   11  A    between atoms: C_25  and  C_27
REMARK                            x       y       z     vdW  Elec       q    Type
REMARK                         _______ _______ _______ _____ _____    ______ ____
ROOT
ATOM      1  C   UNL     1       2.674  -1.467  -1.943  0.00  0.00    +0.100 C 
ATOM      2  C   UNL     1       2.332  -2.853  -2.535  0.00  0.00    +0.121 C 
ATOM      3  N   UNL     1       3.619  -3.362  -3.063  0.00  0.00    -0.296 N 
ATOM      4  C   UNL     1       4.623  -2.945  -2.055  0.00  0.00    +0.115 C 
ATOM      5  C   UNL     1       4.178  -1.532  -1.629  0.00  0.00    -0.004 C 
ATOM      6  C   UNL     1       4.415  -1.333  -0.135  0.00  0.00    -0.010 C 
ATOM      7  C   UNL     1       5.921  -1.344   0.144  0.00  0.00    -0.082 C 
ATOM      8  N   UNL     1       6.570  -0.272  -0.621  0.00  0.00    +0.379 N 
ATOM      9  C   UNL     1       6.417  -0.522  -2.059  0.00  0.00    -0.082 C 
ATOM     10  C   UNL     1       4.932  -0.476  -2.432  0.00  0.00    -0.010 C 
ATOM     11  C   UNL     1       3.830  -4.049  -4.204  0.00  0.00    +0.247 C 
ATOM     12  O   UNL     1       2.917  -4.221  -4.987  0.00  0.00    -0.270 OA
ATOM     13  H   UNL     1       6.144   0.612  -0.387  0.00  0.00    -0.086 HD
ATOM     14  H   UNL     1       7.551  -0.242  -0.389  0.00  0.00    -0.086 HD
ENDROOT
BRANCH  11  15
ATOM     15  C   UNL     1       5.172  -4.593  -4.502  0.00  0.00    +0.038 A 
ATOM     16  C   UNL     1       6.087  -4.807  -3.469  0.00  0.00    +0.014 A 
ATOM     17  C   UNL     1       7.337  -5.314  -3.752  0.00  0.00    +0.022 A 
ATOM     18  C   UNL     1       7.687  -5.612  -5.059  0.00  0.00    +0.059 A 
ATOM     19  C   UNL     1       6.784  -5.402  -6.089  0.00  0.00    +0.060 A 
ATOM     20  C   UNL     1       5.527  -4.901  -5.816  0.00  0.00    +0.034 A 
ATOM     21 CL   UNL     1       7.231  -5.778  -7.723  0.00  0.00    -0.082 Cl
ATOM     22 CL   UNL     1       9.264  -6.250  -5.407  0.00  0.00    -0.082 Cl
ENDBRANCH  11  15
BRANCH   1  24
ATOM     23  N   UNL     1       1.562   0.032  -0.320  0.00  0.00    -0.312 N 
ATOM     24  C   UNL     1       1.885  -1.226  -0.682  0.00  0.00    +0.218 C 
ATOM     25  O   UNL     1       1.540  -2.163   0.006  0.00  0.00    -0.275 OA
ATOM     26  H   UNL     1       1.839   0.781  -0.870  0.00  0.00    +0.149 HD
BRANCH  23  28
ATOM     27  C   UNL     1       1.748   0.323   2.101  0.00  0.00    +0.028 C 
ATOM     28  C   UNL     1       0.795   0.267   0.906  0.00  0.00    +0.070 C 
BRANCH  28  29
ATOM     29  C   UNL     1       0.043   1.594   0.790  0.00  0.00    +0.022 C 
BRANCH  29  30
ATOM     30  C   UNL     1      -0.998   1.495  -0.327  0.00  0.00    +0.005 C 
BRANCH  30  31
ATOM     31  C   UNL     1      -1.750   2.822  -0.442  0.00  0.00    +0.034 C 
BRANCH  31  32
ATOM     32  C   UNL     1      -2.791   2.723  -1.559  0.00  0.00    +0.061 C 
ATOM     33  C   UNL     1      -3.781   1.602  -1.235  0.00  0.00    +0.041 C 
ATOM     34  C   UNL     1      -3.543   4.050  -1.675  0.00  0.00    +0.041 C 
BRANCH  32  35
ATOM     35  O   UNL     1      -2.137   2.437  -2.797  0.00  0.00    -0.389 OA
ATOM     36  H   UNL     1      -1.493   3.107  -3.065  0.00  0.00    +0.210 HD
ENDBRANCH  32  35
ENDBRANCH  31  32
ENDBRANCH  30  31
ENDBRANCH  29  30
ENDBRANCH  28  29
ENDBRANCH  23  28
ENDBRANCH   1  24
TORSDOF 8
