REMARK  Name = ZINC40425927
REMARK  5 active torsions:
REMARK  status: ('A' for Active; 'I' for Inactive)
REMARK    1  A    between atoms: C_1  and  N_2
REMARK    2  A    between atoms: N_2  and  C_3
REMARK    3  A    between atoms: N_13  and  C_16
REMARK    4  A    between atoms: N_24  and  S_26
REMARK    5  A    between atoms: S_26  and  C_29
REMARK                            x       y       z     vdW  Elec       q    Type
REMARK                         _______ _______ _______ _____ _____    ______ ____
ROOT
ATOM      1  C   UNL     1      -1.271   0.351   0.623  0.00  0.00    +0.130 C 
ATOM      2  N   UNL     1      -0.001  -0.005  -0.016  0.00  0.00    -0.321 N 
ATOM      3  C   UNL     1       1.264   0.458   0.560  0.00  0.00    +0.130 C 
ATOM      4  C   UNL     1       0.003  -0.780  -1.164  0.00  0.00    +0.130 A 
ATOM      5  C   UNL     1       0.045  -0.176  -2.426  0.00  0.00    +0.027 A 
ATOM      6  C   UNL     1       0.054  -0.978  -3.541  0.00  0.00    +0.028 A 
ATOM      7  N   UNL     1       0.008  -2.299  -3.383  0.00  0.00    -0.331 N 
ATOM      8  C   UNL     1      -0.033  -2.845  -2.179  0.00  0.00    +0.198 A 
ATOM      9  N   UNL     1      -0.027  -2.105  -1.080  0.00  0.00    -0.201 NA
ATOM     10  N   UNL     1      -0.078  -4.224  -2.064  0.00  0.00    -0.298 N 
ATOM     11  C   UNL     1       0.053  -5.078  -3.253  0.00  0.00    +0.127 C 
ATOM     12  C   UNL     1       1.207  -6.062  -3.025  0.00  0.00    +0.124 C 
ATOM     13  N   UNL     1       1.028  -6.698  -1.712  0.00  0.00    -0.327 N 
ATOM     14  C   UNL     1       0.897  -5.844  -0.523  0.00  0.00    +0.124 C 
ATOM     15  C   UNL     1      -0.251  -4.860  -0.751  0.00  0.00    +0.127 C 
ATOM     16  C   UNL     1       0.129  -0.431  -4.941  0.00  0.00    +0.071 C 
ATOM     17  C   UNL     1      -0.305   1.035  -4.973  0.00  0.00    +0.116 C 
ATOM     18  N   UNL     1       0.386   1.739  -3.880  0.00  0.00    -0.172 NA
ATOM     19  C   UNL     1       0.071   1.327  -2.507  0.00  0.00    +0.149 C 
ATOM     20  H   UNL     1       0.005  -2.872  -4.165  0.00  0.00    +0.168 HD
ENDROOT
BRANCH  13  21
ATOM     21  C   UNL     1       0.984  -8.090  -1.596  0.00  0.00    +0.030 A 
ATOM     22  C   UNL     1       0.991  -8.884  -2.736  0.00  0.00    +0.023 A 
ATOM     23  C   UNL     1       0.947 -10.259  -2.618  0.00  0.00    +0.002 A 
ATOM     24  C   UNL     1       0.895 -10.846  -1.366  0.00  0.00    +0.000 A 
ATOM     25  C   UNL     1       0.887 -10.058  -0.230  0.00  0.00    +0.002 A 
ATOM     26  C   UNL     1       0.937  -8.682  -0.341  0.00  0.00    +0.023 A 
ENDBRANCH  13  21
BRANCH  18  27
ATOM     27  S   UNL     1       1.475   2.948  -4.188  0.00  0.00    +0.061 S 
ATOM     28  O   UNL     1       2.334   3.017  -3.058  0.00  0.00    -0.153 OA
ATOM     29  O   UNL     1       1.964   2.729  -5.504  0.00  0.00    -0.153 OA
BRANCH  27  30
ATOM     30  C   UNL     1       0.575   4.462  -4.230  0.00  0.00    +0.106 A 
ATOM     31  C   UNL     1       0.039   4.914  -5.421  0.00  0.00    +0.030 A 
ATOM     32  C   UNL     1      -0.668   6.102  -5.455  0.00  0.00    +0.022 A 
ATOM     33  C   UNL     1      -0.838   6.838  -4.296  0.00  0.00    +0.041 A 
ATOM     34  C   UNL     1      -0.301   6.385  -3.104  0.00  0.00    +0.022 A 
ATOM     35  C   UNL     1       0.400   5.194  -3.071  0.00  0.00    +0.030 A 
ATOM     36 CL   UNL     1      -1.725   8.330  -4.337  0.00  0.00    -0.084 Cl
ENDBRANCH  27  30
ENDBRANCH  18  27
TORSDOF 3
