REMARK  Name = ZINC37443821
REMARK  10 active torsions:
REMARK  status: ('A' for Active; 'I' for Inactive)
REMARK    1  A    between atoms: C_1  and  C_2
REMARK    2  A    between atoms: C_5  and  C_37
REMARK    3  A    between atoms: N_8  and  C_10
REMARK    4  A    between atoms: C_10  and  C_11
REMARK    5  A    between atoms: C_11  and  C_12
REMARK    6  A    between atoms: C_12  and  N_13
REMARK    7  A    between atoms: C_14  and  C_16
REMARK    8  A    between atoms: C_16  and  C_36
REMARK    9  A    between atoms: N_29  and  C_30
REMARK   10  A    between atoms: C_30  and  C_31
REMARK                            x       y       z     vdW  Elec       q    Type
REMARK                         _______ _______ _______ _____ _____    ______ ____
ROOT
ATOM      1  C   UNL     1       7.286  -1.983   3.966  0.00  0.00    +0.129 C 
ATOM      2  C   UNL     1       8.059  -2.167   5.270  0.00  0.00    +0.157 C 
ATOM      3  N   UNL     1       7.855  -0.993   6.125  0.00  0.00    -0.334 N 
ATOM      4  C   UNL     1       7.851  -0.883   7.475  0.00  0.00    +0.050 A 
ATOM      5  C   UNL     1       8.019  -1.824   8.492  0.00  0.00    +0.026 A 
ATOM      6  C   UNL     1       7.959  -1.360   9.794  0.00  0.00    +0.002 A 
ATOM      7  C   UNL     1       7.743  -0.024  10.095  0.00  0.00    +0.001 A 
ATOM      8  C   UNL     1       7.574   0.925   9.120  0.00  0.00    +0.010 A 
ATOM      9  C   UNL     1       7.628   0.486   7.790  0.00  0.00    +0.001 A 
ATOM     10  C   UNL     1       7.494   1.177   6.572  0.00  0.00    +0.041 A 
ATOM     11  C   UNL     1       7.625   0.272   5.579  0.00  0.00    +0.106 A 
ATOM     12  C   UNL     1       7.545   0.456   4.118  0.00  0.00    +0.264 C 
ATOM     13  O   UNL     1       7.522   1.563   3.613  0.00  0.00    -0.268 OA
ATOM     14  N   UNL     1       7.499  -0.670   3.369  0.00  0.00    -0.276 N 
ATOM     15  C   UNL     1       7.733  -3.057   2.972  0.00  0.00    +0.043 C 
ENDROOT
BRANCH   1  17
ATOM     16  N   UNL     1       5.065  -1.099   4.603  0.00  0.00    -0.314 N 
ATOM     17  C   UNL     1       5.815  -2.159   4.243  0.00  0.00    +0.238 C 
ATOM     18  O   UNL     1       5.306  -3.255   4.142  0.00  0.00    -0.273 OA
ATOM     19  H   UNL     1       5.484  -0.237   4.753  0.00  0.00    +0.149 HD
BRANCH  16  20
ATOM     20  C   UNL     1       3.617  -1.247   4.768  0.00  0.00    +0.102 C 
BRANCH  20  21
ATOM     21  C   UNL     1       3.010   0.096   5.177  0.00  0.00    +0.000 C 
BRANCH  21  22
ATOM     22  C   UNL     1       1.497  -0.059   5.349  0.00  0.00    -0.077 C 
BRANCH  22  28
ATOM     23  C   UNL     1       1.418   3.393   8.819  0.00  0.00    +0.005 C 
ATOM     24  C   UNL     1       0.885   2.996   7.441  0.00  0.00    -0.031 C 
ATOM     25  C   UNL     1      -0.645   2.946   7.479  0.00  0.00    +0.003 C 
ATOM     26  C   UNL     1      -1.165   2.471   6.119  0.00  0.00    -0.031 C 
ATOM     27  C   UNL     1      -0.548   1.110   5.790  0.00  0.00    -0.076 C 
ATOM     28  N   UNL     1       0.914   1.231   5.742  0.00  0.00    +0.380 N 
ATOM     29  C   UNL     1       1.427   1.616   7.062  0.00  0.00    -0.076 C 
ATOM     30  C   UNL     1      -2.688   2.344   6.171  0.00  0.00    +0.005 C 
ATOM     31  H   UNL     1       1.171   1.933   5.065  0.00  0.00    -0.082 HD
ENDBRANCH  22  28
ENDBRANCH  21  22
ENDBRANCH  20  21
ENDBRANCH  16  20
ENDBRANCH   1  17
BRANCH  14  32
ATOM     32  C   UNL     1       7.668  -0.567   1.917  0.00  0.00    +0.151 C 
BRANCH  32  33
ATOM     33  C   UNL     1       6.315  -0.504   1.257  0.00  0.00    +0.007 A 
ATOM     34  C   UNL     1       5.518   0.572   1.046  0.00  0.00    +0.013 A 
ATOM     35  C   UNL     1       4.303   0.391   0.411  0.00  0.00    +0.008 A 
ATOM     36  C   UNL     1       3.945  -0.856   0.019  0.00  0.00    +0.045 A 
ATOM     37  S   UNL     1       5.350  -1.825   0.543  0.00  0.00    -0.100 S 
ENDBRANCH  32  33
ENDBRANCH  14  32
TORSDOF 7
