REMARK  Name = ZINC04356358
REMARK  3 active torsions:
REMARK  status: ('A' for Active; 'I' for Inactive)
REMARK    1  A    between atoms: C_4  and  N_7
REMARK    2  A    between atoms: N_10  and  C_11
REMARK    3  A    between atoms: C_11  and  C_17
REMARK                            x       y       z     vdW  Elec       q    Type
REMARK                         _______ _______ _______ _____ _____    ______ ____
ROOT
ATOM      1  C   UNL     1       4.844  -3.292  -3.532  0.00  0.00    +0.112 C 
ATOM      2  C   UNL     1       5.747  -3.147  -2.305  0.00  0.00    +0.035 C 
ATOM      3  C   UNL     1       6.777  -2.044  -2.557  0.00  0.00    +0.003 C 
ATOM      4  C   UNL     1       7.628  -2.410  -3.775  0.00  0.00    +0.000 C 
ATOM      5  C   UNL     1       6.725  -2.555  -5.002  0.00  0.00    +0.003 C 
ATOM      6  C   UNL     1       5.695  -3.658  -4.750  0.00  0.00    +0.035 C 
ENDROOT
BRANCH   1   7
ATOM      7  C   UNL     1       3.829  -4.377  -3.283  0.00  0.00    +0.239 C 
ATOM      8  O   UNL     1       3.911  -5.068  -2.290  0.00  0.00    -0.273 OA
ATOM      9  N   UNL     1       2.830  -4.580  -4.165  0.00  0.00    -0.303 N 
ATOM     10  C   UNL     1       2.808  -3.851  -5.440  0.00  0.00    +0.089 C 
ATOM     11  C   UNL     1       1.398  -3.295  -5.701  0.00  0.00    -0.059 C 
ATOM     12  N   UNL     1       0.453  -4.396  -5.561  0.00  0.00    +0.384 N 
ATOM     13  C   UNL     1      -0.951  -4.047  -5.834  0.00  0.00    -0.078 C 
ATOM     14  C   UNL     1      -1.748  -5.182  -5.136  0.00  0.00    -0.020 C 
ATOM     15  C   UNL     1      -0.800  -5.716  -4.033  0.00  0.00    -0.016 C 
ATOM     16  C   UNL     1       0.436  -4.815  -4.133  0.00  0.00    -0.051 C 
ATOM     17  C   UNL     1       1.752  -5.544  -3.860  0.00  0.00    +0.092 C 
ATOM     18  H   UNL     1       0.738  -5.169  -6.143  0.00  0.00    -0.081 HD
ENDBRANCH   1   7
BRANCH   1  22
ATOM     19  N   UNL     1       2.544  -0.449  -3.169  0.00  0.00    -0.297 N 
ATOM     20  C   UNL     1       3.253  -1.560  -2.892  0.00  0.00    +0.301 C 
ATOM     21  O   UNL     1       3.082  -2.145  -1.840  0.00  0.00    -0.253 OA
ATOM     22  N   UNL     1       4.153  -2.025  -3.782  0.00  0.00    -0.285 N 
ATOM     23  H   UNL     1       2.628  -0.022  -4.036  0.00  0.00    +0.151 HD
ATOM     24  H   UNL     1       4.343  -1.519  -4.588  0.00  0.00    +0.151 HD
BRANCH  19  28
ATOM     25  C   UNL     1      -0.811   1.547  -1.446  0.00  0.00    +0.000 C 
ATOM     26  C   UNL     1       0.562   2.212  -1.335  0.00  0.00    +0.002 C 
ATOM     27  C   UNL     1       1.502   1.622  -2.389  0.00  0.00    +0.022 C 
ATOM     28  C   UNL     1       1.644   0.116  -2.159  0.00  0.00    +0.074 C 
ATOM     29  C   UNL     1       0.271  -0.549  -2.271  0.00  0.00    +0.022 C 
ATOM     30  C   UNL     1      -0.668   0.041  -1.217  0.00  0.00    +0.002 C 
ENDBRANCH  19  28
ENDBRANCH   1  22
TORSDOF 3
