REMARK  Name = ZINC00803148
REMARK  4 active torsions:
REMARK  status: ('A' for Active; 'I' for Inactive)
REMARK    1  A    between atoms: C_1  and  O_2
REMARK    2  A    between atoms: O_2  and  C_3
REMARK    3  A    between atoms: C_6  and  C_9
REMARK    4  A    between atoms: C_12  and  C_21
REMARK                            x       y       z     vdW  Elec       q    Type
REMARK                         _______ _______ _______ _____ _____    ______ ____
ROOT
ATOM      1  C   UNL     1       2.337  -2.288  -4.379  0.00  0.00    +0.106 C 
ATOM      2  C   UNL     1       1.256  -2.785  -5.344  0.00  0.00    +0.058 C 
ATOM      3  C   UNL     1       0.455  -3.916  -4.686  0.00  0.00    +0.143 C 
ATOM      4  N   UNL     1       1.389  -4.893  -4.129  0.00  0.00    -0.224 N 
ATOM      5  C   UNL     1       2.694  -4.639  -3.866  0.00  0.00    +0.216 A 
ATOM      6  N   UNL     1       3.231  -5.726  -3.382  0.00  0.00    -0.180 NA
ATOM      7  C   UNL     1       2.304  -6.693  -3.319  0.00  0.00    +0.233 A 
ATOM      8  N   UNL     1       1.162  -6.222  -3.767  0.00  0.00    -0.132 NA
ATOM      9  N   UNL     1       2.518  -7.991  -2.852  0.00  0.00    -0.326 N 
ATOM     10  N   UNL     1       3.273  -3.395  -4.103  0.00  0.00    -0.307 N 
ATOM     11  H   UNL     1       3.397  -8.255  -2.538  0.00  0.00    +0.145 HD
ATOM     12  H   UNL     1       1.787  -8.629  -2.842  0.00  0.00    +0.145 HD
ATOM     13  H   UNL     1       4.234  -3.262  -4.090  0.00  0.00    +0.149 HD
ENDROOT
BRANCH   3  14
ATOM     14  C   UNL     1      -0.420  -4.581  -5.717  0.00  0.00    -0.015 A 
ATOM     15  C   UNL     1       0.140  -5.268  -6.750  0.00  0.00    +0.006 A 
ATOM     16  C   UNL     1      -0.653  -5.889  -7.713  0.00  0.00    +0.001 A 
ATOM     17  C   UNL     1      -2.011  -5.827  -7.648  0.00  0.00    +0.008 A 
ATOM     18  C   UNL     1      -2.626  -5.127  -6.596  0.00  0.00    -0.018 A 
ATOM     19  C   UNL     1      -1.819  -4.500  -5.613  0.00  0.00    -0.013 A 
ATOM     20  C   UNL     1      -2.434  -3.805  -4.558  0.00  0.00    +0.009 A 
ATOM     21  C   UNL     1      -3.792  -3.748  -4.490  0.00  0.00    +0.001 A 
ATOM     22  C   UNL     1      -4.586  -4.370  -5.453  0.00  0.00    +0.001 A 
ATOM     23  C   UNL     1      -4.025  -5.040  -6.496  0.00  0.00    +0.008 A 
ENDBRANCH   3  14
BRANCH   1  27
ATOM     24  C   UNL     1       0.522  -1.001  -0.730  0.00  0.00    +0.120 A 
ATOM     25  C   UNL     1       0.901  -0.068  -1.684  0.00  0.00    +0.046 A 
ATOM     26  C   UNL     1       1.488  -0.486  -2.863  0.00  0.00    +0.009 A 
ATOM     27  C   UNL     1       1.697  -1.834  -3.092  0.00  0.00    -0.027 A 
ATOM     28  C   UNL     1       1.319  -2.766  -2.143  0.00  0.00    +0.009 A 
ATOM     29  C   UNL     1       0.738  -2.352  -0.960  0.00  0.00    +0.046 A 
BRANCH  24  31
ATOM     30  C   UNL     1      -0.247   0.814   0.599  0.00  0.00    +0.277 C 
ATOM     31  O   UNL     1      -0.056  -0.592   0.430  0.00  0.00    -0.495 OA
ENDBRANCH  24  31
ENDBRANCH   1  27
TORSDOF 3
