REMARK  Name = ZINC00850190
REMARK  9 active torsions:
REMARK  status: ('A' for Active; 'I' for Inactive)
REMARK    1  A    between atoms: C_1  and  C_2
REMARK    2  A    between atoms: C_3  and  C_21
REMARK    3  A    between atoms: C_15  and  C_19
REMARK    4  A    between atoms: C_16  and  N_18
REMARK    5  A    between atoms: C_21  and  O_23
REMARK    6  A    between atoms: O_23  and  C_24
REMARK    7  A    between atoms: C_24  and  C_25
REMARK    8  A    between atoms: C_24  and  C_26
REMARK    9  A    between atoms: C_24  and  C_27
REMARK                            x       y       z     vdW  Elec       q    Type
REMARK                         _______ _______ _______ _____ _____    ______ ____
ROOT
ATOM      1  C   UNL     1      -2.249   5.744  -2.382  0.00  0.00    +0.087 C 
ATOM      2  C   UNL     1      -1.741   5.086  -1.125  0.00  0.00    +0.116 C 
ATOM      3  C   UNL     1      -1.233   3.847  -1.202  0.00  0.00    +0.099 C 
ATOM      4  C   UNL     1      -0.717   3.151   0.024  0.00  0.00    +0.148 C 
ATOM      5  C   UNL     1       0.790   3.106   0.011  0.00  0.00    -0.000 A 
ATOM      6  C   UNL     1       1.760   4.083   0.008  0.00  0.00    +0.022 A 
ATOM      7  C   UNL     1       3.098   3.729  -0.007  0.00  0.00    +0.018 A 
ATOM      8  C   UNL     1       3.456   2.392  -0.018  0.00  0.00    +0.017 A 
ATOM      9  C   UNL     1       2.486   1.411  -0.014  0.00  0.00    +0.025 A 
ATOM     10  C   UNL     1       1.137   1.760   0.001  0.00  0.00    +0.038 A 
ATOM     11  N   UNL     1      -0.011   0.966   0.007  0.00  0.00    -0.284 N 
ATOM     12  C   UNL     1      -1.137   1.701   0.016  0.00  0.00    +0.238 C 
ATOM     13  O   UNL     1      -2.275   1.279   0.020  0.00  0.00    -0.274 OA
ATOM     14 BR   UNL     1       4.434   5.068  -0.013  0.00  0.00    -0.050 Br
ATOM     15  C   UNL     1      -1.211   3.838   1.265  0.00  0.00    +0.110 C 
ATOM     16  C   UNL     1      -1.728   5.091   1.197  0.00  0.00    +0.199 C 
ATOM     17  O   UNL     1      -1.812   5.758   0.033  0.00  0.00    -0.445 OA
ATOM     18  H   UNL     1       0.002  -0.004   0.002  0.00  0.00    +0.155 HD
ENDROOT
BRANCH  16  19
ATOM     19  N   UNL     1      -2.175   5.693   2.346  0.00  0.00    -0.328 N 
ATOM     20  H   UNL     1      -2.120   5.223   3.193  0.00  0.00    +0.145 HD
ATOM     21  H   UNL     1      -2.546   6.588   2.312  0.00  0.00    +0.145 HD
ENDBRANCH  16  19
BRANCH  15  22
ATOM     22  C   UNL     1      -1.137   3.167   2.527  0.00  0.00    +0.102 C 
ATOM     23  N   UNL     1      -1.077   2.635   3.529  0.00  0.00    -0.191 NA
ENDBRANCH  15  22
BRANCH   3  24
ATOM     24  C   UNL     1      -1.181   3.188  -2.455  0.00  0.00    +0.341 C 
ATOM     25  O   UNL     1      -1.597   3.746  -3.453  0.00  0.00    -0.245 OA
BRANCH  24  26
ATOM     26  O   UNL     1      -0.670   1.942  -2.541  0.00  0.00    -0.456 OA
BRANCH  26  27
ATOM     27  C   UNL     1      -0.649   1.338  -3.836  0.00  0.00    +0.106 C 
ATOM     28  C   UNL     1       0.193   2.194  -4.785  0.00  0.00    +0.055 C 
ATOM     29  C   UNL     1      -0.040  -0.061  -3.736  0.00  0.00    +0.055 C 
ATOM     30  C   UNL     1      -2.078   1.235  -4.374  0.00  0.00    +0.055 C 
ENDBRANCH  26  27
ENDBRANCH  24  26
ENDBRANCH   3  24
TORSDOF 5
