REMARK  Name = ZINC20902841
REMARK  10 active torsions:
REMARK  status: ('A' for Active; 'I' for Inactive)
REMARK    1  A    between atoms: C_1  and  C_2
REMARK    2  A    between atoms: C_2  and  C_28
REMARK    3  A    between atoms: N_15  and  C_16
REMARK    4  A    between atoms: C_16  and  C_17
REMARK    5  A    between atoms: C_17  and  C_18
REMARK    6  A    between atoms: C_18  and  N_19
REMARK    7  A    between atoms: N_19  and  C_20
REMARK    8  A    between atoms: N_19  and  C_21
REMARK    9  A    between atoms: C_21  and  C_22
REMARK   10  A    between atoms: N_30  and  C_31
REMARK                            x       y       z     vdW  Elec       q    Type
REMARK                         _______ _______ _______ _____ _____    ______ ____
ROOT
ATOM      1  C   UNL     1       6.276   4.560   0.364  0.00  0.00    +0.043 C 
ATOM      2  C   UNL     1       5.583   3.226   0.650  0.00  0.00    +0.128 C 
ATOM      3  C   UNL     1       4.226   3.216  -0.054  0.00  0.00    +0.157 C 
ATOM      4  N   UNL     1       3.680   1.855  -0.026  0.00  0.00    -0.334 N 
ATOM      5  C   UNL     1       2.380   1.437  -0.012  0.00  0.00    +0.050 A 
ATOM      6  C   UNL     1       1.157   2.103   0.002  0.00  0.00    +0.026 A 
ATOM      7  C   UNL     1      -0.017   1.385   0.010  0.00  0.00    +0.002 A 
ATOM      8  C   UNL     1       0.002  -0.004   0.002  0.00  0.00    +0.001 A 
ATOM      9  C   UNL     1       1.186  -0.681  -0.012  0.00  0.00    +0.010 A 
ATOM     10  C   UNL     1       2.395   0.025  -0.017  0.00  0.00    +0.001 A 
ATOM     11  C   UNL     1       3.756  -0.378  -0.027  0.00  0.00    +0.041 A 
ATOM     12  C   UNL     1       4.510   0.735  -0.016  0.00  0.00    +0.106 A 
ATOM     13  C   UNL     1       5.977   0.891  -0.015  0.00  0.00    +0.264 C 
ATOM     14  O   UNL     1       6.722  -0.051  -0.204  0.00  0.00    -0.268 OA
ATOM     15  N   UNL     1       6.450   2.140   0.208  0.00  0.00    -0.281 N 
ENDROOT
BRANCH   2  16
ATOM     16  C   UNL     1       5.362   3.100   2.135  0.00  0.00    +0.238 C 
ATOM     17  O   UNL     1       5.260   4.096   2.819  0.00  0.00    -0.273 OA
ATOM     18  N   UNL     1       5.280   1.881   2.704  0.00  0.00    -0.311 N 
ATOM     19  H   UNL     1       5.373   0.978   2.083  0.00  0.00    +0.149 HD
BRANCH  18  20
ATOM     20  C   UNL     1       5.066   1.759   4.148  0.00  0.00    +0.073 C 
ATOM     21  C   UNL     1       6.411   1.844   4.871  0.00  0.00    +0.022 C 
ATOM     22  C   UNL     1       6.188   1.716   6.380  0.00  0.00    +0.002 C 
ATOM     23  C   UNL     1       5.528   0.370   6.685  0.00  0.00    +0.000 C 
ATOM     24  C   UNL     1       4.183   0.285   5.962  0.00  0.00    +0.002 C 
ATOM     25  C   UNL     1       4.406   0.413   4.453  0.00  0.00    +0.022 C 
ENDBRANCH  18  20
ENDBRANCH   2  16
BRANCH  15  26
ATOM     26  C   UNL     1       7.875   2.409  -0.001  0.00  0.00    +0.107 C 
BRANCH  26  27
ATOM     27  C   UNL     1       8.104   2.848  -1.449  0.00  0.00    +0.000 C 
BRANCH  27  28
ATOM     28  C   UNL     1       9.592   3.129  -1.667  0.00  0.00    -0.077 C 
BRANCH  28  29
ATOM     29  N   UNL     1       9.812   3.551  -3.057  0.00  0.00    +0.381 N 
ATOM     30  C   UNL     1       9.170   4.846  -3.321  0.00  0.00    -0.096 C 
ATOM     31  H   UNL     1       9.347   2.803  -3.715  0.00  0.00    -0.082 HD
BRANCH  29  32
ATOM     32  C   UNL     1      11.246   3.601  -3.371  0.00  0.00    -0.043 C 
BRANCH  32  33
ATOM     33  C   UNL     1      11.428   3.795  -4.855  0.00  0.00    -0.064 A 
ATOM     34  C   UNL     1      11.525   2.697  -5.689  0.00  0.00    +0.002 A 
ATOM     35  C   UNL     1      11.688   2.875  -7.050  0.00  0.00    +0.000 A 
ATOM     36  C   UNL     1      11.764   4.151  -7.576  0.00  0.00    +0.000 A 
ATOM     37  C   UNL     1      11.672   5.249  -6.741  0.00  0.00    +0.000 A 
ATOM     38  C   UNL     1      11.505   5.071  -5.380  0.00  0.00    +0.002 A 
ENDBRANCH  32  33
ENDBRANCH  29  32
ENDBRANCH  28  29
ENDBRANCH  27  28
ENDBRANCH  26  27
ENDBRANCH  15  26
TORSDOF 8
