REMARK  Name = ZINC35565251
REMARK  10 active torsions:
REMARK  status: ('A' for Active; 'I' for Inactive)
REMARK    1  A    between atoms: C_1  and  O_2
REMARK    2  A    between atoms: O_2  and  C_3
REMARK    3  A    between atoms: C_13  and  O_36
REMARK    4  A    between atoms: C_16  and  O_17
REMARK    5  A    between atoms: C_18  and  O_28
REMARK    6  A    between atoms: C_21  and  C_23
REMARK    7  A    between atoms: C_21  and  O_27
REMARK    8  A    between atoms: C_23  and  C_25
REMARK    9  A    between atoms: C_25  and  O_26
REMARK   10  A    between atoms: O_28  and  C_29
REMARK                            x       y       z     vdW  Elec       q    Type
REMARK                         _______ _______ _______ _____ _____    ______ ____
ROOT
ATOM      1  C   UNL     1      -0.481  -1.004  -0.557  0.00  0.00    +0.132 A 
ATOM      2  C   UNL     1      -0.145  -0.175  -1.624  0.00  0.00    +0.046 A 
ATOM      3  C   UNL     1       0.281  -0.715  -2.821  0.00  0.00    +0.004 A 
ATOM      4  C   UNL     1       0.380  -2.088  -2.979  0.00  0.00    +0.012 A 
ATOM      5  C   UNL     1       0.050  -2.934  -1.927  0.00  0.00    +0.037 A 
ATOM      6  C   UNL     1      -0.379  -2.390  -0.701  0.00  0.00    +0.075 A 
ATOM      7  C   UNL     1      -0.723  -3.288   0.418  0.00  0.00    +0.202 C 
ATOM      8  O   UNL     1      -1.330  -2.865   1.383  0.00  0.00    -0.286 OA
ATOM      9  C   UNL     1      -0.322  -4.706   0.352  0.00  0.00    +0.078 A 
ATOM     10  C   UNL     1       0.112  -5.253  -0.874  0.00  0.00    +0.078 A 
ATOM     11  C   UNL     1       0.487  -6.593  -0.930  0.00  0.00    +0.132 A 
ATOM     12  C   UNL     1       0.438  -7.393   0.220  0.00  0.00    +0.007 A 
ATOM     13  C   UNL     1       0.022  -6.860   1.413  0.00  0.00    +0.030 A 
ATOM     14  C   UNL     1      -0.364  -5.513   1.485  0.00  0.00    +0.134 A 
ATOM     15  C   UNL     1      -0.035  -7.665   2.686  0.00  0.00    +0.158 C 
ATOM     16  C   UNL     1      -0.012  -9.160   2.379  0.00  0.00    +0.079 C 
ATOM     17  C   UNL     1       1.168  -9.443   1.442  0.00  0.00    +0.133 C 
ATOM     18  C   UNL     1       0.853  -8.835   0.077  0.00  0.00    +0.082 C 
ATOM     19  C   UNL     1       0.152  -4.402  -2.080  0.00  0.00    +0.198 C 
ATOM     20  O   UNL     1       0.281  -4.898  -3.182  0.00  0.00    -0.286 OA
ENDROOT
BRANCH   1  22
ATOM     21  C   UNL     1      -0.979   0.956   0.688  0.00  0.00    +0.277 C 
ATOM     22  O   UNL     1      -0.899  -0.469   0.616  0.00  0.00    -0.494 OA
ENDBRANCH   1  22
BRANCH  14  23
ATOM     23  O   UNL     1      -0.780  -4.995   2.667  0.00  0.00    -0.506 OA
ATOM     24  H   UNL     1      -1.739  -5.015   2.789  0.00  0.00    +0.292 HD
ENDBRANCH  14  23
BRANCH  17  25
ATOM     25  C   UNL     1       2.420  -8.817   1.999  0.00  0.00    +0.190 C 
ATOM     26  O   UNL     1       2.770  -7.725   1.620  0.00  0.00    -0.292 OA
BRANCH  25  27
ATOM     27  C   UNL     1       3.236  -9.553   3.031  0.00  0.00    +0.233 C 
BRANCH  27  28
ATOM     28  O   UNL     1       4.365  -8.760   3.400  0.00  0.00    -0.387 OA
ATOM     29  H   UNL     1       4.936  -9.172   4.062  0.00  0.00    +0.210 HD
ENDBRANCH  27  28
ENDBRANCH  25  27
ENDBRANCH  17  25
BRANCH  17  30
ATOM     30  O   UNL     1       1.351 -10.854   1.310  0.00  0.00    -0.381 OA
ATOM     31  H   UNL     1       2.083 -11.103   0.730  0.00  0.00    +0.211 HD
ENDBRANCH  17  30
BRANCH  11  32
ATOM     32  O   UNL     1       0.901  -7.127  -2.106  0.00  0.00    -0.506 OA
ATOM     33  H   UNL     1       1.854  -7.057  -2.255  0.00  0.00    +0.292 HD
ENDBRANCH  11  32
BRANCH  15  34
ATOM     34  O   UNL     1      -1.237  -7.347   3.390  0.00  0.00    -0.343 OA
BRANCH  34  35
ATOM     35  C   UNL     1      -1.163  -7.575   4.799  0.00  0.00    +0.251 C 
ATOM     36  C   UNL     1      -2.560  -7.447   5.411  0.00  0.00    +0.061 C 
ATOM     37  C   UNL     1      -2.463  -7.633   6.929  0.00  0.00    +0.007 C 
ATOM     38  C   UNL     1      -1.483  -6.601   7.496  0.00  0.00    +0.028 C 
ATOM     39  C   UNL     1      -0.127  -6.761   6.803  0.00  0.00    +0.163 C 
ATOM     40  O   UNL     1      -0.294  -6.608   5.392  0.00  0.00    -0.351 OA
ENDBRANCH  34  35
ENDBRANCH  15  34
TORSDOF 9
