REMARK  Name = ZINC39359227
REMARK  7 active torsions:
REMARK  status: ('A' for Active; 'I' for Inactive)
REMARK    1  A    between atoms: C_1  and  O_2
REMARK    2  A    between atoms: O_2  and  C_3
REMARK    3  A    between atoms: C_6  and  C_11
REMARK    4  A    between atoms: C_8  and  O_9
REMARK    5  A    between atoms: O_9  and  C_10
REMARK    6  A    between atoms: C_16  and  C_26
REMARK    7  A    between atoms: C_19  and  O_25
REMARK                            x       y       z     vdW  Elec       q    Type
REMARK                         _______ _______ _______ _____ _____    ______ ____
ROOT
ATOM      1  C   UNL     1       2.507  -2.501  -4.386  0.00  0.00    +0.032 C 
ATOM      2  C   UNL     1       1.816  -2.078  -5.682  0.00  0.00    +0.059 C 
ATOM      3  C   UNL     1       2.506  -2.723  -6.867  0.00  0.00    +0.014 C 
ATOM      4  C   UNL     1       3.830  -2.980  -6.822  0.00  0.00    +0.023 C 
ATOM      5  C   UNL     1       4.572  -3.625  -7.984  0.00  0.00    +0.089 C 
ATOM      6  C   UNL     1       3.627  -3.650  -9.147  0.00  0.00    +0.048 C 
ATOM      7  C   UNL     1       3.747  -3.428 -10.438  0.00  0.00    +0.235 C 
ATOM      8  N   UNL     1       2.524  -3.459 -11.036  0.00  0.00    -0.114 NA
ATOM      9  N   UNL     1       1.588  -3.727 -10.272  0.00  0.00    -0.157 NA
ATOM     10  C   UNL     1       2.145  -3.979  -8.941  0.00  0.00    +0.245 C 
ATOM     11  N   UNL     1       1.702  -3.001  -7.945  0.00  0.00    -0.321 N 
ATOM     12  C   UNL     1       4.597  -2.672  -5.686  0.00  0.00    +0.162 C 
ATOM     13  O   UNL     1       5.790  -2.904  -5.694  0.00  0.00    -0.292 OA
ATOM     14  C   UNL     1       3.975  -2.064  -4.459  0.00  0.00    +0.088 C 
ATOM     15  H   UNL     1       0.847  -2.554  -8.045  0.00  0.00    +0.148 HD
ENDROOT
BRANCH   5  16
ATOM     16  C   UNL     1       5.794  -2.813  -8.328  0.00  0.00    -0.035 A 
ATOM     17  C   UNL     1       5.659  -1.492  -8.713  0.00  0.00    +0.006 A 
ATOM     18  C   UNL     1       6.779  -0.747  -9.030  0.00  0.00    +0.020 A 
ATOM     19  C   UNL     1       8.035  -1.322  -8.960  0.00  0.00    +0.041 A 
ATOM     20  C   UNL     1       8.169  -2.644  -8.574  0.00  0.00    +0.020 A 
ATOM     21  C   UNL     1       7.049  -3.387  -8.253  0.00  0.00    +0.006 A 
ATOM     22 CL   UNL     1       9.443  -0.387  -9.358  0.00  0.00    -0.084 Cl
ENDBRANCH   5  16
BRANCH   1  26
ATOM     23  C   UNL     1       0.606  -0.608  -1.056  0.00  0.00    +0.161 A 
ATOM     24  C   UNL     1       1.173   0.159  -2.062  0.00  0.00    +0.049 A 
ATOM     25  C   UNL     1       1.787  -0.456  -3.137  0.00  0.00    +0.008 A 
ATOM     26  C   UNL     1       1.837  -1.836  -3.212  0.00  0.00    -0.040 A 
ATOM     27  C   UNL     1       1.273  -2.606  -2.212  0.00  0.00    +0.053 A 
ATOM     28  C   UNL     1       0.662  -1.996  -1.129  0.00  0.00    +0.162 A 
BRANCH  23  30
ATOM     29  C   UNL     1      -0.017   1.425   0.010  0.00  0.00    +0.277 C 
ATOM     30  O   UNL     1       0.002  -0.004   0.002  0.00  0.00    -0.491 OA
ENDBRANCH  23  30
BRANCH  28  31
ATOM     31  O   UNL     1       0.112  -2.753  -0.142  0.00  0.00    -0.491 OA
ATOM     32  C   UNL     1       0.206  -4.171  -0.283  0.00  0.00    +0.277 C 
ENDBRANCH  28  31
ENDBRANCH   1  26
BRANCH   7  33
ATOM     33  O   UNL     1       4.922  -3.202 -11.082  0.00  0.00    -0.491 OA
ATOM     34  H   UNL     1       4.827  -3.057 -12.033  0.00  0.00    +0.294 HD
ENDBRANCH   7  33
TORSDOF 5
