REMARK  Name = ZINC39664693
REMARK  9 active torsions:
REMARK  status: ('A' for Active; 'I' for Inactive)
REMARK    1  A    between atoms: C_1  and  N_2
REMARK    2  A    between atoms: N_2  and  C_3
REMARK    3  A    between atoms: N_2  and  C_4
REMARK    4  A    between atoms: C_4  and  C_5
REMARK    5  A    between atoms: C_5  and  C_7
REMARK    6  A    between atoms: C_5  and  N_13
REMARK    7  A    between atoms: C_14  and  C_16
REMARK    8  A    between atoms: C_27  and  C_29
REMARK    9  A    between atoms: C_29  and  C_30
REMARK                            x       y       z     vdW  Elec       q    Type
REMARK                         _______ _______ _______ _____ _____    ______ ____
ROOT
ATOM      1  C   UNL     1       1.160  -2.634  -2.595  0.00  0.00    +0.100 C 
ATOM      2  C   UNL     1       0.954  -1.486  -3.609  0.00  0.00    +0.121 C 
ATOM      3  N   UNL     1       2.153  -0.629  -3.454  0.00  0.00    -0.300 N 
ATOM      4  C   UNL     1       3.269  -1.588  -3.268  0.00  0.00    +0.115 C 
ATOM      5  C   UNL     1       2.681  -2.699  -2.376  0.00  0.00    -0.004 C 
ATOM      6  C   UNL     1       3.218  -4.061  -2.806  0.00  0.00    -0.010 C 
ATOM      7  C   UNL     1       4.722  -4.123  -2.525  0.00  0.00    -0.082 C 
ATOM      8  N   UNL     1       4.963  -3.910  -1.093  0.00  0.00    +0.379 N 
ATOM      9  C   UNL     1       4.529  -2.562  -0.708  0.00  0.00    -0.082 C 
ATOM     10  C   UNL     1       3.016  -2.433  -0.912  0.00  0.00    -0.010 C 
ATOM     11  C   UNL     1       2.216   0.717  -3.477  0.00  0.00    +0.220 C 
ATOM     12  O   UNL     1       3.282   1.277  -3.334  0.00  0.00    -0.275 OA
ATOM     13  H   UNL     1       4.447  -4.594  -0.560  0.00  0.00    -0.086 HD
ATOM     14  H   UNL     1       5.949  -4.012  -0.901  0.00  0.00    -0.086 HD
ENDROOT
BRANCH   1  16
ATOM     15  N   UNL     1       0.057  -3.322  -0.490  0.00  0.00    -0.310 N 
ATOM     16  C   UNL     1       0.457  -2.321  -1.299  0.00  0.00    +0.219 C 
ATOM     17  O   UNL     1       0.251  -1.168  -0.983  0.00  0.00    -0.275 OA
ATOM     18  H   UNL     1       0.284  -4.240  -0.707  0.00  0.00    +0.149 HD
BRANCH  15  19
ATOM     19  C   UNL     1      -0.721  -3.025   0.715  0.00  0.00    +0.087 C 
BRANCH  19  20
ATOM     20  C   UNL     1      -0.216  -3.866   1.859  0.00  0.00    -0.029 A 
ATOM     21  C   UNL     1       0.145  -5.183   1.642  0.00  0.00    +0.005 A 
ATOM     22  C   UNL     1       0.607  -5.955   2.691  0.00  0.00    +0.000 A 
ATOM     23  C   UNL     1       0.710  -5.410   3.957  0.00  0.00    +0.000 A 
ATOM     24  C   UNL     1       0.350  -4.093   4.174  0.00  0.00    +0.000 A 
ATOM     25  C   UNL     1      -0.108  -3.320   3.124  0.00  0.00    +0.005 A 
ENDBRANCH  19  20
BRANCH  19  26
ATOM     26  C   UNL     1      -2.196  -3.341   0.461  0.00  0.00    -0.052 C 
BRANCH  26  28
ATOM     27  C   UNL     1      -4.021  -3.023  -1.062  0.00  0.00    -0.097 C 
ATOM     28  N   UNL     1      -2.664  -2.585  -0.708  0.00  0.00    +0.377 N 
ATOM     29  C   UNL     1      -2.680  -1.151  -0.390  0.00  0.00    -0.097 C 
ATOM     30  H   UNL     1      -2.044  -2.750  -1.486  0.00  0.00    -0.083 HD
ENDBRANCH  26  28
ENDBRANCH  19  26
ENDBRANCH  15  19
ENDBRANCH   1  16
BRANCH  11  31
ATOM     31  C   UNL     1       0.960   1.526  -3.679  0.00  0.00    +0.131 C 
BRANCH  31  32
ATOM     32  C   UNL     1       1.301   2.994  -3.665  0.00  0.00    -0.039 A 
ATOM     33  C   UNL     1       1.290   3.694  -2.473  0.00  0.00    +0.005 A 
ATOM     34  C   UNL     1       1.602   5.040  -2.458  0.00  0.00    +0.020 A 
ATOM     35  C   UNL     1       1.926   5.687  -3.638  0.00  0.00    +0.041 A 
ATOM     36  C   UNL     1       1.937   4.986  -4.830  0.00  0.00    +0.020 A 
ATOM     37  C   UNL     1       1.630   3.638  -4.842  0.00  0.00    +0.005 A 
ATOM     38 CL   UNL     1       2.318   7.378  -3.621  0.00  0.00    -0.084 Cl
ENDBRANCH  31  32
ENDBRANCH  11  31
TORSDOF 7
