REMARK  Name = ZINC13032942
REMARK  10 active torsions:
REMARK  status: ('A' for Active; 'I' for Inactive)
REMARK    1  A    between atoms: C_1  and  O_2
REMARK    2  A    between atoms: O_2  and  C_3
REMARK    3  A    between atoms: C_8  and  C_15
REMARK    4  A    between atoms: C_15  and  N_61
REMARK    5  A    between atoms: C_16  and  C_17
REMARK    6  A    between atoms: C_16  and  N_61
REMARK    7  A    between atoms: C_26  and  C_27
REMARK    8  A    between atoms: C_26  and  N_61
REMARK    9  A    between atoms: N_31  and  C_32
REMARK   10  A    between atoms: C_32  and  C_33
REMARK                            x       y       z     vdW  Elec       q    Type
REMARK                         _______ _______ _______ _____ _____    ______ ____
ROOT
ATOM      1  N   UNL     1       2.276   1.267   8.977  0.00  0.00    +0.390 N 
ATOM      2  H   UNL     1       1.692   2.111   8.931  0.00  0.00    -0.080 HD
ENDROOT
BRANCH   1   3
ATOM      3  C   UNL     1       1.456   0.097   8.598  0.00  0.00    -0.036 C 
BRANCH   3   9
ATOM      4  C   UNL     1      -4.673   1.121  10.482  0.00  0.00    +0.122 A 
ATOM      5  C   UNL     1      -4.513   1.611   9.186  0.00  0.00    +0.046 A 
ATOM      6  C   UNL     1      -3.307   1.524   8.556  0.00  0.00    +0.013 A 
ATOM      7  C   UNL     1      -2.221   0.929   9.210  0.00  0.00    -0.001 A 
ATOM      8  C   UNL     1      -0.917   0.816   8.559  0.00  0.00    +0.017 A 
ATOM      9  C   UNL     1       0.100   0.229   9.241  0.00  0.00    +0.001 A 
ATOM     10  C   UNL     1      -0.109  -0.258  10.547  0.00  0.00    +0.251 A 
ATOM     11  O   UNL     1       0.818  -0.782  11.141  0.00  0.00    -0.268 OA
ATOM     12  N   UNL     1      -1.304  -0.159  11.155  0.00  0.00    -0.322 N 
ATOM     13  H   UNL     1      -1.413  -0.504  12.055  0.00  0.00    +0.169 HD
ATOM     14  C   UNL     1      -2.378   0.427  10.518  0.00  0.00    +0.053 A 
ATOM     15  C   UNL     1      -3.612   0.529  11.146  0.00  0.00    +0.072 A 
BRANCH   4  17
ATOM     16  C   UNL     1      -6.933   1.843  10.357  0.00  0.00    +0.277 C 
ATOM     17  O   UNL     1      -5.879   1.221  11.096  0.00  0.00    -0.495 OA
ENDBRANCH   4  17
ENDBRANCH   3   9
ENDBRANCH   1   3
BRANCH   1  18
ATOM     18  C   UNL     1       3.409   1.415   8.039  0.00  0.00    -0.042 C 
BRANCH  18  19
ATOM     19  C   UNL     1       2.899   2.024   6.758  0.00  0.00    -0.060 A 
ATOM     20  C   UNL     1       2.580   1.210   5.687  0.00  0.00    +0.005 A 
ATOM     21  C   UNL     1       2.107   1.763   4.512  0.00  0.00    +0.050 A 
ATOM     22  C   UNL     1       1.963   3.137   4.401  0.00  0.00    +0.166 A 
ATOM     23  C   UNL     1       2.290   3.957   5.478  0.00  0.00    +0.166 A 
ATOM     24  C   UNL     1       2.757   3.395   6.655  0.00  0.00    +0.051 A 
ATOM     25  O   UNL     1       2.063   5.255   5.123  0.00  0.00    -0.453 OA
ATOM     26  C   UNL     1       1.984   5.252   3.685  0.00  0.00    +0.466 C 
ATOM     27  O   UNL     1       1.531   3.921   3.371  0.00  0.00    -0.453 OA
ENDBRANCH  18  19
ENDBRANCH   1  18
BRANCH   1  28
ATOM     28  C   UNL     1       2.780   1.106  10.357  0.00  0.00    +0.001 C 
BRANCH  28  29
ATOM     29  C   UNL     1       3.420   2.398  10.794  0.00  0.00    +0.136 A 
ATOM     30  N   UNL     1       4.682   2.729  10.665  0.00  0.00    -0.115 NA
ATOM     31  N   UNL     1       4.836   3.910  11.157  0.00  0.00    -0.023 NA
ATOM     32  N   UNL     1       3.707   4.337  11.604  0.00  0.00    -0.044 NA
ATOM     33  N   UNL     1       2.809   3.434  11.399  0.00  0.00    -0.224 N 
BRANCH  33  34
ATOM     34  C   UNL     1       1.391   3.519  11.757  0.00  0.00    +0.221 C 
BRANCH  34  35
ATOM     35  C   UNL     1       1.191   2.976  13.148  0.00  0.00    +0.126 A 
ATOM     36  C   UNL     1       1.255   3.688  14.288  0.00  0.00    +0.046 A 
ATOM     37  C   UNL     1       1.003   2.788  15.348  0.00  0.00    +0.041 A 
ATOM     38  C   UNL     1       0.808   1.578  14.794  0.00  0.00    +0.195 A 
ATOM     39  O   UNL     1       0.922   1.698  13.461  0.00  0.00    -0.466 OA
ENDBRANCH  34  35
ENDBRANCH  33  34
ENDBRANCH  28  29
ENDBRANCH   1  28
TORSDOF 9
