REMARK  Name = ZINC23039953
REMARK  7 active torsions:
REMARK  status: ('A' for Active; 'I' for Inactive)
REMARK    1  A    between atoms: C_1  and  C_2
REMARK    2  A    between atoms: C_2  and  C_25
REMARK    3  A    between atoms: C_3  and  C_4
REMARK    4  A    between atoms: C_6  and  C_11
REMARK    5  A    between atoms: C_8  and  C_9
REMARK    6  A    between atoms: C_8  and  C_10
REMARK    7  A    between atoms: N_13  and  C_14
REMARK                            x       y       z     vdW  Elec       q    Type
REMARK                         _______ _______ _______ _____ _____    ______ ____
ROOT
ATOM      1  C   UNL     1       2.424  -0.242   0.090  0.00  0.00    +0.221 C 
ATOM      2  O   UNL     1       1.384  -0.867   0.097  0.00  0.00    -0.275 OA
ATOM      3  N   UNL     1       2.402   1.102  -0.003  0.00  0.00    -0.284 N 
ATOM      4  H   UNL     1       3.345   1.663  -0.083  0.00  0.00    +0.155 HD
ENDROOT
BRANCH   3   5
ATOM      5  C   UNL     1       1.178   1.785   0.003  0.00  0.00    +0.051 A 
ATOM      6  C   UNL     1       0.063   1.216  -0.595  0.00  0.00    +0.073 A 
ATOM      7  C   UNL     1      -1.147   1.893  -0.593  0.00  0.00    +0.164 A 
ATOM      8  C   UNL     1      -1.244   3.137   0.020  0.00  0.00    +0.163 A 
ATOM      9  C   UNL     1      -0.127   3.704   0.615  0.00  0.00    +0.066 A 
ATOM     10  C   UNL     1       1.081   3.031   0.608  0.00  0.00    +0.043 A 
ATOM     11 BR   UNL     1       2.601   3.808   1.421  0.00  0.00    -0.048 Br
ATOM     12  O   UNL     1      -2.427   3.811   0.045  0.00  0.00    -0.485 OA
ATOM     13  C   UNL     1      -3.425   3.391  -0.897  0.00  0.00    +0.270 C 
ATOM     14  C   UNL     1      -3.511   1.859  -0.844  0.00  0.00    +0.270 C 
ATOM     15  O   UNL     1      -2.229   1.326  -1.193  0.00  0.00    -0.485 OA
ENDBRANCH   3   5
BRANCH   1  17
ATOM     16  C   UNL     1       4.023  -1.755   1.467  0.00  0.00    +0.030 C 
ATOM     17  C   UNL     1       3.740  -0.970   0.185  0.00  0.00    +0.089 C 
ATOM     18  C   UNL     1       3.705  -2.499   0.169  0.00  0.00    -0.016 C 
ATOM     19  C   UNL     1       2.336  -3.173   0.057  0.00  0.00    +0.012 C 
ATOM     20  C   UNL     1       4.857  -3.225  -0.529  0.00  0.00    +0.012 C 
BRANCH  16  23
ATOM     21  C   UNL     1       4.570  -2.853   4.003  0.00  0.00    +0.038 C 
ATOM     22  C   UNL     1       3.218  -2.252   3.718  0.00  0.00    -0.079 C 
ATOM     23  C   UNL     1       2.963  -1.742   2.539  0.00  0.00    -0.023 C 
ATOM     24  C   UNL     1       2.158  -2.239   4.790  0.00  0.00    +0.038 C 
ENDBRANCH  16  23
ENDBRANCH   1  17
TORSDOF 3
