REMARK  Name = ZINC08750814
REMARK  7 active torsions:
REMARK  status: ('A' for Active; 'I' for Inactive)
REMARK    1  A    between atoms: C_1  and  C_2
REMARK    2  A    between atoms: C_5  and  N_8
REMARK    3  A    between atoms: C_12  and  C_13
REMARK    4  A    between atoms: C_22  and  S_23
REMARK    5  A    between atoms: S_23  and  C_24
REMARK    6  A    between atoms: C_24  and  C_25
REMARK    7  A    between atoms: N_30  and  C_31
REMARK                            x       y       z     vdW  Elec       q    Type
REMARK                         _______ _______ _______ _____ _____    ______ ____
ROOT
ATOM      1  N   UNL     1       4.294   5.662  -0.305  0.00  0.00    -0.214 N 
ATOM      2  C   UNL     1       4.801   4.410  -0.270  0.00  0.00    +0.275 C 
ATOM      3  O   UNL     1       5.973   4.088  -0.338  0.00  0.00    -0.268 OA
ATOM      4  C   UNL     1       3.635   3.516  -0.132  0.00  0.00    +0.129 C 
ATOM      5  C   UNL     1       3.648   2.153  -0.055  0.00  0.00    +0.041 C 
ATOM      6  N   UNL     1       2.539   4.332  -0.103  0.00  0.00    -0.220 NA
ATOM      7  C   UNL     1       2.926   5.577  -0.198  0.00  0.00    +0.169 C 
ENDROOT
BRANCH   5   8
ATOM      8  C   UNL     1       2.384   1.408  -0.033  0.00  0.00    -0.021 A 
ATOM      9  C   UNL     1       1.164   2.092   0.043  0.00  0.00    +0.009 A 
ATOM     10  C   UNL     1      -0.018   1.385   0.063  0.00  0.00    +0.022 A 
ATOM     11  C   UNL     1      -0.004   0.001   0.007  0.00  0.00    +0.059 A 
ATOM     12  C   UNL     1       1.199  -0.685  -0.070  0.00  0.00    +0.060 A 
ATOM     13  C   UNL     1       2.392   0.009  -0.090  0.00  0.00    +0.029 A 
ATOM     14 CL   UNL     1       1.205  -2.419  -0.139  0.00  0.00    -0.082 Cl
ATOM     15 CL   UNL     1      -1.499  -0.880   0.031  0.00  0.00    -0.082 Cl
ENDBRANCH   5   8
BRANCH   1  20
ATOM     16  C   UNL     1       7.297  10.451  -0.805  0.00  0.00    +0.044 C 
ATOM     17  C   UNL     1       6.500   9.180  -0.672  0.00  0.00    -0.050 A 
ATOM     18  C   UNL     1       6.768   8.302   0.362  0.00  0.00    +0.005 A 
ATOM     19  C   UNL     1       6.039   7.135   0.486  0.00  0.00    +0.024 A 
ATOM     20  C   UNL     1       5.036   6.845  -0.428  0.00  0.00    +0.044 A 
ATOM     21  C   UNL     1       4.772   7.725  -1.469  0.00  0.00    +0.024 A 
ATOM     22  C   UNL     1       5.501   8.893  -1.585  0.00  0.00    +0.005 A 
ENDBRANCH   1  20
BRANCH   7  23
ATOM     23  S   UNL     1       1.838   6.963  -0.198  0.00  0.00    -0.080 S 
BRANCH  23  24
ATOM     24  C   UNL     1       0.248   6.114  -0.031  0.00  0.00    +0.173 C 
BRANCH  24  25
ATOM     25  C   UNL     1      -0.864   7.131  -0.007  0.00  0.00    +0.231 C 
ATOM     26  O   UNL     1      -0.607   8.313  -0.094  0.00  0.00    -0.274 OA
ATOM     27  N   UNL     1      -2.144   6.727   0.112  0.00  0.00    -0.240 N 
ATOM     28  C   UNL     1      -3.138   7.636   0.133  0.00  0.00    +0.306 C 
ATOM     29  O   UNL     1      -2.881   8.821   0.045  0.00  0.00    -0.252 OA
ATOM     30  N   UNL     1      -4.419   7.232   0.251  0.00  0.00    -0.302 N 
ATOM     31  C   UNL     1      -5.500   8.220   0.274  0.00  0.00    +0.129 C 
ATOM     32  H   UNL     1      -2.349   5.782   0.181  0.00  0.00    +0.159 HD
ATOM     33  H   UNL     1      -4.624   6.287   0.321  0.00  0.00    +0.150 HD
ENDBRANCH  24  25
ENDBRANCH  23  24
ENDBRANCH   7  23
TORSDOF 5
