REMARK  Name = ZINC36498276
REMARK  16 active torsions:
REMARK  status: ('A' for Active; 'I' for Inactive)
REMARK    1  A    between atoms: C_1  and  C_2
REMARK    2  A    between atoms: C_2  and  C_3
REMARK    3  A    between atoms: C_2  and  C_4
REMARK    4  A    between atoms: C_2  and  C_5
REMARK    5  A    between atoms: C_5  and  C_6
REMARK    6  A    between atoms: C_6  and  C_7
REMARK    7  A    between atoms: C_6  and  C_8
REMARK    8  A    between atoms: C_6  and  N_9
REMARK    9  A    between atoms: C_10  and  C_12
REMARK   10  A    between atoms: C_12  and  C_14
REMARK   11  A    between atoms: C_12  and  N_23
REMARK   12  A    between atoms: N_23  and  C_24
REMARK   13  A    between atoms: C_24  and  C_25
REMARK   14  A    between atoms: C_30  and  C_32
REMARK   15  A    between atoms: C_35  and  O_38
REMARK   16  A    between atoms: O_38  and  C_39
REMARK                            x       y       z     vdW  Elec       q    Type
REMARK                         _______ _______ _______ _____ _____    ______ ____
ROOT
ATOM      1  C   UNL     1       5.087   0.040  -5.677  0.00  0.00    +0.193 C 
ENDROOT
BRANCH   1   2
ATOM      2  C   UNL     1       4.418  -1.295  -5.474  0.00  0.00    -0.014 A 
ATOM      3  C   UNL     1       5.053  -2.281  -4.741  0.00  0.00    +0.010 A 
ATOM      4  C   UNL     1       4.444  -3.507  -4.552  0.00  0.00    +0.050 A 
ATOM      5  C   UNL     1       3.194  -3.751  -5.097  0.00  0.00    +0.166 A 
ATOM      6  C   UNL     1       2.554  -2.759  -5.835  0.00  0.00    +0.167 A 
ATOM      7  C   UNL     1       3.168  -1.530  -6.016  0.00  0.00    +0.055 A 
ATOM      8  O   UNL     1       1.349  -3.239  -6.260  0.00  0.00    -0.453 OA
ATOM      9  C   UNL     1       1.435  -4.670  -6.122  0.00  0.00    +0.466 C 
ATOM     10  O   UNL     1       2.390  -4.854  -5.059  0.00  0.00    -0.453 OA
ENDBRANCH   1   2
BRANCH   1  12
ATOM     11  N   UNL     1       3.403   1.177  -4.266  0.00  0.00    -0.308 N 
ATOM     12  C   UNL     1       4.703   0.970  -4.555  0.00  0.00    +0.239 C 
ATOM     13  O   UNL     1       5.564   1.532  -3.912  0.00  0.00    -0.273 OA
ATOM     14  H   UNL     1       2.716   0.673  -4.730  0.00  0.00    +0.149 HD
BRANCH  11  15
ATOM     15  C   UNL     1       3.026   2.162  -3.249  0.00  0.00    +0.030 C 
ATOM     16  C   UNL     1       3.886   3.417  -3.413  0.00  0.00    +0.031 C 
ATOM     17  C   UNL     1       3.249   1.570  -1.857  0.00  0.00    +0.031 C 
BRANCH  15  18
ATOM     18  C   UNL     1       1.551   2.530  -3.418  0.00  0.00    +0.031 C 
BRANCH  18  20
ATOM     19  C   UNL     1       0.953   1.280  -5.496  0.00  0.00    +0.010 C 
ATOM     20  C   UNL     1       1.225   2.665  -4.907  0.00  0.00    -0.036 C 
ATOM     21  C   UNL     1       2.411   3.304  -5.632  0.00  0.00    +0.010 C 
ATOM     22  C   UNL     1      -0.014   3.546  -5.080  0.00  0.00    +0.010 C 
ENDBRANCH  18  20
ENDBRANCH  15  18
ENDBRANCH  11  15
ENDBRANCH   1  12
BRANCH   1  23
ATOM     23  N   UNL     1       6.541  -0.139  -5.688  0.00  0.00    -0.275 N 
ATOM     24  C   UNL     1       7.148  -0.654  -6.775  0.00  0.00    +0.248 C 
ATOM     25  O   UNL     1       8.321  -0.972  -6.722  0.00  0.00    -0.270 OA
BRANCH  24  26
ATOM     26  C   UNL     1       6.390  -0.833  -8.029  0.00  0.00    +0.037 A 
ATOM     27  C   UNL     1       4.993  -0.850  -8.007  0.00  0.00    +0.016 A 
ATOM     28  C   UNL     1       4.290  -1.016  -9.179  0.00  0.00    +0.046 A 
ATOM     29  C   UNL     1       4.968  -1.167 -10.383  0.00  0.00    +0.120 A 
ATOM     30  C   UNL     1       6.357  -1.150 -10.409  0.00  0.00    +0.046 A 
ATOM     31  C   UNL     1       7.068  -0.979  -9.242  0.00  0.00    +0.016 A 
BRANCH  29  32
ATOM     32  O   UNL     1       4.271  -1.331 -11.536  0.00  0.00    -0.495 OA
ATOM     33  C   UNL     1       5.030  -1.480 -12.737  0.00  0.00    +0.277 C 
ENDBRANCH  29  32
ENDBRANCH  24  26
BRANCH  23  34
ATOM     34  C   UNL     1       7.334   0.243  -4.517  0.00  0.00    +0.183 C 
BRANCH  34  35
ATOM     35  C   UNL     1       8.000   1.570  -4.772  0.00  0.00    +0.122 A 
ATOM     36  C   UNL     1       7.447   2.780  -4.568  0.00  0.00    +0.046 A 
ATOM     37  C   UNL     1       8.416   3.741  -4.936  0.00  0.00    +0.041 A 
ATOM     38  C   UNL     1       9.504   3.061  -5.343  0.00  0.00    +0.195 A 
ATOM     39  O   UNL     1       9.248   1.747  -5.236  0.00  0.00    -0.466 OA
ENDBRANCH  34  35
ENDBRANCH  23  34
ENDBRANCH   1  23
TORSDOF 10
