REMARK  Name = ZINC16021251
REMARK  5 active torsions:
REMARK  status: ('A' for Active; 'I' for Inactive)
REMARK    1  A    between atoms: C_3  and  O_38
REMARK    2  A    between atoms: C_4  and  O_37
REMARK    3  A    between atoms: C_6  and  C_7
REMARK    4  A    between atoms: C_7  and  C_8
REMARK    5  A    between atoms: N_16  and  C_19
REMARK                            x       y       z     vdW  Elec       q    Type
REMARK                         _______ _______ _______ _____ _____    ______ ____
ROOT
ATOM      1  C   UNL     1      -1.746  -1.026  -1.429  0.00  0.00    +0.072 C 
ATOM      2  C   UNL     1      -3.025  -1.889  -1.446  0.00  0.00    +0.107 C 
ATOM      3  C   UNL     1      -3.879  -1.313  -2.611  0.00  0.00    +0.122 C 
ATOM      4  C   UNL     1      -5.096  -0.755  -1.906  0.00  0.00    +0.228 C 
ATOM      5  O   UNL     1      -6.033  -0.212  -2.450  0.00  0.00    -0.275 OA
ATOM      6  N   UNL     1      -4.977  -0.955  -0.588  0.00  0.00    -0.238 N 
ATOM      7  C   UNL     1      -3.845  -1.592  -0.212  0.00  0.00    +0.227 C 
ATOM      8  O   UNL     1      -3.530  -1.880   0.923  0.00  0.00    -0.275 OA
ATOM      9  C   UNL     1      -3.030  -0.172  -3.183  0.00  0.00    +0.136 C 
ATOM     10  N   UNL     1      -2.135   0.253  -2.081  0.00  0.00    -0.295 NA
ATOM     11  C   UNL     1      -2.268  -0.611  -4.402  0.00  0.00    +0.006 A 
ATOM     12  C   UNL     1      -1.331  -1.595  -4.629  0.00  0.00    +0.046 A 
ATOM     13  C   UNL     1      -0.796  -1.761  -5.896  0.00  0.00    +0.124 A 
ATOM     14  C   UNL     1      -1.205  -0.936  -6.930  0.00  0.00    +0.040 A 
ATOM     15  C   UNL     1      -2.142   0.050  -6.704  0.00  0.00    +0.026 A 
ATOM     16  C   UNL     1      -2.685   0.224  -5.433  0.00  0.00    +0.039 A 
ATOM     17  N   UNL     1      -3.632   1.138  -4.962  0.00  0.00    -0.283 N 
ATOM     18  C   UNL     1      -3.888   0.972  -3.650  0.00  0.00    +0.243 C 
ATOM     19  O   UNL     1      -4.662   1.619  -2.976  0.00  0.00    -0.273 OA
ATOM     20  F   UNL     1       0.123  -2.725  -6.122  0.00  0.00    -0.205 F 
ATOM     21  H   UNL     1      -2.610   0.860  -1.431  0.00  0.00    +0.124 HD
ATOM     22  H   UNL     1      -4.055   1.813  -5.515  0.00  0.00    +0.155 HD
ENDROOT
BRANCH   6  23
ATOM     23  C   UNL     1      -5.995  -0.524   0.373  0.00  0.00    +0.084 C 
ATOM     24  C   UNL     1      -5.376   0.465   1.363  0.00  0.00    +0.023 C 
ATOM     25  C   UNL     1      -6.439   0.915   2.367  0.00  0.00    +0.002 C 
ATOM     26  C   UNL     1      -6.971  -0.302   3.127  0.00  0.00    +0.000 C 
ATOM     27  C   UNL     1      -7.590  -1.290   2.137  0.00  0.00    +0.002 C 
ATOM     28  C   UNL     1      -6.527  -1.740   1.133  0.00  0.00    +0.023 C 
ENDBRANCH   6  23
BRANCH   1  29
ATOM     29  C   UNL     1      -1.294  -0.774   0.010  0.00  0.00    +0.054 C 
BRANCH  29  35
ATOM     30  C   UNL     1      -0.017   1.378   0.010  0.00  0.00    +0.007 A 
ATOM     31  C   UNL     1       1.170   2.089   0.002  0.00  0.00    +0.049 A 
ATOM     32  C   UNL     1       2.380   1.415  -0.013  0.00  0.00    +0.158 A 
ATOM     33  C   UNL     1       2.399   0.024  -0.021  0.00  0.00    +0.158 A 
ATOM     34  C   UNL     1       1.207  -0.682  -0.013  0.00  0.00    +0.052 A 
ATOM     35  C   UNL     1       0.002  -0.004   0.002  0.00  0.00    -0.042 A 
BRANCH  33  36
ATOM     36  O   UNL     1       3.585  -0.642  -0.036  0.00  0.00    -0.503 OA
ATOM     37  H   UNL     1       3.937  -0.839   0.843  0.00  0.00    +0.292 HD
ENDBRANCH  33  36
BRANCH  32  38
ATOM     38  O   UNL     1       3.548   2.113  -0.021  0.00  0.00    -0.503 OA
ATOM     39  H   UNL     1       3.894   2.310   0.860  0.00  0.00    +0.292 HD
ENDBRANCH  32  38
ENDBRANCH  29  35
ENDBRANCH   1  29
TORSDOF 5
