REMARK  Name = ZINC63465915
REMARK  14 active torsions:
REMARK  status: ('A' for Active; 'I' for Inactive)
REMARK    1  A    between atoms: C_1  and  C_2
REMARK    2  A    between atoms: C_6  and  N_9
REMARK    3  A    between atoms: C_7  and  C_8
REMARK    4  A    between atoms: N_9  and  C_10
REMARK    5  A    between atoms: C_10  and  N_12
REMARK    6  A    between atoms: N_12  and  N_13
REMARK    7  A    between atoms: C_14  and  C_16
REMARK    8  A    between atoms: C_16  and  C_18
REMARK    9  A    between atoms: C_16  and  N_19
REMARK   10  A    between atoms: C_20  and  O_22
REMARK   11  A    between atoms: O_22  and  C_23
REMARK   12  A    between atoms: C_23  and  C_24
REMARK   13  A    between atoms: C_23  and  C_25
REMARK   14  A    between atoms: C_23  and  C_26
REMARK                            x       y       z     vdW  Elec       q    Type
REMARK                         _______ _______ _______ _____ _____    ______ ____
ROOT
ATOM      1  N   UNL     1      -0.126  -4.123   4.764  0.00  0.00    -0.234 N 
ATOM      2  C   UNL     1      -0.214  -4.799   5.926  0.00  0.00    +0.249 C 
ATOM      3  O   UNL     1      -0.290  -6.009   5.920  0.00  0.00    -0.272 OA
ATOM      4  H   UNL     1      -0.065  -3.155   4.769  0.00  0.00    +0.173 HD
ENDROOT
BRANCH   1   5
ATOM      5  N   UNL     1      -0.123  -4.818   3.548  0.00  0.00    -0.246 N 
ATOM      6  H   UNL     1      -0.184  -5.786   3.542  0.00  0.00    +0.172 HD
BRANCH   5   7
ATOM      7  C   UNL     1      -0.035  -4.142   2.385  0.00  0.00    +0.151 C 
ATOM      8  S   UNL     1      -0.031  -4.992   0.899  0.00  0.00    -0.017 S 
BRANCH   7   9
ATOM      9  N   UNL     1       0.050  -2.797   2.392  0.00  0.00    -0.296 N 
ATOM     10  H   UNL     1       0.128  -2.321   3.233  0.00  0.00    +0.154 HD
BRANCH   9  16
ATOM     11  C   UNL     1       1.866   0.777  -0.453  0.00  0.00    +0.044 C 
ATOM     12  C   UNL     1       0.894  -0.351  -0.219  0.00  0.00    -0.046 A 
ATOM     13  C   UNL     1      -0.024  -0.685  -1.198  0.00  0.00    +0.004 A 
ATOM     14  C   UNL     1      -0.918  -1.719  -0.987  0.00  0.00    +0.002 A 
ATOM     15  C   UNL     1      -0.896  -2.421   0.202  0.00  0.00    +0.023 A 
ATOM     16  C   UNL     1       0.025  -2.088   1.187  0.00  0.00    +0.036 A 
ATOM     17  C   UNL     1       0.925  -1.053   0.969  0.00  0.00    -0.026 A 
ATOM     18  C   UNL     1       1.931  -0.692   2.033  0.00  0.00    +0.046 C 
ENDBRANCH   9  16
ENDBRANCH   7   9
ENDBRANCH   5   7
ENDBRANCH   1   5
BRANCH   2  19
ATOM     19  C   UNL     1      -0.217  -4.051   7.235  0.00  0.00    +0.160 C 
ATOM     20  C   UNL     1       1.081  -3.252   7.369  0.00  0.00    +0.038 C 
BRANCH  19  21
ATOM     21  N   UNL     1      -0.320  -5.004   8.342  0.00  0.00    -0.270 N 
ATOM     22  C   UNL     1      -0.836  -4.611   9.524  0.00  0.00    +0.401 C 
ATOM     23  O   UNL     1      -1.215  -3.466   9.671  0.00  0.00    -0.226 OA
ATOM     24  H   UNL     1      -0.018  -5.918   8.225  0.00  0.00    +0.153 HD
BRANCH  22  25
ATOM     25  O   UNL     1      -0.931  -5.487  10.542  0.00  0.00    -0.445 OA
BRANCH  25  26
ATOM     26  C   UNL     1      -1.487  -5.002  11.765  0.00  0.00    +0.107 C 
ATOM     27  C   UNL     1      -2.913  -4.505  11.516  0.00  0.00    +0.055 C 
ATOM     28  C   UNL     1      -1.513  -6.132  12.797  0.00  0.00    +0.055 C 
ATOM     29  C   UNL     1      -0.630  -3.849  12.294  0.00  0.00    +0.055 C 
ENDBRANCH  25  26
ENDBRANCH  22  25
ENDBRANCH  19  21
ENDBRANCH   2  19
TORSDOF 8
