REMARK  Name = ZINC02650562
REMARK  15 active torsions:
REMARK  status: ('A' for Active; 'I' for Inactive)
REMARK    1  A    between atoms: C_1  and  C_2
REMARK    2  A    between atoms: C_2  and  C_3
REMARK    3  A    between atoms: C_2  and  C_4
REMARK    4  A    between atoms: C_4  and  N_5
REMARK    5  A    between atoms: N_5  and  C_6
REMARK    6  A    between atoms: C_7  and  N_22
REMARK    7  A    between atoms: N_8  and  C_15
REMARK    8  A    between atoms: C_15  and  C_16
REMARK    9  A    between atoms: C_23  and  C_25
REMARK   10  A    between atoms: C_25  and  N_68
REMARK   11  A    between atoms: C_26  and  N_68
REMARK   12  A    between atoms: C_27  and  C_28
REMARK   13  A    between atoms: C_27  and  N_68
REMARK   14  A    between atoms: C_32  and  O_34
REMARK   15  A    between atoms: O_34  and  C_35
REMARK                            x       y       z     vdW  Elec       q    Type
REMARK                         _______ _______ _______ _____ _____    ______ ____
ROOT
ATOM      1  N   UNL     1       0.480   9.537  -2.970  0.00  0.00    -0.266 N 
ATOM      2  C   UNL     1       0.058   8.270  -3.161  0.00  0.00    +0.203 C 
ATOM      3  O   UNL     1      -0.294   7.907  -4.264  0.00  0.00    -0.277 OA
ENDROOT
BRANCH   1   4
ATOM      4  C   UNL     1       0.607  10.411  -4.070  0.00  0.00    +0.140 A 
ATOM      5  C   UNL     1       1.476  10.120  -5.101  0.00  0.00    +0.128 A 
ATOM      6  N   UNL     1       1.574  10.989  -6.163  0.00  0.00    -0.276 N 
ATOM      7  C   UNL     1       0.840  12.116  -6.190  0.00  0.00    +0.331 A 
ATOM      8  O   UNL     1       0.945  12.874  -7.135  0.00  0.00    -0.246 OA
ATOM      9  N   UNL     1      -0.008  12.419  -5.191  0.00  0.00    -0.273 N 
ATOM     10  H   UNL     1      -0.543  13.263  -5.236  0.00  0.00    +0.173 HD
ATOM     11  C   UNL     1      -0.146  11.599  -4.131  0.00  0.00    +0.277 A 
ATOM     12  O   UNL     1      -0.917  11.884  -3.231  0.00  0.00    -0.266 OA
BRANCH   5  13
ATOM     13  N   UNL     1       2.231   8.971  -5.071  0.00  0.00    -0.343 N 
ATOM     14  H   UNL     1       2.213   8.400  -4.287  0.00  0.00    +0.144 HD
ATOM     15  H   UNL     1       2.780   8.732  -5.833  0.00  0.00    +0.144 HD
ENDBRANCH   5  13
BRANCH   6  16
ATOM     16  C   UNL     1       2.488  10.688  -7.268  0.00  0.00    +0.163 C 
BRANCH  16  17
ATOM     17  C   UNL     1       3.843  11.280  -6.974  0.00  0.00    -0.028 A 
ATOM     18  C   UNL     1       4.141  12.564  -7.389  0.00  0.00    +0.005 A 
ATOM     19  C   UNL     1       5.382  13.108  -7.115  0.00  0.00    +0.000 A 
ATOM     20  C   UNL     1       6.328  12.364  -6.435  0.00  0.00    +0.000 A 
ATOM     21  C   UNL     1       6.032  11.077  -6.025  0.00  0.00    +0.000 A 
ATOM     22  C   UNL     1       4.789  10.535  -6.294  0.00  0.00    +0.005 A 
ENDBRANCH  16  17
ENDBRANCH   6  16
ENDBRANCH   1   4
BRANCH   1  23
ATOM     23  C   UNL     1       0.806  10.005  -1.620  0.00  0.00    +0.117 C 
BRANCH  23  25
ATOM     24  C   UNL     1       3.197  10.430  -2.206  0.00  0.00    +0.009 C 
ATOM     25  C   UNL     1       2.255   9.644  -1.292  0.00  0.00    +0.001 C 
ATOM     26  C   UNL     1       2.550   9.996   0.168  0.00  0.00    +0.009 C 
ENDBRANCH  23  25
ENDBRANCH   1  23
BRANCH   2  27
ATOM     27  C   UNL     1       0.023   7.305  -2.004  0.00  0.00    +0.019 C 
BRANCH  27  29
ATOM     28  C   UNL     1      -1.874   6.090  -2.891  0.00  0.00    -0.095 C 
ATOM     29  N   UNL     1      -0.454   5.994  -2.490  0.00  0.00    +0.386 N 
ATOM     30  H   UNL     1       0.104   5.717  -3.307  0.00  0.00    -0.081 HD
BRANCH  29  31
ATOM     31  C   UNL     1      -0.296   4.973  -1.433  0.00  0.00    -0.043 C 
BRANCH  31  32
ATOM     32  C   UNL     1      -0.579   3.615  -2.021  0.00  0.00    -0.060 A 
ATOM     33  C   UNL     1       0.444   2.883  -2.593  0.00  0.00    +0.002 A 
ATOM     34  C   UNL     1       0.187   1.636  -3.133  0.00  0.00    +0.004 A 
ATOM     35  C   UNL     1      -1.094   1.120  -3.103  0.00  0.00    +0.045 A 
ATOM     36  C   UNL     1      -2.123   1.855  -2.534  0.00  0.00    +0.120 A 
ATOM     37  C   UNL     1      -1.862   3.103  -1.986  0.00  0.00    +0.047 A 
BRANCH  36  38
ATOM     38  O   UNL     1      -3.385   1.351  -2.507  0.00  0.00    -0.495 OA
ATOM     39  C   UNL     1      -3.580   0.058  -3.084  0.00  0.00    +0.277 C 
ENDBRANCH  36  38
ENDBRANCH  31  32
ENDBRANCH  29  31
ENDBRANCH  27  29
ENDBRANCH   2  27
TORSDOF 11
