REMARK  Name = ZINC39940087
REMARK  10 active torsions:
REMARK  status: ('A' for Active; 'I' for Inactive)
REMARK    1  A    between atoms: C_1  and  C_2
REMARK    2  A    between atoms: C_2  and  C_3
REMARK    3  A    between atoms: C_3  and  C_4
REMARK    4  A    between atoms: C_11  and  C_13
REMARK    5  A    between atoms: C_16  and  S_24
REMARK    6  A    between atoms: S_24  and  N_27
REMARK    7  A    between atoms: N_27  and  C_28
REMARK    8  A    between atoms: N_27  and  C_30
REMARK    9  A    between atoms: C_28  and  C_29
REMARK   10  A    between atoms: C_30  and  C_31
REMARK                            x       y       z     vdW  Elec       q    Type
REMARK                         _______ _______ _______ _____ _____    ______ ____
ROOT
ATOM      1  C   UNL     1      -3.967  -5.745   4.620  0.00  0.00    +0.032 C 
ATOM      2  C   UNL     1      -5.211  -6.291   4.890  0.00  0.00    +0.007 A 
ATOM      3  C   UNL     1      -6.295  -6.103   3.996  0.00  0.00    +0.038 A 
ATOM      4  C   UNL     1      -7.501  -6.650   4.285  0.00  0.00    +0.106 A 
ATOM      5  C   UNL     1      -7.704  -7.399   5.450  0.00  0.00    +0.030 A 
ATOM      6  C   UNL     1      -6.708  -7.617   6.348  0.00  0.00    +0.026 A 
ATOM      7  C   UNL     1      -5.423  -7.081   6.118  0.00  0.00    +0.041 A 
ATOM      8  N   UNL     1      -4.449  -7.295   6.995  0.00  0.00    -0.285 N 
ATOM      9  C   UNL     1      -3.219  -6.825   6.849  0.00  0.00    +0.222 C 
ATOM     10  O   UNL     1      -2.374  -7.058   7.691  0.00  0.00    -0.275 OA
ATOM     11  C   UNL     1      -2.865  -6.004   5.630  0.00  0.00    +0.137 C 
ATOM     12  H   UNL     1      -4.649  -7.822   7.785  0.00  0.00    +0.155 HD
ENDROOT
BRANCH   1  19
ATOM     13  C   UNL     1      -1.425  -2.035   0.021  0.00  0.00    +0.154 C 
ATOM     14  N   UNL     1      -2.786  -2.616  -0.006  0.00  0.00    -0.253 N 
ATOM     15  N   UNL     1      -3.120  -3.381   1.089  0.00  0.00    -0.163 NA
ATOM     16  C   UNL     1      -2.310  -3.589   2.086  0.00  0.00    +0.179 C 
ATOM     17  S   UNL     1      -0.833  -2.689   1.636  0.00  0.00    -0.065 S 
ATOM     18  N   UNL     1      -2.539  -4.334   3.229  0.00  0.00    -0.260 N 
ATOM     19  C   UNL     1      -3.723  -4.952   3.404  0.00  0.00    +0.247 C 
ATOM     20  O   UNL     1      -4.592  -4.854   2.558  0.00  0.00    -0.270 OA
ATOM     21  H   UNL     1      -3.399  -2.468  -0.743  0.00  0.00    +0.169 HD
ATOM     22  H   UNL     1      -1.846  -4.412   3.904  0.00  0.00    +0.157 HD
BRANCH  13  23
ATOM     23  C   UNL     1      -1.472  -0.506   0.023  0.00  0.00    +0.035 C 
BRANCH  23  25
ATOM     24  C   UNL     1      -0.094   1.578   0.029  0.00  0.00    +0.004 C 
ATOM     25  C   UNL     1      -0.046   0.049   0.027  0.00  0.00    -0.001 C 
ENDBRANCH  23  25
ENDBRANCH  13  23
ENDBRANCH   1  19
BRANCH   4  26
ATOM     26  S   UNL     1      -8.844  -6.412   3.170  0.00  0.00    +0.061 S 
ATOM     27  O   UNL     1     -10.035  -6.569   3.929  0.00  0.00    -0.153 OA
ATOM     28  O   UNL     1      -8.558  -5.229   2.437  0.00  0.00    -0.153 OA
BRANCH  26  29
ATOM     29  N   UNL     1      -8.806  -7.662   2.085  0.00  0.00    -0.177 NA
BRANCH  29  30
ATOM     30  C   UNL     1      -9.542  -8.898   2.365  0.00  0.00    +0.106 C 
ATOM     31  C   UNL     1     -10.915  -8.838   1.692  0.00  0.00    +0.022 C 
ENDBRANCH  29  30
BRANCH  29  32
ATOM     32  C   UNL     1      -8.037  -7.532   0.844  0.00  0.00    +0.106 C 
ATOM     33  C   UNL     1      -6.648  -8.142   1.040  0.00  0.00    +0.022 C 
ENDBRANCH  29  32
ENDBRANCH  26  29
ENDBRANCH   4  26
TORSDOF 7
