REMARK  Name = ZINC33014949
REMARK  11 active torsions:
REMARK  status: ('A' for Active; 'I' for Inactive)
REMARK    1  A    between atoms: C_4  and  O_7
REMARK    2  A    between atoms: O_7  and  C_8
REMARK    3  A    between atoms: C_11  and  O_14
REMARK    4  A    between atoms: O_14  and  C_15
REMARK    5  A    between atoms: C_15  and  C_16
REMARK    6  A    between atoms: C_16  and  C_18
REMARK    7  A    between atoms: C_16  and  O_32
REMARK    8  A    between atoms: C_18  and  N_19
REMARK    9  A    between atoms: N_28  and  C_29
REMARK   10  A    between atoms: C_29  and  C_30
REMARK   11  A    between atoms: C_30  and  O_31
REMARK                            x       y       z     vdW  Elec       q    Type
REMARK                         _______ _______ _______ _____ _____    ______ ____
ROOT
ATOM      1  C   UNL     1      -4.176   3.727  -1.497  0.00  0.00    +0.172 C 
ENDROOT
BRANCH   1   2
ATOM      2  O   UNL     1      -4.069   5.029  -2.076  0.00  0.00    -0.387 OA
ATOM      3  H   UNL     1      -3.082   5.503  -2.185  0.00  0.00    +0.210 HD
ENDBRANCH   1   2
BRANCH   1   4
ATOM      4  C   UNL     1      -5.646   3.304  -1.462  0.00  0.00    +0.262 C 
BRANCH   4   5
ATOM      5  O   UNL     1      -6.134   3.166  -2.798  0.00  0.00    -0.489 OA
BRANCH   5   9
ATOM      6  C   UNL     1     -10.078   2.032  -3.246  0.00  0.00    +0.129 A 
ATOM      7  C   UNL     1      -9.291   2.260  -4.365  0.00  0.00    +0.050 A 
ATOM      8  C   UNL     1      -7.971   2.639  -4.215  0.00  0.00    +0.049 A 
ATOM      9  C   UNL     1      -7.433   2.792  -2.946  0.00  0.00    +0.121 A 
ATOM     10  C   UNL     1      -8.219   2.559  -1.827  0.00  0.00    +0.049 A 
ATOM     11  C   UNL     1      -9.540   2.185  -1.976  0.00  0.00    +0.050 A 
BRANCH   6  12
ATOM     12  O   UNL     1     -11.377   1.659  -3.393  0.00  0.00    -0.456 OA
BRANCH  12  16
ATOM     13  C   UNL     1     -12.155  -2.061  -4.997  0.00  0.00    +0.000 A 
ATOM     14  C   UNL     1     -13.196  -1.186  -4.746  0.00  0.00    +0.004 A 
ATOM     15  C   UNL     1     -12.939   0.060  -4.209  0.00  0.00    +0.046 A 
ATOM     16  C   UNL     1     -11.634   0.434  -3.921  0.00  0.00    +0.128 A 
ATOM     17  C   UNL     1     -10.590  -0.443  -4.180  0.00  0.00    +0.046 A 
ATOM     18  C   UNL     1     -10.854  -1.691  -4.712  0.00  0.00    +0.004 A 
ENDBRANCH  12  16
ENDBRANCH   6  12
ENDBRANCH   5   9
ENDBRANCH   4   5
ENDBRANCH   1   4
BRANCH   1  19
ATOM     19  C   UNL     1      -3.620   3.755  -0.072  0.00  0.00    +0.159 C 
BRANCH  19  20
ATOM     20  N   UNL     1      -2.184   4.043  -0.114  0.00  0.00    -0.311 N 
ATOM     21  C   UNL     1      -1.161   3.112  -0.201  0.00  0.00    +0.068 A 
ATOM     22  C   UNL     1      -1.125   1.728  -0.277  0.00  0.00    +0.028 A 
ATOM     23  C   UNL     1       0.089   1.076  -0.351  0.00  0.00    +0.002 A 
ATOM     24  C   UNL     1       1.274   1.797  -0.362  0.00  0.00    +0.002 A 
ATOM     25  C   UNL     1       1.256   3.172  -0.293  0.00  0.00    +0.028 A 
ATOM     26  C   UNL     1       0.036   3.847  -0.212  0.00  0.00    +0.065 A 
ATOM     27  N   UNL     1      -0.301   5.161  -0.133  0.00  0.00    -0.327 N 
ATOM     28  C   UNL     1      -1.604   5.278  -0.075  0.00  0.00    +0.174 A 
ATOM     29  N   UNL     1      -2.289   6.472   0.011  0.00  0.00    -0.314 N 
ATOM     30  H   UNL     1      -3.388   6.474   0.054  0.00  0.00    +0.149 HD
ATOM     31  H   UNL     1       0.485   5.931  -0.125  0.00  0.00    +0.169 HD
BRANCH  29  32
ATOM     32  C   UNL     1      -1.553   7.738   0.046  0.00  0.00    +0.132 C 
BRANCH  32  33
ATOM     33  C   UNL     1      -2.542   8.901   0.143  0.00  0.00    +0.174 C 
BRANCH  33  34
ATOM     34  O   UNL     1      -3.236   8.833   1.391  0.00  0.00    -0.393 OA
ATOM     35  H   UNL     1      -3.994   9.591   1.641  0.00  0.00    +0.209 HD
ENDBRANCH  33  34
ENDBRANCH  32  33
ENDBRANCH  29  32
ENDBRANCH  19  20
ENDBRANCH   1  19
TORSDOF 11
