REMARK  Name = ZINC21316256
REMARK  7 active torsions:
REMARK  status: ('A' for Active; 'I' for Inactive)
REMARK    1  A    between atoms: C_3  and  C_9
REMARK    2  A    between atoms: N_10  and  N_11
REMARK    3  A    between atoms: C_15  and  S_18
REMARK    4  A    between atoms: N_16  and  N_17
REMARK    5  A    between atoms: S_18  and  C_19
REMARK    6  A    between atoms: C_19  and  C_20
REMARK    7  A    between atoms: C_20  and  C_22
REMARK                            x       y       z     vdW  Elec       q    Type
REMARK                         _______ _______ _______ _____ _____    ______ ____
ROOT
ATOM      1  N   UNL     1      -3.814   5.888  -0.703  0.00  0.00    -0.204 N 
ATOM      2  C   UNL     1      -3.820   7.270  -0.588  0.00  0.00    +0.254 A 
ATOM      3  N   UNL     1      -2.774   8.055  -0.674  0.00  0.00    -0.109 NA
ATOM      4  N   UNL     1      -3.209   9.376  -0.505  0.00  0.00    -0.119 NA
ATOM      5  C   UNL     1      -4.506   9.355  -0.314  0.00  0.00    +0.210 A 
ATOM      6  N   UNL     1      -4.918   8.053  -0.359  0.00  0.00    -0.211 N 
ATOM      7  H   UNL     1      -4.754   5.324  -0.610  0.00  0.00    +0.177 HD
ENDROOT
BRANCH   6   8
ATOM      8  N   UNL     1      -6.201   7.611  -0.204  0.00  0.00    -0.294 N 
ATOM      9  H   UNL     1      -7.013   8.331  -0.024  0.00  0.00    +0.163 HD
ATOM     10  H   UNL     1      -6.423   6.535  -0.260  0.00  0.00    +0.163 HD
ENDBRANCH   6   8
BRANCH   1  12
ATOM     11  C   UNL     1      -2.606   3.915  -1.047  0.00  0.00    +0.139 C 
ATOM     12  N   UNL     1      -2.611   5.210  -0.939  0.00  0.00    -0.187 NA
BRANCH  11  15
ATOM     13  C   UNL     1      -0.142   1.148  -1.642  0.00  0.00    +0.002 A 
ATOM     14  C   UNL     1      -1.331   1.810  -1.415  0.00  0.00    +0.011 A 
ATOM     15  C   UNL     1      -1.340   3.202  -1.295  0.00  0.00    +0.014 A 
ATOM     16  C   UNL     1      -0.143   3.915  -1.414  0.00  0.00    +0.068 A 
ATOM     17  C   UNL     1       1.039   3.239  -1.646  0.00  0.00    +0.060 A 
ATOM     18  C   UNL     1       1.039   1.859  -1.760  0.00  0.00    +0.021 A 
ATOM     19 CL   UNL     1       2.527   4.121  -1.795  0.00  0.00    -0.082 Cl
ATOM     20 CL   UNL     1      -0.143   5.645  -1.271  0.00  0.00    -0.081 Cl
ENDBRANCH  11  15
ENDBRANCH   1  12
BRANCH   5  21
ATOM     21  S   UNL     1      -5.537  10.758  -0.044  0.00  0.00    -0.077 S 
BRANCH  21  22
ATOM     22  C   UNL     1      -4.390  12.162  -0.099  0.00  0.00    +0.152 C 
BRANCH  22  23
ATOM     23  C   UNL     1      -5.153  13.443   0.120  0.00  0.00    +0.147 C 
ATOM     24  O   UNL     1      -6.347  13.412   0.295  0.00  0.00    -0.296 OA
BRANCH  23  25
ATOM     25  C   UNL     1      -4.425  14.763   0.120  0.00  0.00    +0.062 C 
ATOM     26  C   UNL     1      -3.634  14.908   1.422  0.00  0.00    +0.000 C 
ATOM     27  C   UNL     1      -2.895  16.248   1.422  0.00  0.00    +0.007 C 
ATOM     28  C   UNL     1      -3.908  17.389   1.311  0.00  0.00    -0.010 C 
ATOM     29  C   UNL     1      -4.869  17.336   2.501  0.00  0.00    +0.007 C 
ATOM     30  C   UNL     1      -5.607  15.996   2.500  0.00  0.00    -0.010 C 
ATOM     31  C   UNL     1      -4.594  14.855   2.611  0.00  0.00    +0.007 C 
ATOM     32  C   UNL     1      -6.399  15.851   1.199  0.00  0.00    +0.007 C 
ATOM     33  C   UNL     1      -5.438  15.904   0.009  0.00  0.00    +0.000 C 
ATOM     34  C   UNL     1      -4.699  17.244   0.010  0.00  0.00    +0.007 C 
ENDBRANCH  23  25
ENDBRANCH  22  23
ENDBRANCH  21  22
ENDBRANCH   5  21
TORSDOF 7
