REMARK  Name = ZINC64053559
REMARK  10 active torsions:
REMARK  status: ('A' for Active; 'I' for Inactive)
REMARK    1  A    between atoms: C_1  and  C_2
REMARK    2  A    between atoms: C_2  and  O_3
REMARK    3  A    between atoms: O_3  and  C_4
REMARK    4  A    between atoms: C_9  and  N_12
REMARK    5  A    between atoms: C_13  and  C_15
REMARK    6  A    between atoms: N_21  and  C_24
REMARK    7  A    between atoms: C_24  and  C_26
REMARK    8  A    between atoms: C_24  and  C_27
REMARK    9  A    between atoms: C_27  and  C_28
REMARK   10  A    between atoms: C_28  and  C_29
REMARK                            x       y       z     vdW  Elec       q    Type
REMARK                         _______ _______ _______ _____ _____    ______ ____
ROOT
ATOM      1  C   UNL     1      -7.495  -5.080   2.652  0.00  0.00    +0.082 C 
ATOM      2  C   UNL     1      -7.285  -6.286   3.570  0.00  0.00    +0.020 C 
ATOM      3  C   UNL     1      -8.554  -6.178   2.726  0.00  0.00    -0.021 C 
ATOM      4  C   UNL     1      -9.868  -5.856   3.446  0.00  0.00    -0.011 C 
ATOM      5  C   UNL     1     -10.896  -5.398   2.404  0.00  0.00    -0.078 C 
ATOM      6  N   UNL     1     -11.047  -6.434   1.376  0.00  0.00    +0.381 N 
ATOM      7  C   UNL     1      -9.803  -6.574   0.610  0.00  0.00    -0.078 C 
ATOM      8  C   UNL     1      -8.698  -7.116   1.523  0.00  0.00    -0.011 C 
ATOM      9  H   UNL     1     -11.268  -7.314   1.819  0.00  0.00    -0.081 HD
ENDROOT
BRANCH   1  11
ATOM     10  N   UNL     1      -7.111  -4.329   0.327  0.00  0.00    -0.312 N 
ATOM     11  C   UNL     1      -6.658  -5.004   1.401  0.00  0.00    +0.217 C 
ATOM     12  O   UNL     1      -5.576  -5.550   1.361  0.00  0.00    -0.275 OA
ATOM     13  H   UNL     1      -7.977  -3.892   0.358  0.00  0.00    +0.149 HD
BRANCH  10  19
ATOM     14  C   UNL     1      -5.140  -1.986  -4.112  0.00  0.00    +0.403 C 
ATOM     15  O   UNL     1      -4.262  -1.159  -3.964  0.00  0.00    -0.226 OA
ATOM     16  N   UNL     1      -5.302  -2.967  -3.203  0.00  0.00    -0.267 N 
ATOM     17  C   UNL     1      -6.356  -3.977  -3.371  0.00  0.00    +0.113 C 
ATOM     18  C   UNL     1      -7.207  -4.019  -2.098  0.00  0.00    +0.041 C 
ATOM     19  C   UNL     1      -6.298  -4.255  -0.889  0.00  0.00    +0.076 C 
ATOM     20  C   UNL     1      -5.301  -3.100  -0.766  0.00  0.00    +0.041 C 
ATOM     21  C   UNL     1      -4.425  -3.051  -2.027  0.00  0.00    +0.113 C 
BRANCH  14  22
ATOM     22  O   UNL     1      -5.952  -1.921  -5.184  0.00  0.00    -0.451 OA
BRANCH  22  24
ATOM     23  C   UNL     1      -6.735  -0.944  -7.252  0.00  0.00    +0.048 C 
ATOM     24  C   UNL     1      -5.723  -0.854  -6.108  0.00  0.00    +0.230 C 
ENDBRANCH  22  24
ENDBRANCH  14  22
ENDBRANCH  10  19
ENDBRANCH   1  11
BRANCH   6  25
ATOM     25  C   UNL     1     -12.139  -6.062   0.467  0.00  0.00    -0.071 C 
ATOM     26  C   UNL     1     -11.882  -4.662  -0.093  0.00  0.00    -0.013 C 
BRANCH  25  27
ATOM     27  C   UNL     1     -13.464  -6.070   1.232  0.00  0.00    -0.011 C 
BRANCH  27  28
ATOM     28  C   UNL     1     -13.788  -7.498   1.677  0.00  0.00    +0.031 C 
BRANCH  28  29
ATOM     29  C   UNL     1     -15.047  -7.492   2.506  0.00  0.00    -0.042 C 
ATOM     30  C   UNL     1     -16.306  -7.733   2.075  0.00  0.00    -0.001 A 
ATOM     31  C   UNL     1     -16.860  -8.057   0.754  0.00  0.00    +0.010 A 
ATOM     32  C   UNL     1     -18.193  -8.246   0.631  0.00  0.00    +0.001 A 
ATOM     33  C   UNL     1     -19.058  -8.139   1.729  0.00  0.00    +0.002 A 
ATOM     34  C   UNL     1     -18.623  -7.844   2.973  0.00  0.00    +0.026 A 
ATOM     35  C   UNL     1     -17.240  -7.626   3.218  0.00  0.00    +0.043 A 
ATOM     36  N   UNL     1     -16.583  -7.332   4.314  0.00  0.00    -0.380 N 
ATOM     37  C   UNL     1     -15.156  -7.224   3.990  0.00  0.00    +0.144 C 
ATOM     38  H   UNL     1     -16.975  -7.210   5.193  0.00  0.00    +0.160 HD
ENDBRANCH  28  29
ENDBRANCH  27  28
ENDBRANCH  25  27
ENDBRANCH   6  25
TORSDOF 8
