REMARK  Name = ZINC13425172
REMARK  9 active torsions:
REMARK  status: ('A' for Active; 'I' for Inactive)
REMARK    1  A    between atoms: C_1  and  C_2
REMARK    2  A    between atoms: C_3  and  C_27
REMARK    3  A    between atoms: C_4  and  C_26
REMARK    4  A    between atoms: C_18  and  C_25
REMARK    5  A    between atoms: C_21  and  O_24
REMARK    6  A    between atoms: C_27  and  C_33
REMARK    7  A    between atoms: N_28  and  N_29
REMARK    8  A    between atoms: N_29  and  C_30
REMARK    9  A    between atoms: C_30  and  N_32
REMARK                            x       y       z     vdW  Elec       q    Type
REMARK                         _______ _______ _______ _____ _____    ______ ____
ROOT
ATOM      1  C   UNL     1      -0.441   1.383  -2.551  0.00  0.00    +0.039 C 
ATOM      2  C   UNL     1      -1.055   1.220  -1.184  0.00  0.00    -0.067 C 
ATOM      3  C   UNL     1      -2.264   1.665  -0.829  0.00  0.00    -0.020 C 
ATOM      4  C   UNL     1      -2.522   1.309   0.612  0.00  0.00    -0.002 C 
ATOM      5  C   UNL     1      -3.383   2.316   1.335  0.00  0.00    +0.012 C 
ATOM      6  C   UNL     1      -2.668   3.658   1.483  0.00  0.00    +0.005 C 
ATOM      7  C   UNL     1      -1.373   3.429   2.272  0.00  0.00    -0.001 C 
ATOM      8  C   UNL     1      -0.461   2.515   1.458  0.00  0.00    -0.003 C 
ATOM      9  C   UNL     1      -1.113   1.150   1.228  0.00  0.00    +0.007 C 
ATOM     10  C   UNL     1      -0.391   0.525  -0.008  0.00  0.00    +0.035 C 
ATOM     11  C   UNL     1       0.863   2.311   2.199  0.00  0.00    +0.004 C 
ATOM     12  C   UNL     1       1.546   3.663   2.413  0.00  0.00    +0.004 C 
ATOM     13  C   UNL     1       0.632   4.566   3.244  0.00  0.00    -0.002 C 
ATOM     14  C   UNL     1      -0.685   4.779   2.495  0.00  0.00    -0.026 C 
ATOM     15  C   UNL     1      -1.601   5.684   3.323  0.00  0.00    +0.010 C 
ATOM     16  C   UNL     1      -1.885   5.021   4.673  0.00  0.00    +0.032 C 
ATOM     17  C   UNL     1      -0.569   4.804   5.422  0.00  0.00    +0.115 C 
ATOM     18  C   UNL     1       0.348   3.902   4.593  0.00  0.00    +0.035 C 
ATOM     19  C   UNL     1      -0.404   5.439   1.143  0.00  0.00    +0.012 C 
ATOM     20  C   UNL     1      -3.216  -0.053   0.661  0.00  0.00    +0.016 C 
ENDROOT
BRANCH   3  21
ATOM     21  C   UNL     1      -3.194   2.386  -1.704  0.00  0.00    +0.060 C 
ATOM     22  N   UNL     1      -4.141   1.741  -2.318  0.00  0.00    -0.186 NA
ATOM     23  C   UNL     1      -3.051   3.874  -1.892  0.00  0.00    +0.067 C 
BRANCH  22  24
ATOM     24  N   UNL     1      -4.198   0.343  -2.245  0.00  0.00    -0.218 N 
ATOM     25  H   UNL     1      -3.571  -0.139  -1.683  0.00  0.00    +0.176 HD
BRANCH  24  26
ATOM     26  C   UNL     1      -5.123  -0.331  -2.957  0.00  0.00    +0.147 C 
ATOM     27  S   UNL     1      -5.192  -2.040  -2.868  0.00  0.00    -0.017 S 
BRANCH  26  28
ATOM     28  N   UNL     1      -5.993   0.339  -3.737  0.00  0.00    -0.339 N 
ATOM     29  H   UNL     1      -5.954   1.307  -3.788  0.00  0.00    +0.144 HD
ATOM     30  H   UNL     1      -6.659  -0.147  -4.249  0.00  0.00    +0.144 HD
ENDBRANCH  26  28
ENDBRANCH  24  26
ENDBRANCH  22  24
ENDBRANCH   3  21
BRANCH  17  31
ATOM     31  O   UNL     1       0.070   6.064   5.636  0.00  0.00    -0.392 OA
ATOM     32  H   UNL     1      -0.455   6.688   6.157  0.00  0.00    +0.210 HD
ENDBRANCH  17  31
TORSDOF 5
