REMARK  Name = ZINC36245354
REMARK  6 active torsions:
REMARK  status: ('A' for Active; 'I' for Inactive)
REMARK    1  A    between atoms: C_1  and  C_2
REMARK    2  A    between atoms: C_2  and  C_4
REMARK    3  A    between atoms: C_2  and  S_17
REMARK    4  A    between atoms: C_4  and  C_6
REMARK    5  A    between atoms: S_17  and  C_18
REMARK    6  A    between atoms: N_28  and  C_29
REMARK                            x       y       z     vdW  Elec       q    Type
REMARK                         _______ _______ _______ _____ _____    ______ ____
ROOT
ATOM      1  C   UNL     1      -2.365  -0.093  -1.525  0.00  0.00    +0.177 A 
ATOM      2  N   UNL     1      -1.593   0.592  -2.333  0.00  0.00    -0.223 NA
ATOM      3  C   UNL     1      -2.037   1.034  -3.527  0.00  0.00    +0.079 A 
ATOM      4  C   UNL     1      -1.214   1.765  -4.389  0.00  0.00    +0.028 A 
ATOM      5  C   UNL     1      -1.704   2.194  -5.590  0.00  0.00    +0.002 A 
ATOM      6  C   UNL     1      -3.010   1.915  -5.970  0.00  0.00    +0.001 A 
ATOM      7  C   UNL     1      -3.840   1.203  -5.148  0.00  0.00    +0.015 A 
ATOM      8  C   UNL     1      -3.366   0.753  -3.917  0.00  0.00    +0.065 A 
ATOM      9  C   UNL     1      -4.212  -0.016  -2.994  0.00  0.00    +0.267 A 
ATOM     10  O   UNL     1      -5.365  -0.290  -3.274  0.00  0.00    -0.267 OA
ATOM     11  N   UNL     1      -3.659  -0.414  -1.825  0.00  0.00    -0.253 N 
ENDROOT
BRANCH  11  12
ATOM     12  C   UNL     1      -4.422  -1.156  -0.911  0.00  0.00    +0.087 A 
ATOM     13  C   UNL     1      -5.177  -0.504   0.055  0.00  0.00    +0.032 A 
ATOM     14  C   UNL     1      -5.928  -1.236   0.954  0.00  0.00    +0.040 A 
ATOM     15  C   UNL     1      -5.929  -2.620   0.893  0.00  0.00    +0.126 A 
ATOM     16  C   UNL     1      -5.178  -3.273  -0.068  0.00  0.00    +0.078 A 
ATOM     17  C   UNL     1      -4.429  -2.545  -0.975  0.00  0.00    +0.150 A 
ATOM     18  F   UNL     1      -3.699  -3.182  -1.916  0.00  0.00    -0.203 F 
ATOM     19  F   UNL     1      -6.665  -3.333   1.774  0.00  0.00    -0.205 F 
ENDBRANCH  11  12
BRANCH   1  20
ATOM     20  S   UNL     1      -1.700  -0.632   0.015  0.00  0.00    -0.076 S 
BRANCH  20  22
ATOM     21  C   UNL     1      -0.019   1.526   0.010  0.00  0.00    +0.028 C 
ATOM     22  C   UNL     1       0.002  -0.004   0.002  0.00  0.00    +0.122 C 
BRANCH  22  23
ATOM     23  C   UNL     1       0.731  -0.503   1.223  0.00  0.00    +0.176 C 
ATOM     24  O   UNL     1       0.109  -0.806   2.219  0.00  0.00    -0.291 OA
BRANCH  23  25
ATOM     25  C   UNL     1       2.195  -0.624   1.206  0.00  0.00    +0.020 A 
ATOM     26  C   UNL     1       2.915  -0.270   0.059  0.00  0.00    +0.015 A 
ATOM     27  C   UNL     1       4.287  -0.382   0.043  0.00  0.00    +0.048 A 
ATOM     28  C   UNL     1       4.961  -0.847   1.165  0.00  0.00    +0.142 A 
ATOM     29  C   UNL     1       4.249  -1.202   2.314  0.00  0.00    +0.076 A 
ATOM     30  C   UNL     1       2.874  -1.087   2.340  0.00  0.00    +0.038 A 
ATOM     31  N   UNL     1       4.948  -1.669   3.436  0.00  0.00    -0.280 N 
ATOM     32  C   UNL     1       6.283  -1.471   3.504  0.00  0.00    +0.255 C 
ATOM     33  O   UNL     1       6.914  -1.893   4.451  0.00  0.00    -0.272 OA
ATOM     34  C   UNL     1       6.985  -0.725   2.399  0.00  0.00    +0.325 C 
ATOM     35  O   UNL     1       6.314  -0.960   1.158  0.00  0.00    -0.481 OA
ATOM     36  H   UNL     1       4.481  -2.128   4.152  0.00  0.00    +0.155 HD
ENDBRANCH  23  25
ENDBRANCH  22  23
ENDBRANCH  20  22
ENDBRANCH   1  20
TORSDOF 5
