REMARK  Name = ZINC09461806
REMARK  4 active torsions:
REMARK  status: ('A' for Active; 'I' for Inactive)
REMARK    1  A    between atoms: C_4  and  C_7
REMARK    2  A    between atoms: C_7  and  C_9
REMARK    3  A    between atoms: C_11  and  C_33
REMARK    4  A    between atoms: C_33  and  C_35
REMARK                            x       y       z     vdW  Elec       q    Type
REMARK                         _______ _______ _______ _____ _____    ______ ____
ROOT
ATOM      1  C   UNL     1      -2.578   1.380   0.832  0.00  0.00    +0.140 C 
ATOM      2  C   UNL     1      -3.184   2.692   1.406  0.00  0.00    +0.111 C 
ATOM      3  C   UNL     1      -2.962   3.675   0.239  0.00  0.00    +0.107 C 
ATOM      4  C   UNL     1      -4.130   3.716  -0.684  0.00  0.00    -0.008 A 
ATOM      5  C   UNL     1      -4.739   2.741  -1.444  0.00  0.00    +0.006 A 
ATOM      6  C   UNL     1      -5.830   3.129  -2.214  0.00  0.00    +0.000 A 
ATOM      7  C   UNL     1      -6.282   4.433  -2.215  0.00  0.00    +0.002 A 
ATOM      8  C   UNL     1      -5.676   5.420  -1.454  0.00  0.00    +0.023 A 
ATOM      9  C   UNL     1      -4.580   5.044  -0.676  0.00  0.00    +0.038 A 
ATOM     10  N   UNL     1      -3.796   5.813   0.168  0.00  0.00    -0.284 N 
ATOM     11  C   UNL     1      -2.817   5.086   0.750  0.00  0.00    +0.231 C 
ATOM     12  O   UNL     1      -1.982   5.491   1.532  0.00  0.00    -0.274 OA
ATOM     13  C   UNL     1      -1.685   3.191  -0.447  0.00  0.00    +0.107 C 
ATOM     14  C   UNL     1      -0.181   1.201  -0.126  0.00  0.00    +0.054 C 
ATOM     15  C   UNL     1       0.910   1.993  -0.146  0.00  0.00    +0.022 C 
ATOM     16  C   UNL     1       0.752   3.448   0.056  0.00  0.00    -0.019 A 
ATOM     17  C   UNL     1      -0.502   4.053  -0.091  0.00  0.00    -0.020 A 
ATOM     18  C   UNL     1      -0.642   5.409   0.093  0.00  0.00    +0.006 A 
ATOM     19  C   UNL     1       0.459   6.180   0.427  0.00  0.00    +0.000 A 
ATOM     20  C   UNL     1       1.702   5.591   0.577  0.00  0.00    +0.001 A 
ATOM     21  C   UNL     1       1.856   4.232   0.394  0.00  0.00    +0.008 A 
ATOM     22  H   UNL     1      -3.933   6.761   0.322  0.00  0.00    +0.155 HD
ATOM     23  N   UNL     1      -1.591   1.775  -0.234  0.00  0.00    -0.384 NA
ATOM     24  H   UNL     1      -1.955   1.358  -1.099  0.00  0.00    +0.127 HD
ENDROOT
BRANCH   1  25
ATOM     25  C   UNL     1      -3.561   0.699  -0.085  0.00  0.00    +0.183 C 
ATOM     26  O   UNL     1      -3.238   0.418  -1.220  0.00  0.00    -0.290 OA
BRANCH  25  30
ATOM     27  C   UNL     1      -7.459  -0.234   1.302  0.00  0.00    +0.000 A 
ATOM     28  C   UNL     1      -7.094  -0.556   0.007  0.00  0.00    +0.001 A 
ATOM     29  C   UNL     1      -5.829  -0.256  -0.452  0.00  0.00    +0.011 A 
ATOM     30  C   UNL     1      -4.914   0.376   0.396  0.00  0.00    +0.019 A 
ATOM     31  C   UNL     1      -5.288   0.693   1.706  0.00  0.00    +0.011 A 
ATOM     32  C   UNL     1      -6.559   0.392   2.147  0.00  0.00    +0.001 A 
ENDBRANCH  25  30
ENDBRANCH   1  25
BRANCH   2  33
ATOM     33  C   UNL     1      -2.438   3.137   2.637  0.00  0.00    +0.204 C 
ATOM     34  O   UNL     1      -1.284   2.798   2.804  0.00  0.00    -0.288 OA
BRANCH  33  35
ATOM     35  C   UNL     1      -3.082   3.949   3.598  0.00  0.00    +0.170 A 
ATOM     36  C   UNL     1      -2.522   4.428   4.766  0.00  0.00    +0.053 A 
ATOM     37  C   UNL     1      -3.515   5.183   5.404  0.00  0.00    +0.042 A 
ATOM     38  C   UNL     1      -4.617   5.138   4.621  0.00  0.00    +0.196 A 
ATOM     39  O   UNL     1      -4.353   4.401   3.535  0.00  0.00    -0.460 OA
ENDBRANCH  33  35
ENDBRANCH   2  33
TORSDOF 4
