REMARK  Name = ZINC13131674
REMARK  4 active torsions:
REMARK  status: ('A' for Active; 'I' for Inactive)
REMARK    1  A    between atoms: C_1  and  O_2
REMARK    2  A    between atoms: O_2  and  C_3
REMARK    3  A    between atoms: C_7  and  C_9
REMARK    4  A    between atoms: C_12  and  C_21
REMARK                            x       y       z     vdW  Elec       q    Type
REMARK                         _______ _______ _______ _____ _____    ______ ____
ROOT
ATOM      1  C   UNL     1       1.325  -4.106  -2.289  0.00  0.00    +0.106 C 
ATOM      2  C   UNL     1       0.237  -4.609  -3.244  0.00  0.00    +0.059 C 
ATOM      3  C   UNL     1       0.420  -3.965  -4.623  0.00  0.00    +0.144 C 
ATOM      4  N   UNL     1       1.818  -4.107  -5.029  0.00  0.00    -0.224 N 
ATOM      5  C   UNL     1       2.837  -4.370  -4.176  0.00  0.00    +0.216 A 
ATOM      6  N   UNL     1       3.942  -4.435  -4.870  0.00  0.00    -0.180 NA
ATOM      7  C   UNL     1       3.670  -4.218  -6.165  0.00  0.00    +0.233 A 
ATOM      8  N   UNL     1       2.379  -4.012  -6.303  0.00  0.00    -0.132 NA
ATOM      9  N   UNL     1       4.607  -4.210  -7.199  0.00  0.00    -0.326 N 
ATOM     10  N   UNL     1       2.642  -4.526  -2.806  0.00  0.00    -0.307 N 
ATOM     11  H   UNL     1       5.544  -4.372  -7.007  0.00  0.00    +0.145 HD
ATOM     12  H   UNL     1       4.321  -4.043  -8.111  0.00  0.00    +0.145 HD
ATOM     13  H   UNL     1       3.328  -4.890  -2.226  0.00  0.00    +0.149 HD
ENDROOT
BRANCH   3  14
ATOM     14  C   UNL     1      -0.472  -4.653  -5.624  0.00  0.00    -0.004 A 
ATOM     15  C   UNL     1      -0.327  -6.007  -5.863  0.00  0.00    +0.008 A 
ATOM     16  C   UNL     1      -1.145  -6.638  -6.781  0.00  0.00    +0.020 A 
ATOM     17  C   UNL     1      -2.109  -5.915  -7.461  0.00  0.00    +0.042 A 
ATOM     18  C   UNL     1      -2.254  -4.561  -7.223  0.00  0.00    +0.040 A 
ATOM     19  C   UNL     1      -1.439  -3.930  -6.300  0.00  0.00    +0.048 A 
ATOM     20 CL   UNL     1      -1.624  -2.231  -5.996  0.00  0.00    -0.083 Cl
ATOM     21 CL   UNL     1      -3.136  -6.709  -8.615  0.00  0.00    -0.083 Cl
ENDBRANCH   3  14
BRANCH   1  26
ATOM     22  C   UNL     1       0.606  -0.607  -1.056  0.00  0.00    +0.120 A 
ATOM     23  C   UNL     1       1.173   0.161  -2.063  0.00  0.00    +0.045 A 
ATOM     24  C   UNL     1       1.786  -0.455  -3.136  0.00  0.00    +0.004 A 
ATOM     25  C   UNL     1       1.836  -1.835  -3.208  0.00  0.00    +0.006 A 
ATOM     26  C   UNL     1       1.271  -2.602  -2.207  0.00  0.00    -0.024 A 
ATOM     27  C   UNL     1       0.661  -1.991  -1.128  0.00  0.00    +0.051 A 
BRANCH  22  29
ATOM     28  C   UNL     1      -0.017   1.425   0.010  0.00  0.00    +0.277 C 
ATOM     29  O   UNL     1       0.002  -0.004   0.002  0.00  0.00    -0.495 OA
ENDBRANCH  22  29
ENDBRANCH   1  26
TORSDOF 3
