REMARK  Name = ZINC63011169
REMARK  4 active torsions:
REMARK  status: ('A' for Active; 'I' for Inactive)
REMARK    1  A    between atoms: C_1  and  C_2
REMARK    2  A    between atoms: N_12  and  C_13
REMARK    3  A    between atoms: C_13  and  C_14
REMARK    4  A    between atoms: C_17  and  N_21
REMARK                            x       y       z     vdW  Elec       q    Type
REMARK                         _______ _______ _______ _____ _____    ______ ____
ROOT
ATOM      1  C   UNL     1      -0.010   1.421  -0.057  0.00  0.00    +0.028 C 
ATOM      2  C   UNL     1       0.028  -0.108   0.004  0.00  0.00    +0.071 C 
ATOM      3  C   UNL     1      -1.395  -0.657   0.169  0.00  0.00    +0.027 C 
ATOM      4  C   UNL     1      -1.339  -2.185   0.158  0.00  0.00    +0.039 C 
ATOM      5  C   UNL     1      -0.316  -2.682   1.145  0.00  0.00    -0.026 A 
ATOM      6  C   UNL     1      -0.405  -3.986   1.602  0.00  0.00    +0.005 A 
ATOM      7  C   UNL     1       0.520  -4.473   2.506  0.00  0.00    +0.000 A 
ATOM      8  C   UNL     1       1.541  -3.659   2.962  0.00  0.00    +0.002 A 
ATOM      9  C   UNL     1       1.635  -2.357   2.513  0.00  0.00    +0.023 A 
ATOM     10  C   UNL     1       0.705  -1.865   1.603  0.00  0.00    +0.033 A 
ATOM     11  N   UNL     1       0.815  -0.540   1.167  0.00  0.00    -0.323 N 
ENDROOT
BRANCH  11  12
ATOM     12  C   UNL     1       1.700   0.402   1.858  0.00  0.00    +0.140 C 
BRANCH  12  13
ATOM     13  C   UNL     1       3.027   0.459   1.145  0.00  0.00    -0.027 A 
ATOM     14  C   UNL     1       3.987  -0.503   1.397  0.00  0.00    +0.007 A 
ATOM     15  C   UNL     1       5.205  -0.454   0.746  0.00  0.00    +0.026 A 
ATOM     16  C   UNL     1       5.465   0.563  -0.162  0.00  0.00    +0.060 A 
ATOM     17  C   UNL     1       4.497   1.530  -0.414  0.00  0.00    +0.144 A 
ATOM     18  C   UNL     1       3.279   1.471   0.237  0.00  0.00    +0.045 A 
ATOM     19  F   UNL     1       4.746   2.522  -1.296  0.00  0.00    -0.204 F 
BRANCH  16  20
ATOM     20  N   UNL     1       6.697   0.616  -0.822  0.00  0.00    -0.356 N 
ATOM     21  H   UNL     1       7.371  -0.059  -0.645  0.00  0.00    +0.142 HD
ATOM     22  H   UNL     1       6.877   1.327  -1.456  0.00  0.00    +0.142 HD
ENDBRANCH  16  20
ENDBRANCH  12  13
ENDBRANCH  11  12
TORSDOF 3
