REMARK  Name = ZINC09915662
REMARK  12 active torsions:
REMARK  status: ('A' for Active; 'I' for Inactive)
REMARK    1  A    between atoms: C_1  and  C_2
REMARK    2  A    between atoms: C_2  and  C_4
REMARK    3  A    between atoms: C_2  and  O_17
REMARK    4  A    between atoms: C_6  and  O_15
REMARK    5  A    between atoms: C_7  and  O_13
REMARK    6  A    between atoms: C_9  and  N_10
REMARK    7  A    between atoms: O_13  and  C_14
REMARK    8  A    between atoms: O_15  and  C_16
REMARK    9  A    between atoms: O_17  and  C_18
REMARK   10  A    between atoms: C_18  and  C_20
REMARK   11  A    between atoms: C_24  and  C_26
REMARK   12  A    between atoms: C_31  and  O_35
REMARK                            x       y       z     vdW  Elec       q    Type
REMARK                         _______ _______ _______ _____ _____    ______ ____
ROOT
ATOM      1  C   UNL     1      -6.534   6.825  -1.141  0.00  0.00    +0.333 C 
ATOM      2  O   UNL     1      -6.125   6.260  -2.128  0.00  0.00    -0.248 OA
ENDROOT
BRANCH   1   3
ATOM      3  C   UNL     1      -5.659   6.938   0.080  0.00  0.00    +0.225 C 
ATOM      4  C   UNL     1      -5.024   8.347   0.111  0.00  0.00    +0.114 C 
ATOM      5  S   UNL     1      -3.245   7.902   0.083  0.00  0.00    -0.101 S 
ATOM      6  C   UNL     1      -3.401   6.128   0.038  0.00  0.00    +0.125 C 
ATOM      7  N   UNL     1      -4.673   5.882   0.039  0.00  0.00    -0.259 NA
BRANCH   6   8
ATOM      8  C   UNL     1      -2.303   5.139   0.001  0.00  0.00    +0.134 A 
ATOM      9  N   UNL     1      -2.376   3.827  -0.034  0.00  0.00    -0.237 NA
ATOM     10  C   UNL     1      -1.291   3.042  -0.065  0.00  0.00    +0.079 A 
ATOM     11  C   UNL     1      -1.237   1.626  -0.109  0.00  0.00    +0.032 A 
ATOM     12  C   UNL     1      -0.047   0.974  -0.134  0.00  0.00    +0.047 A 
ATOM     13  C   UNL     1       1.165   1.663  -0.127  0.00  0.00    +0.118 A 
ATOM     14  C   UNL     1       1.157   3.049  -0.089  0.00  0.00    +0.062 A 
ATOM     15  C   UNL     1      -0.044   3.715  -0.059  0.00  0.00    +0.043 A 
ATOM     16  S   UNL     1      -0.538   5.421  -0.009  0.00  0.00    -0.065 S 
BRANCH  13  17
ATOM     17  O   UNL     1       2.342   0.984  -0.158  0.00  0.00    -0.507 OA
ATOM     18  H   UNL     1       2.673   0.811  -1.050  0.00  0.00    +0.292 HD
ENDBRANCH  13  17
ENDBRANCH   6   8
ENDBRANCH   1   3
BRANCH   1  19
ATOM     19  O   UNL     1      -7.768   7.352  -1.133  0.00  0.00    -0.455 OA
BRANCH  19  21
ATOM     20  C   UNL     1      -8.302   8.402  -3.265  0.00  0.00    +0.057 C 
ATOM     21  C   UNL     1      -8.555   7.206  -2.345  0.00  0.00    +0.206 C 
BRANCH  21  22
ATOM     22  C   UNL     1     -10.019   7.147  -1.989  0.00  0.00    +0.026 A 
ATOM     23  C   UNL     1     -10.456   7.657  -0.780  0.00  0.00    +0.059 A 
ATOM     24  C   UNL     1     -11.800   7.603  -0.452  0.00  0.00    +0.162 A 
ATOM     25  C   UNL     1     -12.709   7.036  -1.341  0.00  0.00    +0.164 A 
ATOM     26  C   UNL     1     -12.264   6.527  -2.550  0.00  0.00    +0.082 A 
ATOM     27  C   UNL     1     -10.921   6.589  -2.874  0.00  0.00    +0.137 A 
BRANCH  27  28
ATOM     28  N   UNL     1     -10.449   6.050  -4.169  0.00  0.00    +0.057 N 
ATOM     29  O   UNL     1     -11.252   5.640  -4.988  0.00  0.00    -0.126 OA
ATOM     30  O   UNL     1      -9.257   6.016  -4.416  0.00  0.00    -0.126 OA
ENDBRANCH  27  28
BRANCH  25  31
ATOM     31  O   UNL     1     -14.030   6.981  -1.023  0.00  0.00    -0.491 OA
ATOM     32  C   UNL     1     -14.904   6.385  -1.983  0.00  0.00    +0.277 C 
ENDBRANCH  25  31
BRANCH  24  33
ATOM     33  O   UNL     1     -12.232   8.105   0.737  0.00  0.00    -0.491 OA
ATOM     34  C   UNL     1     -11.244   8.672   1.599  0.00  0.00    +0.277 C 
ENDBRANCH  24  33
ENDBRANCH  21  22
ENDBRANCH  19  21
ENDBRANCH   1  19
TORSDOF 9
