REMARK  Name = ZINC38040270
REMARK  5 active torsions:
REMARK  status: ('A' for Active; 'I' for Inactive)
REMARK    1  A    between atoms: C_1  and  C_2
REMARK    2  A    between atoms: C_4  and  C_18
REMARK    3  A    between atoms: C_6  and  O_8
REMARK    4  A    between atoms: O_8  and  C_9
REMARK    5  A    between atoms: C_12  and  N_16
REMARK                            x       y       z     vdW  Elec       q    Type
REMARK                         _______ _______ _______ _____ _____    ______ ____
ROOT
ATOM      1  C   UNL     1       0.047  -2.063   3.517  0.00  0.00    +0.198 A 
ATOM      2  C   UNL     1       1.247  -1.679   4.100  0.00  0.00    +0.170 A 
ATOM      3  C   UNL     1       1.243  -0.954   5.278  0.00  0.00    +0.065 A 
ATOM      4  C   UNL     1       0.039  -0.611   5.878  0.00  0.00    +0.030 A 
ATOM      5  C   UNL     1      -1.161  -0.995   5.295  0.00  0.00    +0.065 A 
ATOM      6  C   UNL     1      -1.157  -1.714   4.114  0.00  0.00    +0.170 A 
ATOM      7  F   UNL     1      -2.325  -2.083   3.544  0.00  0.00    -0.201 F 
ATOM      8  F   UNL     1       2.419  -2.013   3.516  0.00  0.00    -0.201 F 
ENDROOT
BRANCH   4   9
ATOM      9  N   UNL     1       0.035   0.121   7.071  0.00  0.00    -0.358 N 
ATOM     10  H   UNL     1       0.874   0.389   7.478  0.00  0.00    +0.142 HD
ATOM     11  H   UNL     1      -0.806   0.361   7.490  0.00  0.00    +0.142 HD
ENDBRANCH   4   9
BRANCH   1  12
ATOM     12  O   UNL     1       0.051  -2.776   2.358  0.00  0.00    -0.450 OA
BRANCH  12  18
ATOM     13  C   UNL     1      -0.018   1.503   0.010  0.00  0.00    +0.044 C 
ATOM     14  C   UNL     1       0.002  -0.004   0.002  0.00  0.00    -0.047 A 
ATOM     15  C   UNL     1       0.006  -0.688  -1.200  0.00  0.00    +0.007 A 
ATOM     16  C   UNL     1       0.025  -2.071  -1.211  0.00  0.00    -0.047 A 
ATOM     17  C   UNL     1       0.040  -2.772  -0.021  0.00  0.00    +0.049 A 
ATOM     18  C   UNL     1       0.036  -2.088   1.186  0.00  0.00    +0.129 A 
ATOM     19  C   UNL     1       0.023  -0.701   1.195  0.00  0.00    +0.049 A 
ATOM     20  C   UNL     1       0.028  -2.813  -2.522  0.00  0.00    +0.044 C 
ENDBRANCH  12  18
ENDBRANCH   1  12
TORSDOF 3
