REMARK  Name = ZINC13638819
REMARK  8 active torsions:
REMARK  status: ('A' for Active; 'I' for Inactive)
REMARK    1  A    between atoms: C_1  and  C_2
REMARK    2  A    between atoms: C_2  and  C_29
REMARK    3  A    between atoms: C_3  and  N_18
REMARK    4  A    between atoms: N_5  and  N_9
REMARK    5  A    between atoms: C_10  and  C_11
REMARK    6  A    between atoms: C_16  and  O_17
REMARK    7  A    between atoms: N_18  and  O_28
REMARK    8  A    between atoms: N_21  and  C_22
REMARK                            x       y       z     vdW  Elec       q    Type
REMARK                         _______ _______ _______ _____ _____    ______ ____
ROOT
ATOM      1  C   UNL     1      -1.700   2.172  -0.199  0.00  0.00    +0.026 C 
ATOM      2  C   UNL     1      -1.273   0.707  -0.310  0.00  0.00    +0.056 C 
ATOM      3  C   UNL     1      -0.210   0.507  -1.422  0.00  0.00    +0.232 C 
ATOM      4  N   UNL     1       1.137   0.601  -0.889  0.00  0.00    -0.187 N 
ATOM      5  C   UNL     1       1.353   0.425   0.429  0.00  0.00    +0.132 C 
ATOM      6  S   UNL     1       2.858   0.432   1.245  0.00  0.00    -0.026 S 
ATOM      7  S   UNL     1      -0.266   0.184   1.143  0.00  0.00    -0.091 S 
ATOM      8  C   UNL     1      -2.480  -0.210  -0.514  0.00  0.00    +0.026 C 
ENDROOT
BRANCH   3   9
ATOM      9  N   UNL     1      -0.393  -0.814  -2.028  0.00  0.00    -0.143 N 
ATOM     10  C   UNL     1      -0.369  -0.950  -3.369  0.00  0.00    +0.331 C 
ATOM     11  O   UNL     1      -0.105   0.006  -4.072  0.00  0.00    -0.250 OA
ATOM     12  N   UNL     1      -0.639  -2.145  -3.930  0.00  0.00    -0.268 N 
ATOM     13  H   UNL     1      -0.925  -2.888  -3.376  0.00  0.00    +0.156 HD
BRANCH  12  14
ATOM     14  C   UNL     1      -0.504  -2.315  -5.313  0.00  0.00    +0.035 A 
ATOM     15  C   UNL     1       0.491  -1.637  -6.004  0.00  0.00    +0.023 A 
ATOM     16  C   UNL     1       0.621  -1.807  -7.368  0.00  0.00    +0.002 A 
ATOM     17  C   UNL     1      -0.238  -2.652  -8.046  0.00  0.00    +0.000 A 
ATOM     18  C   UNL     1      -1.230  -3.328  -7.361  0.00  0.00    +0.002 A 
ATOM     19  C   UNL     1      -1.362  -3.167  -5.996  0.00  0.00    +0.023 A 
ENDBRANCH  12  14
BRANCH   9  20
ATOM     20  O   UNL     1      -0.595  -1.949  -1.206  0.00  0.00    -0.289 OA
ATOM     21  H   UNL     1      -0.626  -2.785  -1.690  0.00  0.00    +0.242 HD
ENDBRANCH   9  20
ENDBRANCH   3   9
BRANCH   4  22
ATOM     22  N   UNL     1       2.212   0.872  -1.746  0.00  0.00    -0.184 NA
ATOM     23  C   UNL     1       2.249   1.989  -2.406  0.00  0.00    +0.142 C 
BRANCH  23  24
ATOM     24  C   UNL     1       3.430   2.324  -3.221  0.00  0.00    +0.036 A 
ATOM     25  C   UNL     1       3.477   3.527  -3.929  0.00  0.00    +0.013 A 
ATOM     26  C   UNL     1       4.586   3.835  -4.689  0.00  0.00    +0.001 A 
ATOM     27  C   UNL     1       5.653   2.955  -4.756  0.00  0.00    +0.004 A 
ATOM     28  C   UNL     1       5.618   1.761  -4.061  0.00  0.00    +0.046 A 
ATOM     29  C   UNL     1       4.515   1.439  -3.287  0.00  0.00    +0.125 A 
BRANCH  29  30
ATOM     30  O   UNL     1       4.483   0.269  -2.599  0.00  0.00    -0.506 OA
ATOM     31  H   UNL     1       4.106  -0.470  -3.096  0.00  0.00    +0.292 HD
ENDBRANCH  29  30
ENDBRANCH  23  24
ENDBRANCH   4  22
TORSDOF 6
