REMARK  Name = ZINC37213042
REMARK  6 active torsions:
REMARK  status: ('A' for Active; 'I' for Inactive)
REMARK    1  A    between atoms: C_1  and  C_2
REMARK    2  A    between atoms: C_2  and  C_4
REMARK    3  A    between atoms: C_2  and  N_18
REMARK    4  A    between atoms: N_6  and  C_7
REMARK    5  A    between atoms: C_8  and  C_15
REMARK    6  A    between atoms: C_22  and  C_25
REMARK                            x       y       z     vdW  Elec       q    Type
REMARK                         _______ _______ _______ _____ _____    ______ ____
ROOT
ATOM      1  C   UNL     1      -0.557   1.414   0.134  0.00  0.00    -0.004 C 
ATOM      2  C   UNL     1       0.002  -0.004   0.002  0.00  0.00    +0.016 C 
ENDROOT
BRANCH   2   3
ATOM      3  N   UNL     1      -1.094  -0.938  -0.287  0.00  0.00    +0.388 N 
ATOM      4  C   UNL     1      -0.559  -2.300  -0.395  0.00  0.00    -0.078 C 
ATOM      5  C   UNL     1      -1.707  -3.288  -0.616  0.00  0.00    -0.018 C 
ATOM      6  C   UNL     1      -2.445  -2.924  -1.907  0.00  0.00    +0.006 C 
ATOM      7  C   UNL     1      -2.934  -1.476  -1.813  0.00  0.00    +0.028 C 
ATOM      8  C   UNL     1      -1.741  -0.556  -1.548  0.00  0.00    -0.068 C 
ATOM      9  H   UNL     1      -1.771  -0.903   0.461  0.00  0.00    -0.081 HD
BRANCH   7  10
ATOM     10  C   UNL     1      -3.596  -1.083  -3.109  0.00  0.00    +0.081 A 
ATOM     11  N   UNL     1      -3.070  -1.064  -4.299  0.00  0.00    -0.244 NA
ATOM     12  C   UNL     1      -3.772  -0.690  -5.389  0.00  0.00    +0.078 A 
ATOM     13  C   UNL     1      -3.371  -0.609  -6.739  0.00  0.00    +0.029 A 
ATOM     14  C   UNL     1      -4.248  -0.202  -7.698  0.00  0.00    +0.002 A 
ATOM     15  C   UNL     1      -5.556   0.145  -7.387  0.00  0.00    +0.001 A 
ATOM     16  C   UNL     1      -5.985   0.078  -6.075  0.00  0.00    +0.017 A 
ATOM     17  C   UNL     1      -5.108  -0.332  -5.100  0.00  0.00    +0.039 A 
ATOM     18  S   UNL     1      -5.184  -0.578  -3.345  0.00  0.00    -0.072 S 
ENDBRANCH   7  10
ENDBRANCH   2   3
BRANCH   2  19
ATOM     19  C   UNL     1       0.673  -0.401   1.292  0.00  0.00    +0.204 C 
ATOM     20  O   UNL     1       0.041  -0.974   2.153  0.00  0.00    -0.277 OA
ATOM     21  N   UNL     1       1.977  -0.120   1.487  0.00  0.00    -0.281 N 
ATOM     22  H   UNL     1       2.483   0.338   0.798  0.00  0.00    +0.155 HD
BRANCH  21  23
ATOM     23  C   UNL     1       2.595  -0.486   2.673  0.00  0.00    +0.084 A 
ATOM     24  C   UNL     1       3.909  -0.276   3.047  0.00  0.00    +0.068 A 
ATOM     25  C   UNL     1       4.316  -0.762   4.364  0.00  0.00    -0.023 A 
ATOM     26  C   UNL     1       3.332  -1.365   5.055  0.00  0.00    -0.004 A 
ATOM     27  S   UNL     1       1.917  -1.277   3.988  0.00  0.00    -0.077 S 
ATOM     28  C   UNL     1       3.805  -1.848   6.399  0.00  0.00    +0.043 C 
ATOM     29  C   UNL     1       5.347  -1.848   6.294  0.00  0.00    +0.010 C 
ATOM     30  C   UNL     1       5.588  -0.777   5.211  0.00  0.00    +0.037 C 
BRANCH  24  31
ATOM     31  C   UNL     1       4.856   0.404   2.158  0.00  0.00    +0.244 C 
ATOM     32  O   UNL     1       4.981   1.614   2.214  0.00  0.00    -0.270 OA
ATOM     33  N   UNL     1       5.588  -0.309   1.280  0.00  0.00    -0.325 N 
ATOM     34  H   UNL     1       5.488  -1.273   1.236  0.00  0.00    +0.145 HD
ATOM     35  H   UNL     1       6.214   0.141   0.692  0.00  0.00    +0.145 HD
ENDBRANCH  24  31
ENDBRANCH  21  23
ENDBRANCH   2  19
TORSDOF 5
