REMARK  Name = ZINC66927625
REMARK  10 active torsions:
REMARK  status: ('A' for Active; 'I' for Inactive)
REMARK    1  A    between atoms: C_1  and  C_2
REMARK    2  A    between atoms: C_2  and  C_4
REMARK    3  A    between atoms: C_2  and  N_23
REMARK    4  A    between atoms: C_4  and  N_6
REMARK    5  A    between atoms: C_10  and  C_13
REMARK    6  A    between atoms: C_16  and  C_19
REMARK    7  A    between atoms: C_19  and  C_20
REMARK    8  A    between atoms: C_19  and  C_21
REMARK    9  A    between atoms: C_19  and  C_22
REMARK   10  A    between atoms: C_24  and  C_26
REMARK                            x       y       z     vdW  Elec       q    Type
REMARK                         _______ _______ _______ _____ _____    ______ ____
ROOT
ATOM      1  N   UNL     1       0.285  -0.195   2.434  0.00  0.00    -0.144 NA
ATOM      2  C   UNL     1       0.930  -0.637   3.515  0.00  0.00    +0.216 A 
ATOM      3  N   UNL     1       2.053  -1.402   3.525  0.00  0.00    -0.310 N 
ATOM      4  H   UNL     1       2.529  -1.725   2.743  0.00  0.00    +0.170 HD
ATOM      5  C   UNL     1       2.400  -1.640   4.837  0.00  0.00    +0.161 A 
ATOM      6  N   UNL     1       1.532  -1.050   5.612  0.00  0.00    -0.153 NA
ATOM      7  N   UNL     1       0.590  -0.402   4.801  0.00  0.00    -0.246 N 
ATOM      8  H   UNL     1      -0.168   0.120   5.108  0.00  0.00    +0.192 HD
ENDROOT
BRANCH   5   9
ATOM      9  C   UNL     1       3.563  -2.433   5.293  0.00  0.00    +0.019 A 
ATOM     10  C   UNL     1       4.425  -3.011   4.361  0.00  0.00    +0.012 A 
ATOM     11  C   UNL     1       5.508  -3.749   4.791  0.00  0.00    +0.005 A 
ATOM     12  C   UNL     1       5.741  -3.916   6.145  0.00  0.00    -0.042 A 
ATOM     13  C   UNL     1       4.890  -3.346   7.074  0.00  0.00    +0.005 A 
ATOM     14  C   UNL     1       3.806  -2.601   6.656  0.00  0.00    +0.012 A 
BRANCH  12  15
ATOM     15  C   UNL     1       6.926  -4.723   6.609  0.00  0.00    -0.013 C 
ATOM     16  C   UNL     1       8.214  -4.084   6.086  0.00  0.00    +0.015 C 
ATOM     17  C   UNL     1       6.955  -4.754   8.138  0.00  0.00    +0.015 C 
ATOM     18  C   UNL     1       6.811  -6.152   6.072  0.00  0.00    +0.015 C 
ENDBRANCH  12  15
ENDBRANCH   5   9
BRANCH   1  19
ATOM     19  C   UNL     1       0.731  -0.503   1.223  0.00  0.00    +0.259 C 
ATOM     20  O   UNL     1       1.728  -1.188   1.098  0.00  0.00    -0.272 OA
BRANCH  19  22
ATOM     21  C   UNL     1      -0.019   1.526   0.010  0.00  0.00    +0.038 C 
ATOM     22  C   UNL     1       0.002  -0.004   0.002  0.00  0.00    +0.158 C 
BRANCH  22  23
ATOM     23  N   UNL     1       0.688  -0.476  -1.203  0.00  0.00    -0.304 N 
ATOM     24  C   UNL     1       0.006  -0.608  -2.358  0.00  0.00    +0.217 C 
ATOM     25  O   UNL     1      -1.175  -0.336  -2.400  0.00  0.00    -0.275 OA
ATOM     26  H   UNL     1       1.632  -0.695  -1.170  0.00  0.00    +0.149 HD
BRANCH  24  27
ATOM     27  C   UNL     1       0.712  -1.094  -3.598  0.00  0.00    +0.079 C 
ATOM     28  C   UNL     1       1.844  -0.127  -3.956  0.00  0.00    +0.041 C 
ATOM     29  C   UNL     1       2.503  -0.585  -5.260  0.00  0.00    +0.160 C 
ATOM     30  O   UNL     1       1.519  -0.648  -6.293  0.00  0.00    -0.380 OA
ATOM     31  C   UNL     1       0.460  -1.572  -6.035  0.00  0.00    +0.160 C 
ATOM     32  C   UNL     1      -0.282  -1.153  -4.763  0.00  0.00    +0.041 C 
ENDBRANCH  24  27
ENDBRANCH  22  23
ENDBRANCH  19  22
ENDBRANCH   1  19
TORSDOF 6
