REMARK  Name = ZINC39711210
REMARK  10 active torsions:
REMARK  status: ('A' for Active; 'I' for Inactive)
REMARK    1  A    between atoms: C_1  and  C_2
REMARK    2  A    between atoms: C_6  and  C_15
REMARK    3  A    between atoms: C_13  and  C_14
REMARK    4  A    between atoms: C_15  and  C_17
REMARK    5  A    between atoms: C_15  and  N_26
REMARK    6  A    between atoms: N_21  and  C_22
REMARK    7  A    between atoms: C_22  and  C_23
REMARK    8  A    between atoms: C_23  and  O_24
REMARK    9  A    between atoms: O_24  and  C_25
REMARK   10  A    between atoms: N_29  and  C_32
REMARK                            x       y       z     vdW  Elec       q    Type
REMARK                         _______ _______ _______ _____ _____    ______ ____
ROOT
ATOM      1  C   UNL     1       1.292  -4.843  -2.994  0.00  0.00    +0.142 C 
ENDROOT
BRANCH   1   7
ATOM      2  C   UNL     1      -4.905  -4.761  -6.544  0.00  0.00    +0.044 C 
ATOM      3  C   UNL     1      -3.850  -4.142  -5.663  0.00  0.00    -0.047 A 
ATOM      4  C   UNL     1      -3.010  -4.949  -4.966  0.00  0.00    +0.013 A 
ATOM      5  C   UNL     1      -1.989  -4.337  -4.115  0.00  0.00    -0.007 A 
ATOM      6  C   UNL     1      -1.123  -5.108  -3.397  0.00  0.00    -0.003 C 
ATOM      7  C   UNL     1      -0.098  -4.389  -2.542  0.00  0.00    +0.123 C 
ATOM      8  C   UNL     1      -0.118  -2.877  -2.555  0.00  0.00    +0.226 C 
ATOM      9  O   UNL     1       0.682  -2.249  -1.889  0.00  0.00    -0.275 OA
ATOM     10  N   UNL     1      -1.010  -2.240  -3.296  0.00  0.00    -0.284 N 
ATOM     11  C   UNL     1      -1.913  -2.868  -4.048  0.00  0.00    +0.041 A 
ATOM     12  C   UNL     1      -2.832  -2.124  -4.811  0.00  0.00    +0.027 A 
ATOM     13  C   UNL     1      -3.754  -2.753  -5.587  0.00  0.00    -0.046 A 
ATOM     14  C   UNL     1      -4.714  -1.915  -6.392  0.00  0.00    +0.044 C 
ATOM     15  H   UNL     1      -1.007  -1.270  -3.290  0.00  0.00    +0.155 HD
ENDBRANCH   1   7
BRANCH   1  16
ATOM     16  N   UNL     1       1.413  -6.296  -2.820  0.00  0.00    -0.289 NA
ATOM     17  C   UNL     1       1.322  -6.665  -1.401  0.00  0.00    +0.104 C 
ATOM     18  C   UNL     1       1.271  -8.191  -1.275  0.00  0.00    +0.120 C 
ATOM     19  N   UNL     1       2.423  -8.758  -1.992  0.00  0.00    -0.325 N 
ATOM     20  C   UNL     1       2.660  -8.328  -3.378  0.00  0.00    +0.120 C 
ATOM     21  C   UNL     1       2.657  -6.796  -3.421  0.00  0.00    +0.104 C 
BRANCH  19  22
ATOM     22  C   UNL     1       3.271  -9.681  -1.372  0.00  0.00    +0.065 A 
ATOM     23  C   UNL     1       3.007 -11.040  -1.465  0.00  0.00    +0.026 A 
ATOM     24  C   UNL     1       3.847 -11.950  -0.851  0.00  0.00    +0.002 A 
ATOM     25  C   UNL     1       4.950 -11.508  -0.144  0.00  0.00    +0.003 A 
ATOM     26  C   UNL     1       5.217 -10.154  -0.048  0.00  0.00    +0.040 A 
ATOM     27  C   UNL     1       4.385  -9.239  -0.664  0.00  0.00    +0.144 A 
ATOM     28  F   UNL     1       4.649  -7.917  -0.576  0.00  0.00    -0.204 F 
ENDBRANCH  19  22
ENDBRANCH   1  16
BRANCH   1  29
ATOM     29  C   UNL     1       1.485  -4.494  -4.448  0.00  0.00    +0.170 A 
ATOM     30  N   UNL     1       0.950  -5.103  -5.477  0.00  0.00    -0.112 NA
ATOM     31  N   UNL     1       1.356  -4.510  -6.546  0.00  0.00    -0.023 NA
ATOM     32  N   UNL     1       2.136  -3.538  -6.226  0.00  0.00    -0.044 NA
ATOM     33  N   UNL     1       2.237  -3.492  -4.940  0.00  0.00    -0.225 N 
BRANCH  33  34
ATOM     34  C   UNL     1       3.025  -2.531  -4.163  0.00  0.00    +0.175 C 
BRANCH  34  35
ATOM     35  C   UNL     1       4.437  -3.081  -3.953  0.00  0.00    +0.183 C 
BRANCH  35  36
ATOM     36  O   UNL     1       5.205  -2.145  -3.195  0.00  0.00    -0.381 OA
ATOM     37  C   UNL     1       6.548  -2.564  -2.942  0.00  0.00    +0.194 C 
ENDBRANCH  35  36
ENDBRANCH  34  35
ENDBRANCH  33  34
ENDBRANCH   1  29
TORSDOF 7
