REMARK  Name = ZINC01968273
REMARK  6 active torsions:
REMARK  status: ('A' for Active; 'I' for Inactive)
REMARK    1  A    between atoms: C_1  and  C_2
REMARK    2  A    between atoms: C_2  and  C_3
REMARK    3  A    between atoms: C_4  and  C_9
REMARK    4  A    between atoms: N_11  and  N_12
REMARK    5  A    between atoms: C_13  and  C_14
REMARK    6  A    between atoms: C_19  and  O_20
REMARK                            x       y       z     vdW  Elec       q    Type
REMARK                         _______ _______ _______ _____ _____    ______ ____
ROOT
ATOM      1  C   UNL     1       3.579   7.298   0.008  0.00  0.00    +0.272 C 
ATOM      2  O   UNL     1       2.514   7.890   0.021  0.00  0.00    -0.268 OA
ATOM      3  N   UNL     1       3.601   5.951   0.001  0.00  0.00    -0.202 N 
ATOM      4  H   UNL     1       4.448   5.480  -0.010  0.00  0.00    +0.178 HD
ENDROOT
BRANCH   1   6
ATOM      5  C   UNL     1       5.044   9.421   0.000  0.00  0.00    +0.062 A 
ATOM      6  C   UNL     1       4.833   8.050   0.001  0.00  0.00    +0.100 A 
ATOM      7  S   UNL     1       6.519   7.457  -0.019  0.00  0.00    -0.048 S 
ATOM      8  C   UNL     1       7.304   9.006  -0.017  0.00  0.00    +0.156 A 
ATOM      9  N   UNL     1       6.281   9.847  -0.003  0.00  0.00    -0.229 NA
ATOM     10  N   UNL     1       8.653   9.289  -0.028  0.00  0.00    -0.337 N 
ATOM     11  H   UNL     1       9.300   8.566  -0.038  0.00  0.00    +0.144 HD
ATOM     12  H   UNL     1       8.955  10.210  -0.026  0.00  0.00    +0.144 HD
BRANCH   5  14
ATOM     13  C   UNL     1       3.505  10.714   1.453  0.00  0.00    +0.010 C 
ATOM     14  C   UNL     1       3.888  10.388   0.008  0.00  0.00    +0.053 C 
ENDBRANCH   5  14
ENDBRANCH   1   6
BRANCH   3  15
ATOM     15  N   UNL     1       2.399   5.231   0.008  0.00  0.00    -0.187 NA
ATOM     16  C   UNL     1       2.420   3.933   0.001  0.00  0.00    +0.142 C 
BRANCH  16  17
ATOM     17  C   UNL     1       1.156   3.175   0.008  0.00  0.00    +0.036 A 
ATOM     18  C   UNL     1       1.174   1.779   0.000  0.00  0.00    +0.013 A 
ATOM     19  C   UNL     1      -0.013   1.076   0.008  0.00  0.00    +0.001 A 
ATOM     20  C   UNL     1      -1.222   1.749   0.017  0.00  0.00    +0.004 A 
ATOM     21  C   UNL     1      -1.254   3.131   0.031  0.00  0.00    +0.046 A 
ATOM     22  C   UNL     1      -0.071   3.852   0.023  0.00  0.00    +0.125 A 
BRANCH  22  23
ATOM     23  O   UNL     1      -0.101   5.210   0.032  0.00  0.00    -0.506 OA
ATOM     24  H   UNL     1      -0.118   5.608  -0.850  0.00  0.00    +0.292 HD
ENDBRANCH  22  23
ENDBRANCH  16  17
ENDBRANCH   3  15
TORSDOF 5
