REMARK  Name = ZINC04988437
REMARK  9 active torsions:
REMARK  status: ('A' for Active; 'I' for Inactive)
REMARK    1  A    between atoms: C_1  and  C_2
REMARK    2  A    between atoms: C_2  and  C_3
REMARK    3  A    between atoms: C_2  and  C_4
REMARK    4  A    between atoms: C_2  and  C_5
REMARK    5  A    between atoms: C_8  and  O_22
REMARK    6  A    between atoms: C_9  and  N_11
REMARK    7  A    between atoms: C_12  and  C_14
REMARK    8  A    between atoms: C_14  and  S_15
REMARK    9  A    between atoms: S_15  and  C_16
REMARK                            x       y       z     vdW  Elec       q    Type
REMARK                         _______ _______ _______ _____ _____    ______ ____
ROOT
ATOM      1  N   UNL     1      -0.033   0.008  -2.419  0.00  0.00    -0.282 N 
ATOM      2  C   UNL     1       0.632  -0.469  -3.490  0.00  0.00    +0.228 C 
ATOM      3  O   UNL     1       1.178  -1.551  -3.432  0.00  0.00    -0.275 OA
ATOM      4  H   UNL     1      -0.523   0.842  -2.484  0.00  0.00    +0.155 HD
ENDROOT
BRANCH   1   9
ATOM      5  C   UNL     1       0.017  -2.786  -0.025  0.00  0.00    -0.040 A 
ATOM      6  C   UNL     1       0.013  -2.105   1.178  0.00  0.00    +0.008 A 
ATOM      7  C   UNL     1      -0.002  -0.722   1.194  0.00  0.00    +0.047 A 
ATOM      8  C   UNL     1      -0.014  -0.016   0.002  0.00  0.00    +0.138 A 
ATOM      9  C   UNL     1      -0.015  -0.702  -1.210  0.00  0.00    +0.076 A 
ATOM     10  C   UNL     1       0.006  -2.089  -1.218  0.00  0.00    +0.031 A 
BRANCH   5  12
ATOM     11  C   UNL     1       0.043  -4.813   1.403  0.00  0.00    +0.015 C 
ATOM     12  C   UNL     1       0.034  -4.293  -0.035  0.00  0.00    -0.013 C 
ATOM     13  C   UNL     1      -1.212  -4.812  -0.757  0.00  0.00    +0.015 C 
ATOM     14  C   UNL     1       1.286  -4.784  -0.764  0.00  0.00    +0.015 C 
ENDBRANCH   5  12
BRANCH   8  15
ATOM     15  O   UNL     1      -0.030   1.344   0.016  0.00  0.00    -0.505 OA
ATOM     16  H   UNL     1       0.849   1.747   0.018  0.00  0.00    +0.292 HD
ENDBRANCH   8  15
ENDBRANCH   1   9
BRANCH   2  17
ATOM     17  C   UNL     1       0.697   0.341  -4.758  0.00  0.00    +0.172 C 
BRANCH  17  18
ATOM     18  S   UNL     1       1.655  -0.564  -6.005  0.00  0.00    -0.088 S 
BRANCH  18  19
ATOM     19  C   UNL     1       1.639   0.500  -7.410  0.00  0.00    +0.160 A 
ATOM     20  N   UNL     1       1.075   1.684  -7.556  0.00  0.00    -0.133 NA
ATOM     21  N   UNL     1       1.187   2.353  -8.752  0.00  0.00    -0.125 NA
ATOM     22  C   UNL     1       1.859   1.808  -9.748  0.00  0.00    +0.180 A 
ATOM     23  S   UNL     1       2.390   0.269  -9.014  0.00  0.00    -0.025 S 
ATOM     24  N   UNL     1       2.094   2.302 -11.026  0.00  0.00    -0.336 N 
ATOM     25  H   UNL     1       1.740   3.168 -11.284  0.00  0.00    +0.144 HD
ATOM     26  H   UNL     1       2.613   1.782 -11.659  0.00  0.00    +0.144 HD
ENDBRANCH  18  19
ENDBRANCH  17  18
ENDBRANCH   2  17
TORSDOF 6
