REMARK  Name = ZINC12361084
REMARK  4 active torsions:
REMARK  status: ('A' for Active; 'I' for Inactive)
REMARK    1  A    between atoms: C_1  and  C_2
REMARK    2  A    between atoms: C_12  and  C_14
REMARK    3  A    between atoms: C_14  and  S_15
REMARK    4  A    between atoms: S_15  and  C_16
REMARK                            x       y       z     vdW  Elec       q    Type
REMARK                         _______ _______ _______ _____ _____    ______ ____
ROOT
ATOM      1  C   UNL     1       7.742   3.576  -0.053  0.00  0.00    +0.173 C 
ENDROOT
BRANCH   1  13
ATOM      2  C   UNL     1      -1.288  -0.783   0.011  0.00  0.00    +0.044 C 
ATOM      3  C   UNL     1       0.002  -0.004   0.002  0.00  0.00    -0.049 A 
ATOM      4  C   UNL     1      -0.017   1.383   0.010  0.00  0.00    +0.005 A 
ATOM      5  C   UNL     1       1.142   2.115   0.003  0.00  0.00    +0.029 A 
ATOM      6  C   UNL     1       2.402   1.474  -0.013  0.00  0.00    +0.080 A 
ATOM      7  C   UNL     1       2.382   0.060  -0.020  0.00  0.00    +0.041 A 
ATOM      8  C   UNL     1       1.217  -0.665  -0.013  0.00  0.00    +0.020 A 
ATOM      9  S   UNL     1       4.113  -0.342  -0.039  0.00  0.00    -0.052 S 
ATOM     10  C   UNL     1       4.733   1.335  -0.036  0.00  0.00    +0.165 A 
ATOM     11  N   UNL     1       3.627   2.042  -0.021  0.00  0.00    -0.225 NA
ATOM     12  N   UNL     1       6.046   1.775  -0.046  0.00  0.00    -0.264 N 
ATOM     13  C   UNL     1       6.314   3.096  -0.042  0.00  0.00    +0.229 C 
ATOM     14  O   UNL     1       5.405   3.899  -0.029  0.00  0.00    -0.275 OA
ATOM     15  H   UNL     1       6.773   1.133  -0.057  0.00  0.00    +0.157 HD
ENDBRANCH   1  13
BRANCH   1  16
ATOM     16  S   UNL     1       7.771   5.386  -0.044  0.00  0.00    -0.079 S 
BRANCH  16  17
ATOM     17  C   UNL     1       9.511   5.664  -0.059  0.00  0.00    +0.180 C 
ATOM     18  N   UNL     1      10.278   4.621  -0.073  0.00  0.00    -0.106 NA
ATOM     19  S   UNL     1      11.928   4.777  -0.099  0.00  0.00    +0.103 S 
ATOM     20  O   UNL     1      12.378   4.601   1.238  0.00  0.00    -0.146 OA
ATOM     21  O   UNL     1      12.399   3.982  -1.178  0.00  0.00    -0.146 OA
ATOM     22  C   UNL     1      12.248   6.458  -0.527  0.00  0.00    +0.135 A 
ATOM     23  C   UNL     1      13.506   6.859  -0.919  0.00  0.00    +0.051 A 
ATOM     24  C   UNL     1      13.732   8.185  -1.253  0.00  0.00    +0.043 A 
ATOM     25  C   UNL     1      12.696   9.100  -1.192  0.00  0.00    +0.022 A 
ATOM     26  C   UNL     1      11.435   8.700  -0.799  0.00  0.00    +0.027 A 
ATOM     27  C   UNL     1      11.202   7.372  -0.461  0.00  0.00    +0.060 A 
ATOM     28  N   UNL     1       9.935   6.958  -0.062  0.00  0.00    -0.291 N 
ATOM     29 CL   UNL     1      15.316   8.697  -1.746  0.00  0.00    -0.083 Cl
ATOM     30  H   UNL     1       9.313   7.638   0.239  0.00  0.00    +0.154 HD
ENDBRANCH  16  17
ENDBRANCH   1  16
TORSDOF 3
