REMARK  Name = ZINC21220623
REMARK  4 active torsions:
REMARK  status: ('A' for Active; 'I' for Inactive)
REMARK    1  A    between atoms: C_1  and  C_2
REMARK    2  A    between atoms: C_5  and  C_8
REMARK    3  A    between atoms: C_13  and  C_23
REMARK    4  A    between atoms: C_28  and  O_29
REMARK                            x       y       z     vdW  Elec       q    Type
REMARK                         _______ _______ _______ _____ _____    ______ ____
ROOT
ATOM      1  C   UNL     1      -3.083   4.865  -4.202  0.00  0.00    +0.032 C 
ATOM      2  C   UNL     1      -4.358   4.497  -3.445  0.00  0.00    +0.059 C 
ATOM      3  C   UNL     1      -4.026   4.157  -2.002  0.00  0.00    +0.017 C 
ATOM      4  C   UNL     1      -2.999   4.758  -1.377  0.00  0.00    +0.037 C 
ATOM      5  C   UNL     1      -2.567   4.520   0.050  0.00  0.00    +0.139 C 
ATOM      6  N   UNL     1      -3.507   3.757   0.843  0.00  0.00    -0.331 N 
ATOM      7  C   UNL     1      -3.795   2.428   0.534  0.00  0.00    +0.049 A 
ATOM      8  C   UNL     1      -3.410   1.392   1.369  0.00  0.00    +0.025 A 
ATOM      9  C   UNL     1      -3.616   0.083   0.968  0.00  0.00    +0.002 A 
ATOM     10  C   UNL     1      -4.202  -0.190  -0.255  0.00  0.00    +0.002 A 
ATOM     11  C   UNL     1      -4.607   0.844  -1.081  0.00  0.00    +0.025 A 
ATOM     12  C   UNL     1      -4.419   2.153  -0.673  0.00  0.00    +0.052 A 
ATOM     13  N   UNL     1      -4.845   3.237  -1.431  0.00  0.00    -0.316 N 
ATOM     14  C   UNL     1      -2.208   5.711  -2.063  0.00  0.00    +0.163 C 
ATOM     15  O   UNL     1      -1.297   6.254  -1.469  0.00  0.00    -0.292 OA
ATOM     16  C   UNL     1      -2.454   6.072  -3.497  0.00  0.00    +0.088 C 
ATOM     17  H   UNL     1      -4.006   4.224   1.705  0.00  0.00    +0.147 HD
ATOM     18  H   UNL     1      -5.935   3.321  -1.553  0.00  0.00    +0.152 HD
ENDROOT
BRANCH   1  23
ATOM     19  C   UNL     1      -4.377   6.241  -9.663  0.00  0.00    +0.044 C 
ATOM     20  C   UNL     1      -4.040   5.882  -8.239  0.00  0.00    -0.050 A 
ATOM     21  C   UNL     1      -3.157   4.851  -7.977  0.00  0.00    +0.003 A 
ATOM     22  C   UNL     1      -2.848   4.522  -6.670  0.00  0.00    +0.004 A 
ATOM     23  C   UNL     1      -3.421   5.223  -5.626  0.00  0.00    -0.043 A 
ATOM     24  C   UNL     1      -4.308   6.251  -5.889  0.00  0.00    +0.004 A 
ATOM     25  C   UNL     1      -4.614   6.582  -7.195  0.00  0.00    +0.003 A 
ENDBRANCH   1  23
BRANCH   5  26
ATOM     26  C   UNL     1      -1.251   3.787   0.034  0.00  0.00    +0.020 A 
ATOM     27  C   UNL     1      -0.829   3.147  -1.116  0.00  0.00    +0.029 A 
ATOM     28  C   UNL     1       0.377   2.470  -1.130  0.00  0.00    +0.042 A 
ATOM     29  C   UNL     1       1.169   2.441   0.005  0.00  0.00    +0.023 A 
ATOM     30  C   UNL     1       0.754   3.083   1.155  0.00  0.00    +0.047 A 
ATOM     31  C   UNL     1      -0.458   3.759   1.172  0.00  0.00    +0.122 A 
ATOM     32 CL   UNL     1       0.901   1.662  -2.574  0.00  0.00    -0.084 Cl
BRANCH  31  33
ATOM     33  O   UNL     1      -0.868   4.392   2.302  0.00  0.00    -0.506 OA
ATOM     34  H   UNL     1      -0.239   4.369   3.204  0.00  0.00    +0.292 HD
ENDBRANCH  31  33
ENDBRANCH   5  26
TORSDOF 3
