REMARK  Name = ZINC16780652
REMARK  9 active torsions:
REMARK  status: ('A' for Active; 'I' for Inactive)
REMARK    1  A    between atoms: C_1  and  C_2
REMARK    2  A    between atoms: C_8  and  N_10
REMARK    3  A    between atoms: N_10  and  S_11
REMARK    4  A    between atoms: S_11  and  C_14
REMARK    5  A    between atoms: C_17  and  C_20
REMARK    6  A    between atoms: C_23  and  S_26
REMARK    7  A    between atoms: S_26  and  N_29
REMARK    8  A    between atoms: N_29  and  C_30
REMARK    9  A    between atoms: C_36  and  C_38
REMARK                            x       y       z     vdW  Elec       q    Type
REMARK                         _______ _______ _______ _____ _____    ______ ____
ROOT
ATOM      1  C   UNL     1       4.653  -2.210   1.158  0.00  0.00    +0.105 A 
ATOM      2  C   UNL     1       4.867  -2.010   2.510  0.00  0.00    +0.029 A 
ATOM      3  C   UNL     1       5.001  -3.090   3.358  0.00  0.00    +0.010 A 
ATOM      4  C   UNL     1       4.933  -4.385   2.848  0.00  0.00    -0.018 A 
ATOM      5  C   UNL     1       4.723  -4.582   1.485  0.00  0.00    +0.010 A 
ATOM      6  C   UNL     1       4.584  -3.494   0.647  0.00  0.00    +0.029 A 
ENDROOT
BRANCH   4   7
ATOM      7  C   UNL     1       5.083  -5.551   3.754  0.00  0.00    -0.018 A 
ATOM      8  C   UNL     1       5.009  -6.846   3.245  0.00  0.00    +0.010 A 
ATOM      9  C   UNL     1       5.154  -7.927   4.091  0.00  0.00    +0.029 A 
ATOM     10  C   UNL     1       5.363  -7.726   5.444  0.00  0.00    +0.105 A 
ATOM     11  C   UNL     1       5.432  -6.442   5.955  0.00  0.00    +0.029 A 
ATOM     12  C   UNL     1       5.293  -5.355   5.117  0.00  0.00    +0.010 A 
BRANCH  10  13
ATOM     13  S   UNL     1       5.541  -9.110   6.519  0.00  0.00    +0.059 S 
ATOM     14  O   UNL     1       5.982 -10.195   5.715  0.00  0.00    -0.153 OA
ATOM     15  O   UNL     1       6.271  -8.654   7.650  0.00  0.00    -0.153 OA
BRANCH  13  16
ATOM     16  N   UNL     1       4.028  -9.508   7.061  0.00  0.00    -0.187 NA
ATOM     17  H   UNL     1       3.811  -9.418   8.002  0.00  0.00    +0.148 HD
BRANCH  16  18
ATOM     18  C   UNL     1       3.017  -9.994   6.119  0.00  0.00    +0.079 C 
ATOM     19  C   UNL     1       2.146  -8.823   5.657  0.00  0.00    +0.020 C 
ATOM     20  C   UNL     1       1.454  -8.193   6.867  0.00  0.00    +0.002 C 
ATOM     21  C   UNL     1       0.577  -9.241   7.556  0.00  0.00    +0.000 C 
ATOM     22  C   UNL     1       1.448 -10.411   8.018  0.00  0.00    +0.005 C 
ATOM     23  C   UNL     1       2.139 -11.041   6.808  0.00  0.00    +0.005 C 
ATOM     24  C   UNL     1       3.010 -12.211   7.270  0.00  0.00    +0.009 C 
ENDBRANCH  16  18
ENDBRANCH  13  16
ENDBRANCH  10  13
ENDBRANCH   4   7
BRANCH   1  25
ATOM     25  S   UNL     1       4.476  -0.826   0.082  0.00  0.00    +0.059 S 
ATOM     26  O   UNL     1       4.835  -1.273  -1.218  0.00  0.00    -0.153 OA
ATOM     27  O   UNL     1       5.123   0.268   0.718  0.00  0.00    -0.153 OA
BRANCH  25  28
ATOM     28  N   UNL     1       2.863  -0.454   0.025  0.00  0.00    -0.187 NA
ATOM     29  H   UNL     1       2.373  -0.548  -0.806  0.00  0.00    +0.148 HD
BRANCH  28  36
ATOM     30  C   UNL     1       0.763  -2.041   1.233  0.00  0.00    +0.009 C 
ATOM     31  C   UNL     1       0.742  -0.511   1.242  0.00  0.00    +0.005 C 
ATOM     32  C   UNL     1       0.002  -0.004   0.002  0.00  0.00    +0.005 C 
ATOM     33  C   UNL     1      -0.019   1.526   0.010  0.00  0.00    +0.000 C 
ATOM     34  C   UNL     1       1.417   2.055  -0.000  0.00  0.00    +0.002 C 
ATOM     35  C   UNL     1       2.157   1.548   1.239  0.00  0.00    +0.020 C 
ATOM     36  C   UNL     1       2.178   0.019   1.231  0.00  0.00    +0.079 C 
ENDBRANCH  28  36
ENDBRANCH  25  28
ENDBRANCH   1  25
TORSDOF 7
