REMARK  Name = ZINC12717428
REMARK  9 active torsions:
REMARK  status: ('A' for Active; 'I' for Inactive)
REMARK    1  A    between atoms: C_1  and  C_2
REMARK    2  A    between atoms: C_2  and  C_3
REMARK    3  A    between atoms: C_10  and  C_15
REMARK    4  A    between atoms: C_15  and  N_69
REMARK    5  A    between atoms: C_16  and  C_17
REMARK    6  A    between atoms: C_16  and  N_69
REMARK    7  A    between atoms: C_26  and  C_27
REMARK    8  A    between atoms: C_26  and  N_69
REMARK    9  A    between atoms: N_31  and  C_32
REMARK                            x       y       z     vdW  Elec       q    Type
REMARK                         _______ _______ _______ _____ _____    ______ ____
ROOT
ATOM      1  N   UNL     1       6.585  -1.576   1.679  0.00  0.00    +0.390 N 
ATOM      2  H   UNL     1       6.435  -0.944   0.883  0.00  0.00    -0.080 HD
ENDROOT
BRANCH   1   3
ATOM      3  C   UNL     1       6.484  -2.973   1.207  0.00  0.00    -0.036 C 
BRANCH   3  11
ATOM      4  C   UNL     1      11.253  -4.299  -2.506  0.00  0.00    -0.047 A 
ATOM      5  C   UNL     1      10.636  -3.924  -3.692  0.00  0.00    +0.005 A 
ATOM      6  C   UNL     1       9.345  -3.442  -3.691  0.00  0.00    +0.026 A 
ATOM      7  C   UNL     1       8.650  -3.329  -2.491  0.00  0.00    +0.049 A 
ATOM      8  C   UNL     1       9.280  -3.711  -1.291  0.00  0.00    -0.001 A 
ATOM      9  C   UNL     1      10.591  -4.197  -1.316  0.00  0.00    +0.013 A 
ATOM     10  C   UNL     1       8.541  -3.589  -0.033  0.00  0.00    +0.017 A 
ATOM     11  C   UNL     1       7.272  -3.111  -0.070  0.00  0.00    +0.001 A 
ATOM     12  C   UNL     1       6.685  -2.748  -1.301  0.00  0.00    +0.251 A 
ATOM     13  O   UNL     1       5.542  -2.326  -1.313  0.00  0.00    -0.268 OA
ATOM     14  N   UNL     1       7.358  -2.852  -2.461  0.00  0.00    -0.322 N 
ATOM     15  H   UNL     1       6.926  -2.590  -3.289  0.00  0.00    +0.169 HD
BRANCH   4  17
ATOM     16  C   UNL     1      12.643  -6.342  -2.705  0.00  0.00    +0.009 C 
ATOM     17  C   UNL     1      12.666  -4.822  -2.533  0.00  0.00    +0.032 C 
ENDBRANCH   4  17
ENDBRANCH   3  11
ENDBRANCH   1   3
BRANCH   1  18
ATOM     18  C   UNL     1       5.552  -1.313   2.702  0.00  0.00    -0.042 C 
BRANCH  18  19
ATOM     19  C   UNL     1       4.205  -1.261   2.029  0.00  0.00    -0.060 A 
ATOM     20  C   UNL     1       3.397  -2.383   2.015  0.00  0.00    +0.005 A 
ATOM     21  C   UNL     1       2.160  -2.341   1.398  0.00  0.00    +0.050 A 
ATOM     22  C   UNL     1       1.727  -1.172   0.793  0.00  0.00    +0.166 A 
ATOM     23  C   UNL     1       2.540  -0.041   0.808  0.00  0.00    +0.166 A 
ATOM     24  C   UNL     1       3.779  -0.091   1.428  0.00  0.00    +0.051 A 
ATOM     25  O   UNL     1       1.896   0.968   0.154  0.00  0.00    -0.453 OA
ATOM     26  C   UNL     1       0.514   0.568   0.095  0.00  0.00    +0.466 C 
ATOM     27  O   UNL     1       0.573  -0.871   0.130  0.00  0.00    -0.453 OA
ENDBRANCH  18  19
ENDBRANCH   1  18
BRANCH   1  28
ATOM     28  C   UNL     1       7.929  -1.329   2.242  0.00  0.00    +0.001 C 
BRANCH  28  29
ATOM     29  C   UNL     1       8.134   0.159   2.370  0.00  0.00    +0.135 A 
ATOM     30  N   UNL     1       8.564   0.973   1.438  0.00  0.00    -0.115 NA
ATOM     31  N   UNL     1       8.600   2.162   1.934  0.00  0.00    -0.023 NA
ATOM     32  N   UNL     1       8.213   2.125   3.161  0.00  0.00    -0.044 NA
ATOM     33  N   UNL     1       7.916   0.908   3.467  0.00  0.00    -0.228 N 
BRANCH  33  34
ATOM     34  C   UNL     1       7.434   0.430   4.766  0.00  0.00    +0.111 C 
ATOM     35  C   UNL     1       6.214   1.251   5.190  0.00  0.00    +0.027 C 
ATOM     36  C   UNL     1       5.710   0.752   6.545  0.00  0.00    +0.002 C 
ATOM     37  C   UNL     1       6.817   0.907   7.590  0.00  0.00    +0.000 C 
ATOM     38  C   UNL     1       8.037   0.087   7.166  0.00  0.00    +0.002 C 
ATOM     39  C   UNL     1       8.541   0.586   5.810  0.00  0.00    +0.027 C 
ENDBRANCH  33  34
ENDBRANCH  28  29
ENDBRANCH   1  28
TORSDOF 8
