REMARK  Name = ZINC33746273
REMARK  14 active torsions:
REMARK  status: ('A' for Active; 'I' for Inactive)
REMARK    1  A    between atoms: C_1  and  C_2
REMARK    2  A    between atoms: C_2  and  C_3
REMARK    3  A    between atoms: C_3  and  C_4
REMARK    4  A    between atoms: C_4  and  N_5
REMARK    5  A    between atoms: C_6  and  C_32
REMARK    6  A    between atoms: C_7  and  C_26
REMARK    7  A    between atoms: C_8  and  C_13
REMARK    8  A    between atoms: C_17  and  N_19
REMARK    9  A    between atoms: C_20  and  C_22
REMARK   10  A    between atoms: C_22  and  C_24
REMARK   11  A    between atoms: C_26  and  O_28
REMARK   12  A    between atoms: O_28  and  C_29
REMARK   13  A    between atoms: C_29  and  C_30
REMARK   14  A    between atoms: C_29  and  C_31
REMARK                            x       y       z     vdW  Elec       q    Type
REMARK                         _______ _______ _______ _____ _____    ______ ____
ROOT
ATOM      1  N   UNL     1      -0.962   1.183  -0.433  0.00  0.00    -0.259 N 
ATOM      2  C   UNL     1      -1.379   2.483  -0.446  0.00  0.00    +0.024 C 
ATOM      3  C   UNL     1      -0.495   3.501  -0.355  0.00  0.00    +0.078 C 
ATOM      4  C   UNL     1       0.974   3.149  -0.233  0.00  0.00    +0.144 C 
ATOM      5  N   UNL     1       1.319   1.718  -0.223  0.00  0.00    -0.288 N 
ATOM      6  C   UNL     1       0.322   0.817  -0.322  0.00  0.00    +0.307 C 
ATOM      7  O   UNL     1       0.596  -0.367  -0.315  0.00  0.00    -0.252 OA
ATOM      8  C   UNL     1      -2.850   2.788  -0.570  0.00  0.00    +0.061 C 
ATOM      9  H   UNL     1       2.370   1.406  -0.136  0.00  0.00    +0.151 HD
ENDROOT
BRANCH   4  10
ATOM     10  C   UNL     1       1.493   3.761   1.043  0.00  0.00    -0.021 A 
ATOM     11  C   UNL     1       1.391   3.066   2.234  0.00  0.00    +0.006 A 
ATOM     12  C   UNL     1       1.866   3.623   3.407  0.00  0.00    +0.002 A 
ATOM     13  C   UNL     1       2.445   4.878   3.392  0.00  0.00    +0.023 A 
ATOM     14  C   UNL     1       2.549   5.578   2.197  0.00  0.00    +0.034 A 
ATOM     15  C   UNL     1       2.075   5.013   1.021  0.00  0.00    +0.029 A 
BRANCH  14  16
ATOM     16  N   UNL     1       3.135   6.849   2.179  0.00  0.00    -0.284 N 
ATOM     17  C   UNL     1       2.965   7.684   3.223  0.00  0.00    +0.235 C 
ATOM     18  O   UNL     1       2.373   7.307   4.212  0.00  0.00    -0.274 OA
ATOM     19  H   UNL     1       3.734   7.166   1.312  0.00  0.00    +0.155 HD
BRANCH  17  20
ATOM     20  C   UNL     1       3.510   9.088   3.160  0.00  0.00    +0.163 C 
ATOM     21  C   UNL     1       4.213   9.421   4.478  0.00  0.00    +0.034 C 
ATOM     22 CL   UNL     1       2.155  10.247   2.892  0.00  0.00    -0.112 Cl
ENDBRANCH  17  20
ENDBRANCH  14  16
ENDBRANCH   4  10
BRANCH   3  23
ATOM     23  C   UNL     1      -0.926   4.848  -0.373  0.00  0.00    +0.339 C 
ATOM     24  O   UNL     1      -2.100   5.109  -0.561  0.00  0.00    -0.245 OA
BRANCH  23  25
ATOM     25  O   UNL     1      -0.036   5.843  -0.182  0.00  0.00    -0.459 OA
BRANCH  25  26
ATOM     26  C   UNL     1      -0.541   7.180  -0.213  0.00  0.00    +0.171 C 
ATOM     27  C   UNL     1      -0.961   7.599   1.197  0.00  0.00    +0.052 C 
ATOM     28  C   UNL     1       0.549   8.125  -0.723  0.00  0.00    +0.052 C 
ENDBRANCH  25  26
ENDBRANCH  23  25
ENDBRANCH   3  23
BRANCH   1  29
ATOM     29  C   UNL     1      -1.974   0.131  -0.542  0.00  0.00    +0.115 C 
BRANCH  29  30
ATOM     30  C   UNL     1      -2.554  -0.165   0.843  0.00  0.00    +0.019 C 
BRANCH  30  32
ATOM     31  C   UNL     1      -4.190  -1.560   2.115  0.00  0.00    +0.004 C 
ATOM     32  C   UNL     1      -3.611  -1.264   0.730  0.00  0.00    -0.002 C 
ENDBRANCH  30  32
ENDBRANCH  29  30
ENDBRANCH   1  29
TORSDOF 9
