REMARK  Name = ZINC36500209
REMARK  9 active torsions:
REMARK  status: ('A' for Active; 'I' for Inactive)
REMARK    1  A    between atoms: C_3  and  C_6
REMARK    2  A    between atoms: C_6  and  N_7
REMARK    3  A    between atoms: N_7  and  C_8
REMARK    4  A    between atoms: C_8  and  C_10
REMARK    5  A    between atoms: C_8  and  C_17
REMARK    6  A    between atoms: C_13  and  O_16
REMARK    7  A    between atoms: N_19  and  C_20
REMARK    8  A    between atoms: C_26  and  C_28
REMARK    9  A    between atoms: C_31  and  O_34
REMARK                            x       y       z     vdW  Elec       q    Type
REMARK                         _______ _______ _______ _____ _____    ______ ____
ROOT
ATOM      1  C   UNL     1       4.068  -1.332   1.595  0.00  0.00    +0.193 C 
ENDROOT
BRANCH   1   2
ATOM      2  C   UNL     1       2.928  -1.994   2.324  0.00  0.00    -0.018 A 
ATOM      3  C   UNL     1       1.734  -2.232   1.668  0.00  0.00    +0.009 A 
ATOM      4  C   UNL     1       0.687  -2.838   2.335  0.00  0.00    +0.046 A 
ATOM      5  C   UNL     1       0.834  -3.209   3.664  0.00  0.00    +0.117 A 
ATOM      6  C   UNL     1       2.033  -2.970   4.319  0.00  0.00    +0.046 A 
ATOM      7  C   UNL     1       3.079  -2.368   3.647  0.00  0.00    +0.009 A 
BRANCH   5   8
ATOM      8  O   UNL     1      -0.194  -3.805   4.322  0.00  0.00    -0.507 OA
ATOM      9  H   UNL     1      -0.195  -4.770   4.258  0.00  0.00    +0.292 HD
ENDBRANCH   5   8
ENDBRANCH   1   2
BRANCH   1  10
ATOM     10  C   UNL     1       5.025  -2.384   1.097  0.00  0.00    +0.238 C 
ATOM     11  O   UNL     1       5.794  -2.127   0.195  0.00  0.00    -0.273 OA
ATOM     12  N   UNL     1       5.026  -3.612   1.654  0.00  0.00    -0.311 N 
ATOM     13  H   UNL     1       4.410  -3.817   2.375  0.00  0.00    +0.149 HD
BRANCH  12  14
ATOM     14  C   UNL     1       5.955  -4.635   1.170  0.00  0.00    +0.073 C 
ATOM     15  C   UNL     1       5.347  -5.345  -0.041  0.00  0.00    +0.022 C 
ATOM     16  C   UNL     1       6.318  -6.414  -0.547  0.00  0.00    +0.002 C 
ATOM     17  C   UNL     1       6.579  -7.433   0.565  0.00  0.00    +0.000 C 
ATOM     18  C   UNL     1       7.187  -6.723   1.775  0.00  0.00    +0.002 C 
ATOM     19  C   UNL     1       6.216  -5.654   2.281  0.00  0.00    +0.022 C 
ENDBRANCH  12  14
ENDBRANCH   1  10
BRANCH   1  20
ATOM     20  N   UNL     1       3.544  -0.571   0.458  0.00  0.00    -0.275 N 
ATOM     21  C   UNL     1       2.543   0.313   0.642  0.00  0.00    +0.248 C 
ATOM     22  O   UNL     1       2.255   1.098  -0.241  0.00  0.00    -0.270 OA
BRANCH  21  23
ATOM     23  C   UNL     1       1.798   0.329   1.915  0.00  0.00    +0.037 A 
ATOM     24  C   UNL     1       2.416  -0.095   3.095  0.00  0.00    +0.016 A 
ATOM     25  C   UNL     1       1.717  -0.079   4.281  0.00  0.00    +0.046 A 
ATOM     26  C   UNL     1       0.398   0.359   4.306  0.00  0.00    +0.117 A 
ATOM     27  C   UNL     1      -0.221   0.781   3.136  0.00  0.00    +0.046 A 
ATOM     28  C   UNL     1       0.473   0.773   1.946  0.00  0.00    +0.016 A 
BRANCH  26  29
ATOM     29  O   UNL     1      -0.287   0.373   5.478  0.00  0.00    -0.507 OA
ATOM     30  H   UNL     1      -0.210   1.202   5.969  0.00  0.00    +0.292 HD
ENDBRANCH  26  29
ENDBRANCH  21  23
BRANCH  20  31
ATOM     31  C   UNL     1       4.108  -0.771  -0.880  0.00  0.00    +0.183 C 
BRANCH  31  34
ATOM     32  C   UNL     1       7.105   1.371  -0.979  0.00  0.00    +0.041 A 
ATOM     33  C   UNL     1       6.369   0.295  -0.433  0.00  0.00    +0.046 A 
ATOM     34  C   UNL     1       5.212   0.227  -1.114  0.00  0.00    +0.122 A 
ATOM     35  O   UNL     1       5.207   1.201  -2.040  0.00  0.00    -0.466 OA
ATOM     36  C   UNL     1       6.353   1.897  -1.962  0.00  0.00    +0.195 A 
ENDBRANCH  31  34
ENDBRANCH  20  31
ENDBRANCH   1  20
TORSDOF 9
