REMARK  Name = ZINC20681741
REMARK  3 active torsions:
REMARK  status: ('A' for Active; 'I' for Inactive)
REMARK    1  A    between atoms: C_3  and  C_9
REMARK    2  A    between atoms: C_4  and  O_8
REMARK    3  A    between atoms: C_6  and  O_7
REMARK                            x       y       z     vdW  Elec       q    Type
REMARK                         _______ _______ _______ _____ _____    ______ ____
ROOT
ATOM      1  C   UNL     1       2.457   3.931  -0.000  0.00  0.00    +0.108 C 
ATOM      2  C   UNL     1       2.818   4.350   1.410  0.00  0.00    +0.029 C 
ATOM      3  C   UNL     1       1.887   5.334   2.127  0.00  0.00    +0.033 C 
ATOM      4  C   UNL     1       2.865   6.059   3.054  0.00  0.00    -0.030 C 
ATOM      5  C   UNL     1       4.090   6.021   2.539  0.00  0.00    -0.023 C 
ATOM      6  C   UNL     1       4.030   5.316   1.236  0.00  0.00    +0.050 C 
ATOM      7  C   UNL     1       5.151   4.505   0.713  0.00  0.00    +0.002 A 
ATOM      8  C   UNL     1       4.844   3.442  -0.141  0.00  0.00    +0.051 A 
ATOM      9  C   UNL     1       5.896   2.699  -0.681  0.00  0.00    +0.064 A 
ATOM     10  C   UNL     1       7.205   2.996  -0.367  0.00  0.00    +0.043 A 
ATOM     11  C   UNL     1       7.495   4.040   0.493  0.00  0.00    +0.061 A 
ATOM     12  C   UNL     1       6.463   4.791   1.030  0.00  0.00    +0.065 A 
ATOM     13 CL   UNL     1       6.823   6.101   2.111  0.00  0.00    -0.082 Cl
ATOM     14 CL   UNL     1       9.143   4.406   0.897  0.00  0.00    -0.082 Cl
ATOM     15 CL   UNL     1       5.550   1.384  -1.760  0.00  0.00    -0.082 Cl
ATOM     16  N   UNL     1       3.546   3.071  -0.488  0.00  0.00    -0.335 N 
ATOM     17  H   UNL     1       3.315   2.183  -1.096  0.00  0.00    +0.147 HD
ENDROOT
BRANCH   1  20
ATOM     18  C   UNL     1      -0.018   1.087   0.193  0.00  0.00    +0.046 A 
ATOM     19  C   UNL     1       1.170   1.794   0.185  0.00  0.00    +0.012 A 
ATOM     20  C   UNL     1       1.160   3.164   0.008  0.00  0.00    +0.015 A 
ATOM     21  C   UNL     1      -0.044   3.834  -0.162  0.00  0.00    +0.125 A 
ATOM     22  C   UNL     1      -1.236   3.128  -0.154  0.00  0.00    +0.091 A 
ATOM     23  C   UNL     1      -1.223   1.752   0.018  0.00  0.00    +0.120 A 
BRANCH  23  24
ATOM     24  O   UNL     1      -2.390   1.056   0.020  0.00  0.00    -0.507 OA
ATOM     25  H   UNL     1      -3.346   1.583  -0.119  0.00  0.00    +0.292 HD
ENDBRANCH  23  24
BRANCH  21  26
ATOM     26  O   UNL     1      -0.053   5.182  -0.335  0.00  0.00    -0.506 OA
ATOM     27  H   UNL     1      -1.007   5.713  -0.470  0.00  0.00    +0.292 HD
ENDBRANCH  21  26
ENDBRANCH   1  20
TORSDOF 3
