REMARK  Name = ZINC35312982
REMARK  5 active torsions:
REMARK  status: ('A' for Active; 'I' for Inactive)
REMARK    1  A    between atoms: C_1  and  C_2
REMARK    2  A    between atoms: C_8  and  N_10
REMARK    3  A    between atoms: C_11  and  C_13
REMARK    4  A    between atoms: N_22  and  C_23
REMARK    5  A    between atoms: C_23  and  C_24
REMARK                            x       y       z     vdW  Elec       q    Type
REMARK                         _______ _______ _______ _____ _____    ______ ____
ROOT
ATOM      1  C   UNL     1       0.031   0.574   4.838  0.00  0.00    +0.092 C 
ATOM      2  C   UNL     1       1.025   0.636   6.001  0.00  0.00    +0.016 C 
ATOM      3  C   UNL     1       0.318   1.166   7.251  0.00  0.00    +0.020 C 
ATOM      4  C   UNL     1      -0.816   0.210   7.635  0.00  0.00    +0.109 C 
ATOM      5  N   UNL     1      -1.697   0.031   6.473  0.00  0.00    -0.285 N 
ATOM      6  C   UNL     1      -1.106  -0.389   5.195  0.00  0.00    +0.122 C 
ATOM      7  C   UNL     1      -3.024   0.247   6.577  0.00  0.00    +0.302 C 
ATOM      8  O   UNL     1      -3.729   0.188   5.589  0.00  0.00    -0.253 OA
ATOM      9  N   UNL     1      -3.568   0.528   7.778  0.00  0.00    -0.295 N 
ATOM     10  H   UNL     1      -2.998   0.646   8.553  0.00  0.00    +0.151 HD
ENDROOT
BRANCH   1  12
ATOM     11  N   UNL     1       0.054  -0.053   2.446  0.00  0.00    -0.312 N 
ATOM     12  C   UNL     1       0.736   0.083   3.600  0.00  0.00    +0.218 C 
ATOM     13  O   UNL     1       1.917  -0.189   3.642  0.00  0.00    -0.275 OA
ATOM     14  H   UNL     1      -0.891   0.164   2.412  0.00  0.00    +0.149 HD
BRANCH  11  21
ATOM     15  C   UNL     1      -0.024   1.501   0.003  0.00  0.00    +0.009 C 
ATOM     16  C   UNL     1      -0.002  -0.029   0.001  0.00  0.00    +0.006 C 
ATOM     17  C   UNL     1      -1.438  -0.559   0.015  0.00  0.00    +0.005 C 
ATOM     18  C   UNL     1      -1.416  -2.089   0.013  0.00  0.00    +0.000 C 
ATOM     19  C   UNL     1      -0.675  -2.591   1.254  0.00  0.00    +0.002 C 
ATOM     20  C   UNL     1       0.760  -2.060   1.240  0.00  0.00    +0.022 C 
ATOM     21  C   UNL     1       0.739  -0.530   1.242  0.00  0.00    +0.076 C 
ENDBRANCH  11  21
ENDBRANCH   1  12
BRANCH   9  22
ATOM     22  C   UNL     1      -5.021   0.655   7.912  0.00  0.00    +0.141 C 
BRANCH  22  23
ATOM     23  C   UNL     1      -5.369   0.969   9.344  0.00  0.00    -0.030 A 
ATOM     24  C   UNL     1      -5.603  -0.057  10.240  0.00  0.00    +0.005 A 
ATOM     25  C   UNL     1      -5.921   0.231  11.553  0.00  0.00    +0.000 A 
ATOM     26  C   UNL     1      -6.005   1.546  11.972  0.00  0.00    +0.000 A 
ATOM     27  C   UNL     1      -5.770   2.573  11.076  0.00  0.00    +0.000 A 
ATOM     28  C   UNL     1      -5.447   2.284   9.763  0.00  0.00    +0.005 A 
ENDBRANCH  22  23
ENDBRANCH   9  22
TORSDOF 4
