REMARK  Name = ZINC39597837
REMARK  8 active torsions:
REMARK  status: ('A' for Active; 'I' for Inactive)
REMARK    1  A    between atoms: C_1  and  C_2
REMARK    2  A    between atoms: C_4  and  C_7
REMARK    3  A    between atoms: C_9  and  C_14
REMARK    4  A    between atoms: C_10  and  C_13
REMARK    5  A    between atoms: C_18  and  C_27
REMARK    6  A    between atoms: N_29  and  C_30
REMARK    7  A    between atoms: C_30  and  C_31
REMARK    8  A    between atoms: C_31  and  C_32
REMARK                            x       y       z     vdW  Elec       q    Type
REMARK                         _______ _______ _______ _____ _____    ______ ____
ROOT
ATOM      1  C   UNL     1      -0.877  -4.073  -3.008  0.00  0.00    +0.247 C 
ATOM      2  O   UNL     1      -0.631  -4.465  -1.882  0.00  0.00    -0.270 OA
ATOM      3  N   UNL     1      -1.457  -2.871  -3.192  0.00  0.00    -0.296 N 
ATOM      4  C   UNL     1      -1.959  -1.937  -2.156  0.00  0.00    +0.121 C 
ATOM      5  C   UNL     1      -1.568  -0.534  -2.673  0.00  0.00    +0.100 C 
ATOM      6  C   UNL     1      -1.426  -0.703  -4.195  0.00  0.00    -0.004 C 
ATOM      7  C   UNL     1      -1.732  -2.181  -4.475  0.00  0.00    +0.115 C 
ATOM      8  C   UNL     1      -0.003  -0.373  -4.633  0.00  0.00    -0.010 C 
ATOM      9  C   UNL     1       0.099  -0.492  -6.157  0.00  0.00    -0.082 C 
ATOM     10  N   UNL     1      -0.854   0.431  -6.785  0.00  0.00    +0.379 N 
ATOM     11  C   UNL     1      -2.228   0.050  -6.433  0.00  0.00    -0.082 C 
ATOM     12  C   UNL     1      -2.427   0.192  -4.922  0.00  0.00    -0.010 C 
ATOM     13  H   UNL     1      -0.674   1.370  -6.463  0.00  0.00    -0.086 HD
ATOM     14  H   UNL     1      -0.744   0.395  -7.788  0.00  0.00    -0.086 HD
ENDROOT
BRANCH   1  16
ATOM     15  C   UNL     1      -0.927  -4.613  -5.565  0.00  0.00    +0.237 C 
ATOM     16  C   UNL     1      -0.552  -4.880  -4.124  0.00  0.00    +0.072 C 
ATOM     17  C   UNL     1       0.148  -6.030  -4.104  0.00  0.00    +0.047 C 
ATOM     18  N   UNL     1       0.276  -6.545  -5.356  0.00  0.00    -0.269 N 
ATOM     19  O   UNL     1      -0.369  -5.710  -6.303  0.00  0.00    -0.260 OA
ATOM     20  C   UNL     1       0.717  -6.661  -2.859  0.00  0.00    +0.066 C 
ATOM     21  H   UNL     1       0.743  -7.367  -5.571  0.00  0.00    +0.194 HD
BRANCH  15  25
ATOM     22  C   UNL     1      -5.617  -3.171  -6.936  0.00  0.00    +0.089 C 
ATOM     23  C   UNL     1      -4.471  -3.939  -6.330  0.00  0.00    +0.135 A 
ATOM     24  C   UNL     1      -3.166  -3.617  -6.421  0.00  0.00    +0.073 A 
ATOM     25  C   UNL     1      -2.426  -4.585  -5.720  0.00  0.00    +0.120 A 
ATOM     26  N   UNL     1      -3.262  -5.455  -5.228  0.00  0.00    -0.080 NA
ATOM     27  O   UNL     1      -4.571  -5.060  -5.599  0.00  0.00    -0.360 OA
ENDBRANCH  15  25
ENDBRANCH   1  16
BRANCH   5  28
ATOM     28  C   UNL     1      -0.259  -0.098  -2.067  0.00  0.00    +0.218 C 
ATOM     29  O   UNL     1       0.560  -0.927  -1.732  0.00  0.00    -0.275 OA
ATOM     30  N   UNL     1       0.000   1.214  -1.897  0.00  0.00    -0.315 N 
ATOM     31  H   UNL     1      -0.682   1.873  -2.097  0.00  0.00    +0.149 HD
BRANCH  30  32
ATOM     32  C   UNL     1       1.313   1.643  -1.410  0.00  0.00    +0.109 C 
BRANCH  32  33
ATOM     33  C   UNL     1       1.307   3.158  -1.196  0.00  0.00    +0.056 C 
BRANCH  33  34
ATOM     34  C   UNL     1       2.689   3.616  -0.805  0.00  0.00    -0.021 A 
ATOM     35  C   UNL     1       3.788   3.945  -1.715  0.00  0.00    +0.003 A 
ATOM     36  C   UNL     1       3.929   3.950  -3.104  0.00  0.00    +0.010 A 
ATOM     37  C   UNL     1       5.120   4.319  -3.664  0.00  0.00    +0.001 A 
ATOM     38  C   UNL     1       6.191   4.688  -2.862  0.00  0.00    +0.002 A 
ATOM     39  C   UNL     1       6.074   4.689  -1.489  0.00  0.00    +0.026 A 
ATOM     40  C   UNL     1       4.871   4.318  -0.898  0.00  0.00    +0.047 A 
ATOM     41  N   UNL     1       4.448   4.219   0.408  0.00  0.00    -0.360 N 
ATOM     42  C   UNL     1       3.144   3.805   0.444  0.00  0.00    +0.087 A 
ATOM     43  H   UNL     1       4.991   4.417   1.187  0.00  0.00    +0.165 HD
ENDBRANCH  33  34
ENDBRANCH  32  33
ENDBRANCH  30  32
ENDBRANCH   5  28
TORSDOF 6
