REMARK  Name = ZINC13018391
REMARK  9 active torsions:
REMARK  status: ('A' for Active; 'I' for Inactive)
REMARK    1  A    between atoms: C_1  and  C_2
REMARK    2  A    between atoms: C_2  and  C_3
REMARK    3  A    between atoms: C_3  and  C_32
REMARK    4  A    between atoms: N_6  and  N_10
REMARK    5  A    between atoms: C_11  and  C_13
REMARK    6  A    between atoms: C_13  and  N_14
REMARK    7  A    between atoms: N_14  and  C_15
REMARK    8  A    between atoms: C_15  and  C_17
REMARK    9  A    between atoms: C_15  and  C_23
REMARK                            x       y       z     vdW  Elec       q    Type
REMARK                         _______ _______ _______ _____ _____    ______ ____
ROOT
ATOM      1  N   UNL     1      -3.556  -5.407  -3.415  0.00  0.00    -0.295 NA
ATOM      2  H   UNL     1      -3.814  -5.317  -2.444  0.00  0.00    +0.123 HD
ENDROOT
BRANCH   1   3
ATOM      3  C   UNL     1      -2.115  -5.189  -3.598  0.00  0.00    +0.180 C 
BRANCH   3   5
ATOM      4  N   UNL     1      -0.454  -3.426  -3.095  0.00  0.00    -0.223 N 
ATOM      5  C   UNL     1      -1.734  -3.843  -3.038  0.00  0.00    +0.244 C 
ATOM      6  O   UNL     1      -2.581  -3.134  -2.535  0.00  0.00    -0.273 OA
ATOM      7  H   UNL     1       0.223  -3.993  -3.497  0.00  0.00    +0.174 HD
BRANCH   4  11
ATOM      8  C   UNL     1       0.718  -0.497  -1.257  0.00  0.00    +0.111 C 
ATOM      9  C   UNL     1       0.555  -1.997  -1.410  0.00  0.00    +0.263 C 
ATOM     10  O   UNL     1       0.935  -2.857  -0.645  0.00  0.00    -0.271 OA
ATOM     11  N   UNL     1      -0.101  -2.175  -2.574  0.00  0.00    -0.137 N 
ATOM     12  C   UNL     1      -0.371  -1.008  -3.171  0.00  0.00    +0.326 C 
ATOM     13  O   UNL     1      -0.955  -0.913  -4.233  0.00  0.00    -0.251 OA
ATOM     14  N   UNL     1       0.075   0.046  -2.466  0.00  0.00    -0.284 N 
ATOM     15  C   UNL     1       2.199  -0.115  -1.216  0.00  0.00    +0.041 C 
ATOM     16  H   UNL     1      -0.010   0.982  -2.706  0.00  0.00    +0.151 HD
BRANCH   8  18
ATOM     17  C   UNL     1      -0.019   1.526   0.010  0.00  0.00    +0.006 C 
ATOM     18  C   UNL     1       0.002  -0.004   0.002  0.00  0.00    +0.032 C 
ENDBRANCH   8  18
ENDBRANCH   4  11
ENDBRANCH   3   5
ENDBRANCH   1   3
BRANCH   1  19
ATOM     19  C   UNL     1      -3.964  -6.712  -3.950  0.00  0.00    +0.151 C 
BRANCH  19  20
ATOM     20  C   UNL     1      -5.213  -7.176  -3.247  0.00  0.00    +0.128 A 
ATOM     21  C   UNL     1      -5.453  -8.436  -2.860  0.00  0.00    +0.055 A 
ATOM     22  C   UNL     1      -6.775  -8.424  -2.223  0.00  0.00    +0.020 A 
ATOM     23  C   UNL     1      -7.579  -9.394  -1.627  0.00  0.00    +0.011 A 
ATOM     24  C   UNL     1      -8.797  -9.044  -1.113  0.00  0.00    +0.001 A 
ATOM     25  C   UNL     1      -9.237  -7.730  -1.183  0.00  0.00    +0.004 A 
ATOM     26  C   UNL     1      -8.456  -6.756  -1.769  0.00  0.00    +0.047 A 
ATOM     27  C   UNL     1      -7.215  -7.091  -2.296  0.00  0.00    +0.135 A 
ATOM     28  O   UNL     1      -6.246  -6.383  -2.911  0.00  0.00    -0.458 OA
ENDBRANCH  19  20
BRANCH  19  29
ATOM     29  C   UNL     1      -4.236  -6.587  -5.427  0.00  0.00    -0.023 A 
ATOM     30  C   UNL     1      -4.880  -5.467  -5.918  0.00  0.00    +0.005 A 
ATOM     31  C   UNL     1      -5.130  -5.351  -7.273  0.00  0.00    +0.000 A 
ATOM     32  C   UNL     1      -4.735  -6.356  -8.137  0.00  0.00    +0.000 A 
ATOM     33  C   UNL     1      -4.090  -7.476  -7.646  0.00  0.00    +0.000 A 
ATOM     34  C   UNL     1      -3.836  -7.589  -6.291  0.00  0.00    +0.005 A 
ENDBRANCH  19  29
ENDBRANCH   1  19
TORSDOF 7
