REMARK  Name = ZINC63259021
REMARK  12 active torsions:
REMARK  status: ('A' for Active; 'I' for Inactive)
REMARK    1  A    between atoms: C_1  and  C_2
REMARK    2  A    between atoms: C_2  and  O_3
REMARK    3  A    between atoms: O_3  and  C_4
REMARK    4  A    between atoms: C_7  and  N_10
REMARK    5  A    between atoms: C_11  and  C_29
REMARK    6  A    between atoms: C_14  and  S_15
REMARK    7  A    between atoms: S_15  and  C_16
REMARK    8  A    between atoms: C_16  and  C_17
REMARK    9  A    between atoms: N_19  and  C_20
REMARK   10  A    between atoms: N_19  and  C_26
REMARK   11  A    between atoms: C_26  and  C_27
REMARK   12  A    between atoms: C_26  and  C_28
REMARK                            x       y       z     vdW  Elec       q    Type
REMARK                         _______ _______ _______ _____ _____    ______ ____
ROOT
ATOM      1  N   UNL     1       1.708  -7.284  -1.030  0.00  0.00    -0.270 N 
ATOM      2  C   UNL     1       2.752  -8.076  -1.480  0.00  0.00    +0.168 A 
ATOM      3  N   UNL     1       2.213  -9.067  -2.175  0.00  0.00    -0.128 NA
ATOM      4  N   UNL     1       0.933  -8.945  -2.186  0.00  0.00    -0.122 NA
ATOM      5  C   UNL     1       0.571  -7.874  -1.495  0.00  0.00    +0.197 A 
ENDROOT
BRANCH   2   6
ATOM      6  C   UNL     1       4.120  -7.867  -1.245  0.00  0.00    +0.025 C 
ATOM      7  C   UNL     1       5.182  -8.652  -1.695  0.00  0.00    +0.006 A 
ATOM      8  C   UNL     1       5.236  -9.825  -2.477  0.00  0.00    +0.010 A 
ATOM      9  C   UNL     1       6.437 -10.386  -2.769  0.00  0.00    +0.001 A 
ATOM     10  C   UNL     1       7.634  -9.829  -2.312  0.00  0.00    +0.002 A 
ATOM     11  C   UNL     1       7.657  -8.704  -1.556  0.00  0.00    +0.026 A 
ATOM     12  C   UNL     1       6.440  -8.061  -1.212  0.00  0.00    +0.043 A 
ATOM     13  N   UNL     1       6.198  -6.976  -0.503  0.00  0.00    -0.380 N 
ATOM     14  C   UNL     1       4.751  -6.742  -0.456  0.00  0.00    +0.152 C 
ATOM     15  H   UNL     1       6.870  -6.418  -0.082  0.00  0.00    +0.160 HD
ENDBRANCH   2   6
BRANCH   1  19
ATOM     16  C   UNL     1       1.987  -3.824   1.282  0.00  0.00    +0.121 A 
ATOM     17  C   UNL     1       1.375  -4.956   1.799  0.00  0.00    +0.047 A 
ATOM     18  C   UNL     1       1.282  -6.102   1.034  0.00  0.00    +0.030 A 
ATOM     19  C   UNL     1       1.801  -6.120  -0.253  0.00  0.00    +0.051 A 
ATOM     20  C   UNL     1       2.413  -4.987  -0.771  0.00  0.00    +0.030 A 
ATOM     21  C   UNL     1       2.501  -3.840  -0.007  0.00  0.00    +0.047 A 
BRANCH  16  22
ATOM     22  O   UNL     1       2.078  -2.696   2.035  0.00  0.00    -0.492 OA
BRANCH  22  24
ATOM     23  C   UNL     1       1.722  -1.398   4.043  0.00  0.00    +0.048 C 
ATOM     24  C   UNL     1       1.527  -2.749   3.353  0.00  0.00    +0.225 C 
ENDBRANCH  22  24
ENDBRANCH  16  22
ENDBRANCH   1  19
BRANCH   5  25
ATOM     25  S   UNL     1      -1.078  -7.313  -1.230  0.00  0.00    -0.076 S 
BRANCH  25  26
ATOM     26  C   UNL     1      -2.102  -8.530  -2.103  0.00  0.00    +0.173 C 
BRANCH  26  27
ATOM     27  C   UNL     1      -3.555  -8.164  -1.955  0.00  0.00    +0.230 C 
ATOM     28  O   UNL     1      -3.871  -7.178  -1.322  0.00  0.00    -0.274 OA
ATOM     29  N   UNL     1      -4.506  -8.931  -2.525  0.00  0.00    -0.268 N 
BRANCH  29  30
ATOM     30  C   UNL     1      -5.858  -8.649  -2.303  0.00  0.00    +0.037 A 
ATOM     31  C   UNL     1      -6.532  -7.768  -3.140  0.00  0.00    +0.023 A 
ATOM     32  C   UNL     1      -7.867  -7.492  -2.919  0.00  0.00    +0.002 A 
ATOM     33  C   UNL     1      -8.533  -8.091  -1.866  0.00  0.00    +0.000 A 
ATOM     34  C   UNL     1      -7.865  -8.968  -1.031  0.00  0.00    +0.002 A 
ATOM     35  C   UNL     1      -6.532  -9.254  -1.250  0.00  0.00    +0.023 A 
ENDBRANCH  29  30
BRANCH  29  36
ATOM     36  C   UNL     1      -4.123 -10.060  -3.376  0.00  0.00    +0.075 C 
ATOM     37  C   UNL     1      -4.760 -11.343  -2.839  0.00  0.00    +0.028 C 
ATOM     38  C   UNL     1      -4.608  -9.809  -4.805  0.00  0.00    +0.028 C 
ENDBRANCH  29  36
ENDBRANCH  26  27
ENDBRANCH  25  26
ENDBRANCH   5  25
TORSDOF 9
