REMARK  Name = ZINC36505979
REMARK  17 active torsions:
REMARK  status: ('A' for Active; 'I' for Inactive)
REMARK    1  A    between atoms: C_1  and  C_2
REMARK    2  A    between atoms: C_2  and  C_3
REMARK    3  A    between atoms: C_2  and  C_4
REMARK    4  A    between atoms: C_2  and  C_5
REMARK    5  A    between atoms: C_5  and  C_6
REMARK    6  A    between atoms: C_6  and  C_7
REMARK    7  A    between atoms: C_6  and  C_8
REMARK    8  A    between atoms: C_6  and  N_9
REMARK    9  A    between atoms: C_10  and  C_12
REMARK   10  A    between atoms: C_12  and  C_14
REMARK   11  A    between atoms: C_12  and  N_23
REMARK   12  A    between atoms: C_15  and  O_22
REMARK   13  A    between atoms: C_17  and  O_21
REMARK   14  A    between atoms: C_19  and  O_20
REMARK   15  A    between atoms: N_23  and  C_24
REMARK   16  A    between atoms: C_24  and  C_25
REMARK   17  A    between atoms: C_30  and  C_32
REMARK                            x       y       z     vdW  Elec       q    Type
REMARK                         _______ _______ _______ _____ _____    ______ ____
ROOT
ATOM      1  C   UNL     1       5.079  -0.754  -4.502  0.00  0.00    +0.200 C 
ENDROOT
BRANCH   1   2
ATOM      2  C   UNL     1       4.870   0.138  -5.699  0.00  0.00    +0.065 A 
ATOM      3  C   UNL     1       5.488  -0.162  -6.903  0.00  0.00    +0.129 A 
ATOM      4  C   UNL     1       5.296   0.659  -8.004  0.00  0.00    +0.091 A 
ATOM      5  C   UNL     1       4.486   1.780  -7.901  0.00  0.00    +0.124 A 
ATOM      6  C   UNL     1       3.868   2.080  -6.697  0.00  0.00    +0.091 A 
ATOM      7  C   UNL     1       4.056   1.256  -5.597  0.00  0.00    +0.129 A 
BRANCH   7   8
ATOM      8  O   UNL     1       3.446   1.547  -4.418  0.00  0.00    -0.506 OA
ATOM      9  H   UNL     1       3.967   2.117  -3.836  0.00  0.00    +0.292 HD
ENDBRANCH   7   8
BRANCH   5  10
ATOM     10  O   UNL     1       4.299   2.585  -8.980  0.00  0.00    -0.507 OA
ATOM     11  H   UNL     1       3.545   2.334  -9.531  0.00  0.00    +0.292 HD
ENDBRANCH   5  10
BRANCH   3  12
ATOM     12  O   UNL     1       6.282  -1.260  -7.005  0.00  0.00    -0.506 OA
ATOM     13  H   UNL     1       5.801  -2.076  -7.198  0.00  0.00    +0.292 HD
ENDBRANCH   3  12
ENDBRANCH   1   2
BRANCH   1  15
ATOM     14  N   UNL     1       2.779  -1.284  -3.763  0.00  0.00    -0.308 N 
ATOM     15  C   UNL     1       3.920  -0.599  -3.552  0.00  0.00    +0.239 C 
ATOM     16  O   UNL     1       4.013   0.143  -2.597  0.00  0.00    -0.273 OA
ATOM     17  H   UNL     1       2.687  -1.842  -4.552  0.00  0.00    +0.149 HD
BRANCH  14  18
ATOM     18  C   UNL     1       1.677  -1.187  -2.803  0.00  0.00    +0.030 C 
ATOM     19  C   UNL     1       1.251   0.276  -2.661  0.00  0.00    +0.031 C 
ATOM     20  C   UNL     1       2.137  -1.718  -1.444  0.00  0.00    +0.031 C 
BRANCH  18  21
ATOM     21  C   UNL     1       0.492  -2.017  -3.300  0.00  0.00    +0.031 C 
BRANCH  21  23
ATOM     22  C   UNL     1       1.298  -2.642  -5.580  0.00  0.00    +0.010 C 
ATOM     23  C   UNL     1       0.300  -1.785  -4.800  0.00  0.00    -0.036 C 
ATOM     24  C   UNL     1       0.535  -0.308  -5.121  0.00  0.00    +0.010 C 
ATOM     25  C   UNL     1      -1.126  -2.172  -5.197  0.00  0.00    +0.010 C 
ENDBRANCH  21  23
ENDBRANCH  18  21
ENDBRANCH  14  18
ENDBRANCH   1  15
BRANCH   1  26
ATOM     26  N   UNL     1       6.321  -0.377  -3.823  0.00  0.00    -0.274 N 
ATOM     27  C   UNL     1       6.954  -1.268  -3.034  0.00  0.00    +0.249 C 
ATOM     28  O   UNL     1       8.015  -0.976  -2.517  0.00  0.00    -0.270 OA
BRANCH  27  29
ATOM     29  C   UNL     1       6.358  -2.599  -2.796  0.00  0.00    +0.055 A 
ATOM     30  C   UNL     1       5.072  -2.884  -3.257  0.00  0.00    +0.014 A 
ATOM     31  C   UNL     1       4.521  -4.128  -3.032  0.00  0.00    +0.001 A 
ATOM     32  C   UNL     1       5.241  -5.094  -2.351  0.00  0.00    +0.001 A 
ATOM     33  C   UNL     1       6.516  -4.820  -1.890  0.00  0.00    +0.021 A 
ATOM     34  C   UNL     1       7.082  -3.580  -2.114  0.00  0.00    +0.053 A 
ATOM     35 CL   UNL     1       8.685  -3.239  -1.542  0.00  0.00    -0.083 Cl
ENDBRANCH  27  29
BRANCH  26  36
ATOM     36  C   UNL     1       6.875   0.967  -4.001  0.00  0.00    +0.183 C 
BRANCH  36  37
ATOM     37  C   UNL     1       6.412   1.855  -2.875  0.00  0.00    +0.122 A 
ATOM     38  C   UNL     1       6.998   1.967  -1.670  0.00  0.00    +0.046 A 
ATOM     39  C   UNL     1       6.239   2.903  -0.930  0.00  0.00    +0.041 A 
ATOM     40  C   UNL     1       5.234   3.306  -1.728  0.00  0.00    +0.195 A 
ATOM     41  O   UNL     1       5.347   2.673  -2.907  0.00  0.00    -0.466 OA
ENDBRANCH  36  37
ENDBRANCH  26  36
ENDBRANCH   1  26
TORSDOF 12
