REMARK  Name = ZINC14467171
REMARK  4 active torsions:
REMARK  status: ('A' for Active; 'I' for Inactive)
REMARK    1  A    between atoms: C_1  and  C_2
REMARK    2  A    between atoms: C_5  and  O_27
REMARK    3  A    between atoms: C_15  and  C_18
REMARK    4  A    between atoms: C_23  and  O_24
REMARK                            x       y       z     vdW  Elec       q    Type
REMARK                         _______ _______ _______ _____ _____    ______ ____
ROOT
ATOM      1  C   UNL     1      -2.324   3.452  -3.788  0.00  0.00    +0.044 C 
ATOM      2  C   UNL     1      -2.368   3.805  -2.324  0.00  0.00    -0.045 A 
ATOM      3  C   UNL     1      -3.570   4.162  -1.742  0.00  0.00    +0.007 A 
ATOM      4  C   UNL     1      -3.610   4.486  -0.398  0.00  0.00    +0.047 A 
ATOM      5  C   UNL     1      -2.454   4.460   0.357  0.00  0.00    +0.138 A 
ATOM      6  C   UNL     1      -1.229   4.105  -0.222  0.00  0.00    +0.074 A 
ATOM      7  C   UNL     1      -1.209   3.768  -1.576  0.00  0.00    -0.013 A 
ATOM      8  C   UNL     1       0.086   3.366  -2.168  0.00  0.00    +0.049 C 
ATOM      9  C   UNL     1       0.413   3.583  -3.598  0.00  0.00    -0.023 C 
ATOM     10  C   UNL     1       1.720   3.795  -3.705  0.00  0.00    -0.030 C 
ATOM     11  C   UNL     1       2.367   3.771  -2.318  0.00  0.00    +0.033 C 
ATOM     12  C   UNL     1       1.190   4.180  -1.425  0.00  0.00    +0.029 C 
ATOM     13  C   UNL     1       1.161   3.656  -0.004  0.00  0.00    +0.109 C 
ATOM     14  N   UNL     1      -0.100   4.115   0.599  0.00  0.00    -0.334 N 
ATOM     15  H   UNL     1       0.017   5.014   1.042  0.00  0.00    +0.147 HD
ENDROOT
BRANCH  13  16
ATOM     16  C   UNL     1       1.208   2.150  -0.012  0.00  0.00    +0.017 A 
ATOM     17  C   UNL     1       0.034   1.421   0.001  0.00  0.00    +0.029 A 
ATOM     18  C   UNL     1       0.076   0.038  -0.006  0.00  0.00    +0.043 A 
ATOM     19  C   UNL     1       1.294  -0.618  -0.026  0.00  0.00    +0.043 A 
ATOM     20  C   UNL     1       2.471   0.107  -0.039  0.00  0.00    +0.084 A 
ATOM     21  C   UNL     1       2.430   1.494  -0.032  0.00  0.00    +0.140 A 
ATOM     22 CL   UNL     1       3.999  -0.717  -0.063  0.00  0.00    -0.080 Cl
ATOM     23 CL   UNL     1      -1.400  -0.874   0.010  0.00  0.00    -0.083 Cl
BRANCH  21  24
ATOM     24  O   UNL     1       3.586   2.210  -0.044  0.00  0.00    -0.505 OA
ATOM     25  H   UNL     1       3.909   2.421  -0.931  0.00  0.00    +0.292 HD
ENDBRANCH  21  24
ENDBRANCH  13  16
BRANCH   5  26
ATOM     26  O   UNL     1      -2.506   4.782   1.677  0.00  0.00    -0.505 OA
ATOM     27  H   UNL     1      -2.370   5.722   1.858  0.00  0.00    +0.292 HD
ENDBRANCH   5  26
TORSDOF 3
