REMARK  Name = ZINC49487950
REMARK  5 active torsions:
REMARK  status: ('A' for Active; 'I' for Inactive)
REMARK    1  A    between atoms: C_4  and  S_8
REMARK    2  A    between atoms: C_6  and  N_7
REMARK    3  A    between atoms: S_8  and  C_9
REMARK    4  A    between atoms: C_9  and  C_10
REMARK    5  A    between atoms: C_13  and  C_15
REMARK                            x       y       z     vdW  Elec       q    Type
REMARK                         _______ _______ _______ _____ _____    ______ ____
ROOT
ATOM      1  C   UNL     1      -0.017   1.388   0.010  0.00  0.00    +0.086 A 
ATOM      2  C   UNL     1       1.198   2.067   0.002  0.00  0.00    +0.122 A 
ATOM      3  N   UNL     1       2.331   1.368  -0.013  0.00  0.00    -0.207 NA
ATOM      4  C   UNL     1       2.311   0.043  -0.020  0.00  0.00    +0.192 A 
ATOM      5  N   UNL     1       1.173  -0.636  -0.013  0.00  0.00    -0.207 NA
ATOM      6  C   UNL     1       0.002  -0.004   0.002  0.00  0.00    +0.122 A 
ATOM      7  N   UNL     1       1.228   3.453   0.008  0.00  0.00    -0.343 N 
ATOM      8  H   UNL     1       0.398   3.956   0.019  0.00  0.00    +0.144 HD
ATOM      9  H   UNL     1       2.078   3.920   0.003  0.00  0.00    +0.144 HD
ENDROOT
BRANCH   6  10
ATOM     10  N   UNL     1      -1.183  -0.723   0.010  0.00  0.00    -0.343 N 
ATOM     11  H   UNL     1      -2.034  -0.255   0.021  0.00  0.00    +0.144 HD
ATOM     12  H   UNL     1      -1.163  -1.692   0.004  0.00  0.00    +0.144 HD
ENDBRANCH   6  10
BRANCH   4  13
ATOM     13  S   UNL     1       3.837  -0.838  -0.040  0.00  0.00    -0.080 S 
BRANCH  13  14
ATOM     14  C   UNL     1       3.337  -2.581  -0.044  0.00  0.00    +0.133 C 
BRANCH  14  15
ATOM     15  C   UNL     1       4.564  -3.456  -0.061  0.00  0.00    +0.059 A 
ATOM     16  C   UNL     1       5.134  -3.857  -1.226  0.00  0.00    +0.071 A 
ATOM     17  S   UNL     1       6.497  -4.830  -0.608  0.00  0.00    -0.080 S 
ATOM     18  C   UNL     1       6.200  -4.626   1.036  0.00  0.00    +0.082 A 
ATOM     19  N   UNL     1       5.136  -3.862   1.055  0.00  0.00    -0.248 NA
BRANCH  18  20
ATOM     20  C   UNL     1       6.974  -5.181   2.204  0.00  0.00    +0.045 C 
ATOM     21  C   UNL     1       8.448  -4.736   2.121  0.00  0.00    +0.010 C 
ATOM     22  C   UNL     1       9.245  -5.963   2.628  0.00  0.00    +0.001 C 
ATOM     23  C   UNL     1       8.451  -7.154   2.037  0.00  0.00    +0.001 C 
ATOM     24  C   UNL     1       6.976  -6.719   2.151  0.00  0.00    +0.010 C 
ENDBRANCH  18  20
ENDBRANCH  14  15
ENDBRANCH  13  14
ENDBRANCH   4  13
TORSDOF 5
