REMARK  Name = ZINC20430466
REMARK  6 active torsions:
REMARK  status: ('A' for Active; 'I' for Inactive)
REMARK    1  A    between atoms: C_1  and  C_2
REMARK    2  A    between atoms: C_2  and  C_4
REMARK    3  A    between atoms: C_2  and  N_12
REMARK    4  A    between atoms: C_6  and  O_11
REMARK    5  A    between atoms: C_9  and  O_10
REMARK    6  A    between atoms: N_12  and  C_13
REMARK                            x       y       z     vdW  Elec       q    Type
REMARK                         _______ _______ _______ _____ _____    ______ ____
ROOT
ATOM      1  C   UNL     1       1.414   1.940   1.504  0.00  0.00    +0.033 C 
ATOM      2  C   UNL     1       1.248   1.716  -0.001  0.00  0.00    +0.101 C 
ENDROOT
BRANCH   2   3
ATOM      3  C   UNL     1       2.358   0.828  -0.502  0.00  0.00    +0.017 A 
ATOM      4  C   UNL     1       2.171  -0.539  -0.571  0.00  0.00    +0.054 A 
ATOM      5  C   UNL     1       3.191  -1.355  -1.037  0.00  0.00    +0.117 A 
ATOM      6  C   UNL     1       4.402  -0.800  -1.423  0.00  0.00    +0.049 A 
ATOM      7  C   UNL     1       4.590   0.566  -1.349  0.00  0.00    +0.049 A 
ATOM      8  C   UNL     1       3.568   1.383  -0.889  0.00  0.00    +0.122 A 
BRANCH   8   9
ATOM      9  O   UNL     1       3.753   2.728  -0.816  0.00  0.00    -0.506 OA
ATOM     10  H   UNL     1       4.714   3.169  -1.122  0.00  0.00    +0.292 HD
ENDBRANCH   8   9
BRANCH   5  11
ATOM     11  O   UNL     1       3.006  -2.700  -1.110  0.00  0.00    -0.507 OA
ATOM     12  H   UNL     1       3.815  -3.348  -1.479  0.00  0.00    +0.292 HD
ENDBRANCH   5  11
ENDBRANCH   2   3
BRANCH   2  13
ATOM     13  N   UNL     1      -0.044   1.075  -0.259  0.00  0.00    -0.336 N 
ATOM     14  H   UNL     1      -0.108  -0.020  -0.345  0.00  0.00    +0.147 HD
BRANCH  13  15
ATOM     15  C   UNL     1      -1.197   1.855  -0.398  0.00  0.00    +0.042 A 
ATOM     16  C   UNL     1      -1.120   3.237  -0.279  0.00  0.00    +0.027 A 
ATOM     17  C   UNL     1      -2.258   4.006  -0.421  0.00  0.00    +0.040 A 
ATOM     18  C   UNL     1      -3.478   3.400  -0.671  0.00  0.00    +0.125 A 
ATOM     19  C   UNL     1      -3.559   2.023  -0.785  0.00  0.00    +0.055 A 
ATOM     20  C   UNL     1      -2.421   1.249  -0.648  0.00  0.00    +0.041 A 
ATOM     21 BR   UNL     1      -2.532  -0.632  -0.804  0.00  0.00    -0.048 Br
ATOM     22  F   UNL     1      -4.591   4.154  -0.805  0.00  0.00    -0.205 F 
ENDBRANCH  13  15
ENDBRANCH   2  13
TORSDOF 5
