REMARK  Name = ZINC08263681
REMARK  12 active torsions:
REMARK  status: ('A' for Active; 'I' for Inactive)
REMARK    1  A    between atoms: C_1  and  C_2
REMARK    2  A    between atoms: C_5  and  S_8
REMARK    3  A    between atoms: S_8  and  N_11
REMARK    4  A    between atoms: C_20  and  C_37
REMARK    5  A    between atoms: C_21  and  C_23
REMARK    6  A    between atoms: C_23  and  C_24
REMARK    7  A    between atoms: C_24  and  O_26
REMARK    8  A    between atoms: O_26  and  C_27
REMARK    9  A    between atoms: C_30  and  O_36
REMARK   10  A    between atoms: C_32  and  C_33
REMARK   11  A    between atoms: C_32  and  C_34
REMARK   12  A    between atoms: C_34  and  O_35
REMARK                            x       y       z     vdW  Elec       q    Type
REMARK                         _______ _______ _______ _____ _____    ______ ____
ROOT
ATOM      1  N   UNL     1      -2.955  -5.199  -1.742  0.00  0.00    -0.194 N 
ATOM      2  C   UNL     1      -2.365  -3.995  -1.391  0.00  0.00    +0.178 A 
ATOM      3  N   UNL     1      -1.121  -3.599  -1.568  0.00  0.00    -0.228 NA
ATOM      4  C   UNL     1      -0.696  -2.400  -1.173  0.00  0.00    +0.058 A 
ATOM      5  C   UNL     1      -1.621  -1.607  -0.576  0.00  0.00    +0.015 A 
ATOM      6  S   UNL     1      -3.077  -2.618  -0.604  0.00  0.00    -0.056 S 
ATOM      7  C   UNL     1      -1.433  -0.233  -0.026  0.00  0.00    +0.049 C 
ATOM      8  C   UNL     1       0.077   0.061   0.070  0.00  0.00    +0.011 C 
ATOM      9  C   UNL     1       0.765  -0.376  -1.226  0.00  0.00    -0.019 C 
ATOM     10  C   UNL     1       0.731  -1.904  -1.355  0.00  0.00    +0.055 C 
ATOM     11  C   UNL     1       2.236   0.051  -1.212  0.00  0.00    +0.010 C 
ATOM     12  C   UNL     1       2.350   1.564  -1.035  0.00  0.00    +0.032 C 
ATOM     13  C   UNL     1       1.711   1.955   0.287  0.00  0.00    +0.123 C 
ATOM     14  C   UNL     1       0.233   1.571   0.269  0.00  0.00    +0.021 C 
ATOM     15  C   UNL     1      -0.410   1.976   1.597  0.00  0.00    +0.016 C 
ATOM     16  C   UNL     1       0.057   0.264  -2.422  0.00  0.00    +0.012 C 
ATOM     17  H   UNL     1      -2.430  -5.886  -2.182  0.00  0.00    +0.176 HD
ENDROOT
BRANCH   1  18
ATOM     18  S   UNL     1      -4.556  -5.465  -1.411  0.00  0.00    +0.074 S 
ATOM     19  O   UNL     1      -4.864  -6.760  -1.910  0.00  0.00    -0.150 OA
ATOM     20  O   UNL     1      -4.754  -5.105  -0.051  0.00  0.00    -0.150 OA
BRANCH  18  25
ATOM     21  C   UNL     1      -7.736  -1.544  -4.715  0.00  0.00    +0.044 C 
ATOM     22  C   UNL     1      -6.942  -2.523  -3.890  0.00  0.00    -0.050 A 
ATOM     23  C   UNL     1      -6.630  -3.768  -4.404  0.00  0.00    +0.005 A 
ATOM     24  C   UNL     1      -5.901  -4.666  -3.648  0.00  0.00    +0.029 A 
ATOM     25  C   UNL     1      -5.484  -4.320  -2.376  0.00  0.00    +0.109 A 
ATOM     26  C   UNL     1      -5.801  -3.077  -1.859  0.00  0.00    +0.029 A 
ATOM     27  C   UNL     1      -6.525  -2.177  -2.618  0.00  0.00    +0.005 A 
ENDBRANCH  18  25
ENDBRANCH   1  18
BRANCH  13  28
ATOM     28  O   UNL     1       1.839   3.364   0.486  0.00  0.00    -0.391 OA
ATOM     29  H   UNL     1       2.753   3.678   0.508  0.00  0.00    +0.210 HD
ENDBRANCH  13  28
BRANCH  10  30
ATOM     30  C   UNL     1       1.239  -2.311  -2.740  0.00  0.00    +0.130 C 
BRANCH  30  31
ATOM     31  C   UNL     1       1.392  -3.809  -2.799  0.00  0.00    +0.307 C 
ATOM     32  O   UNL     1       1.123  -4.482  -1.832  0.00  0.00    -0.251 OA
BRANCH  31  33
ATOM     33  O   UNL     1       1.828  -4.395  -3.925  0.00  0.00    -0.468 OA
ATOM     34  C   UNL     1       1.952  -5.841  -3.910  0.00  0.00    +0.280 C 
ENDBRANCH  31  33
ENDBRANCH  30  31
ENDBRANCH  10  30
BRANCH  14  35
ATOM     35  C   UNL     1      -0.468   2.308  -0.874  0.00  0.00    +0.165 C 
BRANCH  35  36
ATOM     36  O   UNL     1      -0.465   3.712  -0.609  0.00  0.00    -0.394 OA
ATOM     37  H   UNL     1      -0.894   4.243  -1.294  0.00  0.00    +0.209 HD
ENDBRANCH  35  36
ENDBRANCH  14  35
TORSDOF 8
