REMARK  Name = ZINC19721544
REMARK  6 active torsions:
REMARK  status: ('A' for Active; 'I' for Inactive)
REMARK    1  A    between atoms: C_4  and  C_7
REMARK    2  A    between atoms: C_8  and  C_16
REMARK    3  A    between atoms: C_9  and  N_15
REMARK    4  A    between atoms: N_10  and  C_12
REMARK    5  A    between atoms: C_12  and  C_13
REMARK    6  A    between atoms: C_13  and  O_14
REMARK                            x       y       z     vdW  Elec       q    Type
REMARK                         _______ _______ _______ _____ _____    ______ ____
ROOT
ATOM      1  C   UNL     1      -1.954   1.477   3.018  0.00  0.00    +0.105 A 
ATOM      2  C   UNL     1      -1.105   2.670   3.057  0.00  0.00    +0.084 A 
ATOM      3  C   UNL     1      -0.481   2.746   1.819  0.00  0.00    +0.126 A 
ATOM      4  N   UNL     1      -0.912   1.702   1.080  0.00  0.00    -0.248 N 
ATOM      5  N   UNL     1      -1.808   0.936   1.830  0.00  0.00    -0.169 NA
ENDROOT
BRANCH   2   6
ATOM      6  C   UNL     1      -0.941   3.601   4.186  0.00  0.00    +0.145 A 
ATOM      7  N   UNL     1      -0.024   4.617   4.244  0.00  0.00    -0.338 N 
ATOM      8  H   UNL     1       0.664   4.786   3.402  0.00  0.00    +0.167 HD
ATOM      9  C   UNL     1      -0.194   5.252   5.462  0.00  0.00    +0.066 A 
ATOM     10  C   UNL     1       0.428   6.328   6.079  0.00  0.00    +0.028 A 
ATOM     11  C   UNL     1       0.017   6.732   7.333  0.00  0.00    +0.002 A 
ATOM     12  C   UNL     1      -1.013   6.068   7.983  0.00  0.00    +0.002 A 
ATOM     13  C   UNL     1      -1.641   4.998   7.386  0.00  0.00    +0.030 A 
ATOM     14  C   UNL     1      -1.238   4.576   6.116  0.00  0.00    +0.089 A 
ATOM     15  N   UNL     1      -1.655   3.585   5.289  0.00  0.00    -0.228 NA
ENDBRANCH   2   6
BRANCH   1  19
ATOM     16  C   UNL     1      -4.425   0.033   6.162  0.00  0.00    +0.000 A 
ATOM     17  C   UNL     1      -4.834  -0.102   4.847  0.00  0.00    +0.001 A 
ATOM     18  C   UNL     1      -4.036   0.365   3.822  0.00  0.00    +0.010 A 
ATOM     19  C   UNL     1      -2.816   0.974   4.114  0.00  0.00    +0.003 A 
ATOM     20  C   UNL     1      -2.407   1.102   5.441  0.00  0.00    +0.010 A 
ATOM     21  C   UNL     1      -3.215   0.635   6.457  0.00  0.00    +0.001 A 
ENDBRANCH   1  19
BRANCH   3  22
ATOM     22  N   UNL     1       0.418   3.718   1.415  0.00  0.00    -0.343 N 
ATOM     23  H   UNL     1       0.853   3.679   0.405  0.00  0.00    +0.144 HD
ATOM     24  H   UNL     1       0.697   4.529   2.103  0.00  0.00    +0.144 HD
ENDBRANCH   3  22
BRANCH   4  25
ATOM     25  C   UNL     1      -0.498   1.413  -0.295  0.00  0.00    +0.173 C 
BRANCH  25  26
ATOM     26  C   UNL     1      -1.449   2.109  -1.271  0.00  0.00    +0.179 C 
BRANCH  26  27
ATOM     27  O   UNL     1      -1.046   1.827  -2.612  0.00  0.00    -0.393 OA
ATOM     28  H   UNL     1      -1.614   2.245  -3.457  0.00  0.00    +0.209 HD
ENDBRANCH  26  27
ENDBRANCH  25  26
ENDBRANCH   4  25
TORSDOF 6
