REMARK  Name = ZINC11615768
REMARK  9 active torsions:
REMARK  status: ('A' for Active; 'I' for Inactive)
REMARK    1  A    between atoms: C_1  and  C_2
REMARK    2  A    between atoms: C_4  and  C_27
REMARK    3  A    between atoms: C_5  and  S_9
REMARK    4  A    between atoms: C_6  and  C_8
REMARK    5  A    between atoms: S_9  and  N_12
REMARK    6  A    between atoms: N_12  and  C_13
REMARK    7  A    between atoms: C_19  and  C_23
REMARK    8  A    between atoms: C_20  and  C_22
REMARK    9  A    between atoms: N_25  and  N_26
REMARK                            x       y       z     vdW  Elec       q    Type
REMARK                         _______ _______ _______ _____ _____    ______ ____
ROOT
ATOM      1  C   UNL     1       0.945   2.204  -0.088  0.00  0.00    +0.049 A 
ATOM      2  C   UNL     1       1.110   3.584  -0.182  0.00  0.00    +0.028 A 
ATOM      3  C   UNL     1       0.016   4.418  -0.258  0.00  0.00    +0.049 A 
ATOM      4  C   UNL     1      -1.268   3.885  -0.241  0.00  0.00    +0.136 A 
ATOM      5  C   UNL     1      -1.435   2.496  -0.151  0.00  0.00    +0.034 A 
ATOM      6  C   UNL     1      -0.328   1.659  -0.069  0.00  0.00    +0.037 A 
ATOM      7  C   UNL     1      -2.895   2.274  -0.166  0.00  0.00    +0.086 A 
ATOM      8  C   UNL     1      -3.455   3.510  -0.266  0.00  0.00    +0.115 A 
ATOM      9  O   UNL     1      -2.496   4.442  -0.301  0.00  0.00    -0.459 OA
ATOM     10  C   UNL     1      -4.935   3.788  -0.316  0.00  0.00    +0.087 C 
ENDROOT
BRANCH   7  11
ATOM     11  C   UNL     1      -3.597   0.984  -0.088  0.00  0.00    +0.261 C 
ATOM     12  O   UNL     1      -3.910   0.526   0.994  0.00  0.00    -0.269 OA
ATOM     13  N   UNL     1      -3.895   0.310  -1.217  0.00  0.00    -0.249 N 
ATOM     14  H   UNL     1      -3.646   0.675  -2.080  0.00  0.00    +0.169 HD
BRANCH  13  15
ATOM     15  N   UNL     1      -4.548  -0.888  -1.145  0.00  0.00    -0.254 NA
ATOM     16  H   UNL     1      -5.418  -0.796  -0.642  0.00  0.00    +0.140 HD
ATOM     17  H   UNL     1      -4.701  -1.272  -2.065  0.00  0.00    +0.140 HD
ENDBRANCH  13  15
ENDBRANCH   7  11
BRANCH   1  18
ATOM     18  N   UNL     1       2.065   1.370  -0.011  0.00  0.00    -0.216 N 
ATOM     19  H   UNL     1       2.095   0.659   0.648  0.00  0.00    +0.174 HD
BRANCH  18  20
ATOM     20  S   UNL     1       3.337   1.595  -1.047  0.00  0.00    +0.073 S 
ATOM     21  O   UNL     1       4.295   0.592  -0.737  0.00  0.00    -0.150 OA
ATOM     22  O   UNL     1       2.782   1.742  -2.346  0.00  0.00    -0.150 OA
BRANCH  20  27
ATOM     23  C   UNL     1       5.866   6.889   0.360  0.00  0.00    +0.044 C 
ATOM     24  C   UNL     1       5.234   5.567   0.009  0.00  0.00    -0.050 A 
ATOM     25  C   UNL     1       4.563   5.419  -1.190  0.00  0.00    +0.008 A 
ATOM     26  C   UNL     1       3.984   4.206  -1.513  0.00  0.00    -0.023 A 
ATOM     27  C   UNL     1       4.076   3.141  -0.636  0.00  0.00    +0.114 A 
ATOM     28  C   UNL     1       4.742   3.291   0.566  0.00  0.00    -0.023 A 
ATOM     29  C   UNL     1       5.326   4.503   0.886  0.00  0.00    +0.008 A 
ATOM     30  C   UNL     1       4.837   2.132   1.525  0.00  0.00    +0.046 C 
ATOM     31  C   UNL     1       3.252   4.044  -2.820  0.00  0.00    +0.046 C 
ENDBRANCH  20  27
ENDBRANCH  18  20
ENDBRANCH   1  18
TORSDOF 5
