REMARK  Name = ZINC33264022
REMARK  12 active torsions:
REMARK  status: ('A' for Active; 'I' for Inactive)
REMARK    1  A    between atoms: C_1  and  C_2
REMARK    2  A    between atoms: C_2  and  C_3
REMARK    3  A    between atoms: C_3  and  C_5
REMARK    4  A    between atoms: C_3  and  N_6
REMARK    5  A    between atoms: C_7  and  C_9
REMARK    6  A    between atoms: C_12  and  N_28
REMARK    7  A    between atoms: C_13  and  N_15
REMARK    8  A    between atoms: N_15  and  S_16
REMARK    9  A    between atoms: S_16  and  C_19
REMARK   10  A    between atoms: C_22  and  C_25
REMARK   11  A    between atoms: C_25  and  C_26
REMARK   12  A    between atoms: C_25  and  C_27
REMARK                            x       y       z     vdW  Elec       q    Type
REMARK                         _______ _______ _______ _____ _____    ______ ____
ROOT
ATOM      1  C   UNL     1       2.102   1.492   0.260  0.00  0.00    +0.039 A 
ATOM      2  C   UNL     1       0.852   2.079   0.042  0.00  0.00    +0.015 A 
ATOM      3  C   UNL     1      -0.253   1.286  -0.177  0.00  0.00    +0.026 A 
ATOM      4  C   UNL     1      -0.130  -0.099  -0.181  0.00  0.00    +0.052 A 
ATOM      5  C   UNL     1       1.117  -0.691   0.037  0.00  0.00    +0.070 A 
ATOM      6  C   UNL     1       2.229   0.100   0.256  0.00  0.00    +0.039 A 
ENDROOT
BRANCH   4   7
ATOM      7  N   UNL     1      -1.250  -0.897  -0.402  0.00  0.00    -0.332 N 
ATOM      8  C   UNL     1      -2.482  -0.097  -0.364  0.00  0.00    +0.086 C 
ATOM      9  C   UNL     1      -3.692  -1.019  -0.532  0.00  0.00    -0.063 C 
ATOM     10  N   UNL     1      -3.578  -1.746  -1.804  0.00  0.00    +0.381 N 
ATOM     11  C   UNL     1      -2.346  -2.546  -1.842  0.00  0.00    -0.063 C 
ATOM     12  C   UNL     1      -1.136  -1.623  -1.675  0.00  0.00    +0.086 C 
ATOM     13  H   UNL     1      -4.440  -2.418  -1.921  0.00  0.00    -0.086 HD
ATOM     14  H   UNL     1      -3.559  -1.026  -2.636  0.00  0.00    -0.086 HD
ENDBRANCH   4   7
BRANCH   1  16
ATOM     15  N   UNL     1       3.161   3.684   0.497  0.00  0.00    -0.309 N 
ATOM     16  C   UNL     1       3.285   2.342   0.494  0.00  0.00    +0.244 C 
ATOM     17  O   UNL     1       4.372   1.831   0.683  0.00  0.00    -0.270 OA
ATOM     18  H   UNL     1       2.178   4.146   0.326  0.00  0.00    +0.149 HD
BRANCH  15  19
ATOM     19  C   UNL     1       4.337   4.527   0.729  0.00  0.00    +0.070 C 
ATOM     20  C   UNL     1       4.558   4.690   2.234  0.00  0.00    +0.028 C 
BRANCH  19  22
ATOM     21  C   UNL     1       4.014   5.752  -1.425  0.00  0.00    +0.005 C 
ATOM     22  C   UNL     1       4.112   5.901   0.095  0.00  0.00    +0.018 C 
ENDBRANCH  19  22
ENDBRANCH  15  19
ENDBRANCH   1  16
BRANCH   5  23
ATOM     23  N   UNL     1       1.240  -2.086   0.033  0.00  0.00    -0.214 N 
ATOM     24  H   UNL     1       1.356  -2.626  -0.919  0.00  0.00    +0.174 HD
BRANCH  23  25
ATOM     25  S   UNL     1       1.212  -2.924   1.461  0.00  0.00    +0.072 S 
ATOM     26  O   UNL     1       1.339  -4.300   1.127  0.00  0.00    -0.150 OA
ATOM     27  O   UNL     1       2.119  -2.267   2.335  0.00  0.00    -0.150 OA
BRANCH  25  28
ATOM     28  C   UNL     1      -0.395  -2.720   2.154  0.00  0.00    +0.109 A 
ATOM     29  C   UNL     1      -0.648  -1.665   3.011  0.00  0.00    +0.029 A 
ATOM     30  C   UNL     1      -1.910  -1.502   3.551  0.00  0.00    +0.006 A 
ATOM     31  C   UNL     1      -2.916  -2.398   3.241  0.00  0.00    -0.045 A 
ATOM     32  C   UNL     1      -2.661  -3.456   2.388  0.00  0.00    +0.006 A 
ATOM     33  C   UNL     1      -1.400  -3.616   1.845  0.00  0.00    +0.029 A 
BRANCH  31  34
ATOM     34  C   UNL     1      -4.291  -2.223   3.833  0.00  0.00    +0.013 C 
ATOM     35  C   UNL     1      -4.200  -2.282   5.359  0.00  0.00    +0.012 C 
ATOM     36  C   UNL     1      -4.859  -0.867   3.408  0.00  0.00    +0.012 C 
ENDBRANCH  31  34
ENDBRANCH  25  28
ENDBRANCH  23  25
ENDBRANCH   5  23
TORSDOF 8
