REMARK  Name = ZINC39687345
REMARK  7 active torsions:
REMARK  status: ('A' for Active; 'I' for Inactive)
REMARK    1  A    between atoms: C_1  and  C_2
REMARK    2  A    between atoms: C_2  and  C_3
REMARK    3  A    between atoms: C_3  and  C_4
REMARK    4  A    between atoms: C_4  and  C_6
REMARK    5  A    between atoms: C_4  and  C_7
REMARK    6  A    between atoms: C_11  and  C_20
REMARK    7  A    between atoms: N_22  and  C_23
REMARK                            x       y       z     vdW  Elec       q    Type
REMARK                         _______ _______ _______ _____ _____    ______ ____
ROOT
ATOM      1  C   UNL     1      -2.904  -2.594   0.179  0.00  0.00    +0.218 C 
ATOM      2  O   UNL     1      -3.835  -1.834   0.341  0.00  0.00    -0.275 OA
ATOM      3  N   UNL     1      -3.105  -3.925   0.222  0.00  0.00    -0.300 N 
ATOM      4  C   UNL     1      -2.100  -5.002   0.054  0.00  0.00    +0.121 C 
ATOM      5  C   UNL     1      -2.502  -6.075   1.091  0.00  0.00    +0.100 C 
ATOM      6  C   UNL     1      -4.000  -5.837   1.343  0.00  0.00    -0.004 C 
ATOM      7  C   UNL     1      -4.381  -4.645   0.453  0.00  0.00    +0.115 C 
ATOM      8  C   UNL     1      -4.241  -5.490   2.809  0.00  0.00    -0.010 C 
ATOM      9  C   UNL     1      -5.744  -5.314   3.046  0.00  0.00    -0.082 C 
ATOM     10  N   UNL     1      -6.445  -6.554   2.693  0.00  0.00    +0.379 N 
ATOM     11  C   UNL     1      -6.285  -6.831   1.261  0.00  0.00    -0.082 C 
ATOM     12  C   UNL     1      -4.805  -7.071   0.948  0.00  0.00    -0.010 C 
ATOM     13  H   UNL     1      -6.062  -7.320   3.227  0.00  0.00    -0.086 HD
ATOM     14  H   UNL     1      -7.426  -6.457   2.908  0.00  0.00    -0.086 HD
ENDROOT
BRANCH   5  15
ATOM     15  C   UNL     1      -2.274  -7.456   0.532  0.00  0.00    +0.218 C 
ATOM     16  O   UNL     1      -2.388  -7.654  -0.659  0.00  0.00    -0.275 OA
ATOM     17  N   UNL     1      -1.944  -8.470   1.356  0.00  0.00    -0.312 N 
ATOM     18  H   UNL     1      -1.852  -8.312   2.308  0.00  0.00    +0.149 HD
BRANCH  17  19
ATOM     19  C   UNL     1      -1.722  -9.812   0.812  0.00  0.00    +0.076 C 
ATOM     20  C   UNL     1      -3.063 -10.540   0.690  0.00  0.00    +0.041 C 
ATOM     21  C   UNL     1      -2.832 -11.931   0.089  0.00  0.00    +0.108 C 
ATOM     22  N   UNL     1      -1.833 -12.637   0.903  0.00  0.00    -0.317 N 
ATOM     23  C   UNL     1      -0.541 -11.986   1.159  0.00  0.00    +0.108 C 
ATOM     24  C   UNL     1      -0.798 -10.595   1.748  0.00  0.00    +0.041 C 
ATOM     25  C   UNL     1      -2.106 -13.898   1.421  0.00  0.00    +0.099 A 
ATOM     26  C   UNL     1      -1.204 -14.493   2.297  0.00  0.00    +0.042 A 
ATOM     27  C   UNL     1      -1.488 -15.748   2.805  0.00  0.00    +0.005 A 
ATOM     28  C   UNL     1      -2.669 -16.367   2.419  0.00  0.00    +0.018 A 
ATOM     29  C   UNL     1      -3.519 -15.719   1.546  0.00  0.00    +0.084 A 
ATOM     30  N   UNL     1      -3.225 -14.519   1.081  0.00  0.00    -0.350 N 
ATOM     31  H   UNL     1      -3.841 -14.084   0.472  0.00  0.00    +0.166 HD
ENDBRANCH  17  19
ENDBRANCH   5  15
BRANCH   1  32
ATOM     32  C   UNL     1      -1.521  -2.048  -0.070  0.00  0.00    +0.072 C 
ATOM     33  C   UNL     1      -1.015  -2.542  -1.427  0.00  0.00    +0.017 C 
BRANCH  32  34
ATOM     34  C   UNL     1      -1.569  -0.519  -0.070  0.00  0.00    +0.012 C 
BRANCH  34  36
ATOM     35  C   UNL     1      -0.196   1.565  -0.197  0.00  0.00    +0.004 C 
ATOM     36  C   UNL     1      -0.148   0.036  -0.198  0.00  0.00    -0.003 C 
ENDBRANCH  34  36
ENDBRANCH  32  34
ENDBRANCH   1  32
TORSDOF 5
