REMARK  Name = ZINC38990398
REMARK  9 active torsions:
REMARK  status: ('A' for Active; 'I' for Inactive)
REMARK    1  A    between atoms: C_1  and  C_2
REMARK    2  A    between atoms: C_4  and  C_16
REMARK    3  A    between atoms: C_6  and  C_14
REMARK    4  A    between atoms: C_7  and  N_13
REMARK    5  A    between atoms: C_20  and  O_32
REMARK    6  A    between atoms: C_21  and  O_22
REMARK    7  A    between atoms: O_22  and  C_23
REMARK    8  A    between atoms: C_23  and  C_24
REMARK    9  A    between atoms: O_32  and  C_33
REMARK                            x       y       z     vdW  Elec       q    Type
REMARK                         _______ _______ _______ _____ _____    ______ ____
ROOT
ATOM      1  C   UNL     1      -3.201  -0.585   1.227  0.00  0.00    +0.010 A 
ATOM      2  C   UNL     1      -3.149  -1.766   1.943  0.00  0.00    +0.008 A 
ATOM      3  C   UNL     1      -3.757  -1.855   3.181  0.00  0.00    +0.004 A 
ATOM      4  C   UNL     1      -4.420  -0.763   3.709  0.00  0.00    +0.049 A 
ATOM      5  C   UNL     1      -4.476   0.424   2.997  0.00  0.00    +0.162 A 
ATOM      6  C   UNL     1      -3.859   0.515   1.753  0.00  0.00    +0.166 A 
ENDROOT
BRANCH   1  10
ATOM      7  C   UNL     1      -0.018   1.503   0.010  0.00  0.00    +0.067 C 
ATOM      8  C   UNL     1       0.002  -0.004   0.002  0.00  0.00    +0.066 C 
ATOM      9  C   UNL     1      -1.064  -0.768   0.003  0.00  0.00    +0.030 C 
ATOM     10  C   UNL     1      -2.537  -0.492  -0.122  0.00  0.00    +0.101 C 
ATOM     11  C   UNL     1      -3.075  -1.565  -1.050  0.00  0.00    +0.098 C 
ATOM     12  C   UNL     1      -2.317  -2.612  -1.438  0.00  0.00    +0.195 C 
ATOM     13  O   UNL     1      -1.033  -2.841  -1.107  0.00  0.00    -0.448 OA
ATOM     14  C   UNL     1      -0.528  -2.199   0.066  0.00  0.00    +0.343 C 
ATOM     15  N   UNL     1       0.921  -1.985   0.002  0.00  0.00    -0.138 NA
ATOM     16  N   UNL     1       1.127  -0.765  -0.013  0.00  0.00    -0.155 NA
BRANCH  12  17
ATOM     17  N   UNL     1      -2.917  -3.538  -2.254  0.00  0.00    -0.329 N 
ATOM     18  H   UNL     1      -3.842  -3.421  -2.523  0.00  0.00    +0.145 HD
ATOM     19  H   UNL     1      -2.417  -4.310  -2.562  0.00  0.00    +0.145 HD
ENDBRANCH  12  17
BRANCH  11  20
ATOM     20  C   UNL     1      -4.422  -1.466  -1.525  0.00  0.00    +0.101 C 
ATOM     21  N   UNL     1      -5.491  -1.387  -1.903  0.00  0.00    -0.191 NA
ENDBRANCH  11  20
ENDBRANCH   1  10
BRANCH   5  22
ATOM     22  O   UNL     1      -5.128   1.500   3.514  0.00  0.00    -0.491 OA
ATOM     23  C   UNL     1      -5.734   1.335   4.798  0.00  0.00    +0.277 C 
ENDBRANCH   5  22
BRANCH   6  24
ATOM     24  O   UNL     1      -3.906   1.680   1.052  0.00  0.00    -0.483 OA
BRANCH  24  25
ATOM     25  C   UNL     1      -5.008   1.856   0.160  0.00  0.00    +0.269 C 
BRANCH  25  26
ATOM     26  C   UNL     1      -4.893   3.195  -0.523  0.00  0.00    +0.043 A 
ATOM     27  C   UNL     1      -5.468   4.316   0.049  0.00  0.00    +0.131 A 
ATOM     28  C   UNL     1      -5.362   5.545  -0.579  0.00  0.00    +0.039 A 
ATOM     29  C   UNL     1      -4.681   5.652  -1.777  0.00  0.00    +0.004 A 
ATOM     30  C   UNL     1      -4.106   4.532  -2.349  0.00  0.00    +0.020 A 
ATOM     31  C   UNL     1      -4.207   3.304  -1.719  0.00  0.00    +0.050 A 
ATOM     32 CL   UNL     1      -3.479   1.899  -2.433  0.00  0.00    -0.083 Cl
ATOM     33  F   UNL     1      -6.134   4.212   1.220  0.00  0.00    -0.205 F 
ENDBRANCH  25  26
ENDBRANCH  24  25
ENDBRANCH   6  24
TORSDOF 7
