REMARK  Name = ZINC12100216
REMARK  12 active torsions:
REMARK  status: ('A' for Active; 'I' for Inactive)
REMARK    1  A    between atoms: C_1  and  C_2
REMARK    2  A    between atoms: C_2  and  C_3
REMARK    3  A    between atoms: C_2  and  C_4
REMARK    4  A    between atoms: C_4  and  C_5
REMARK    5  A    between atoms: C_5  and  C_7
REMARK    6  A    between atoms: C_5  and  N_31
REMARK    7  A    between atoms: C_17  and  C_19
REMARK    8  A    between atoms: C_22  and  C_25
REMARK    9  A    between atoms: C_32  and  C_34
REMARK   10  A    between atoms: C_34  and  N_72
REMARK   11  A    between atoms: C_35  and  N_72
REMARK   12  A    between atoms: C_36  and  N_72
REMARK                            x       y       z     vdW  Elec       q    Type
REMARK                         _______ _______ _______ _____ _____    ______ ____
ROOT
ATOM      1  C   UNL     1       7.183  -6.506  -1.197  0.00  0.00    +0.154 A 
ATOM      2  N   UNL     1       6.291  -7.327  -0.713  0.00  0.00    -0.132 NA
ATOM      3  N   UNL     1       5.479  -6.684   0.050  0.00  0.00    -0.134 NA
ATOM      4  C   UNL     1       5.825  -5.428   0.095  0.00  0.00    +0.135 A 
ATOM      5  N   UNL     1       6.898  -5.273  -0.714  0.00  0.00    -0.312 N 
ATOM      6  C   UNL     1       7.612  -4.036  -1.033  0.00  0.00    +0.144 C 
ATOM      7  C   UNL     1       7.504  -3.051   0.134  0.00  0.00    +0.129 C 
ATOM      8  N   UNL     1       6.222  -2.335   0.038  0.00  0.00    -0.295 N 
ATOM      9  C   UNL     1       4.975  -3.102   0.053  0.00  0.00    +0.116 C 
ATOM     10  C   UNL     1       5.179  -4.346   0.919  0.00  0.00    +0.095 C 
ATOM     11  C   UNL     1       6.196  -0.991  -0.058  0.00  0.00    +0.247 C 
ATOM     12  O   UNL     1       7.237  -0.367  -0.137  0.00  0.00    -0.270 OA
ENDROOT
BRANCH  11  13
ATOM     13  C   UNL     1       4.904  -0.276  -0.066  0.00  0.00    +0.037 A 
ATOM     14  C   UNL     1       3.831  -0.780  -0.804  0.00  0.00    +0.013 A 
ATOM     15  C   UNL     1       2.626  -0.113  -0.811  0.00  0.00    +0.009 A 
ATOM     16  C   UNL     1       2.478   1.066  -0.080  0.00  0.00    -0.018 A 
ATOM     17  C   UNL     1       3.550   1.573   0.653  0.00  0.00    +0.009 A 
ATOM     18  C   UNL     1       4.754   0.905   0.665  0.00  0.00    +0.013 A 
BRANCH  16  19
ATOM     19  C   UNL     1       1.180   1.784  -0.088  0.00  0.00    -0.018 A 
ATOM     20  C   UNL     1       1.028   2.962   0.640  0.00  0.00    +0.008 A 
ATOM     21  C   UNL     1      -0.183   3.623   0.633  0.00  0.00    +0.001 A 
ATOM     22  C   UNL     1      -1.242   3.124  -0.104  0.00  0.00    +0.000 A 
ATOM     23  C   UNL     1      -1.097   1.955  -0.830  0.00  0.00    +0.001 A 
ATOM     24  C   UNL     1       0.108   1.283  -0.825  0.00  0.00    +0.008 A 
ENDBRANCH  16  19
ENDBRANCH  11  13
BRANCH   1  25
ATOM     25  C   UNL     1       8.320  -6.864  -2.119  0.00  0.00    +0.141 C 
BRANCH  25  26
ATOM     26  N   UNL     1       8.974  -8.083  -1.638  0.00  0.00    -0.307 N 
ATOM     27  C   UNL     1      10.262  -8.326  -1.953  0.00  0.00    +0.197 C 
ATOM     28  O   UNL     1      10.879  -7.536  -2.635  0.00  0.00    -0.278 OA
ATOM     29  H   UNL     1       8.481  -8.715  -1.092  0.00  0.00    +0.149 HD
BRANCH  27  30
ATOM     30  C   UNL     1      10.935  -9.580  -1.458  0.00  0.00    +0.018 C 
BRANCH  30  33
ATOM     31  C   UNL     1      13.112  -8.529  -1.329  0.00  0.00    -0.096 C 
ATOM     32  C   UNL     1      12.941 -10.919  -1.676  0.00  0.00    -0.096 C 
ATOM     33  N   UNL     1      12.324  -9.607  -1.963  0.00  0.00    +0.382 N 
ATOM     34  H   UNL     1      12.313  -9.458  -2.979  0.00  0.00    -0.082 HD
ENDBRANCH  30  33
ENDBRANCH  27  30
ENDBRANCH  25  26
BRANCH  25  35
ATOM     35  C   UNL     1       7.777  -7.099  -3.530  0.00  0.00    +0.033 C 
BRANCH  35  37
ATOM     36  C   UNL     1       8.397  -7.698  -5.875  0.00  0.00    +0.007 C 
ATOM     37  C   UNL     1       8.943  -7.340  -4.492  0.00  0.00    -0.015 C 
ATOM     38  C   UNL     1       9.791  -6.071  -4.591  0.00  0.00    +0.007 C 
ENDBRANCH  35  37
ENDBRANCH  25  35
ENDBRANCH   1  25
TORSDOF 8
