REMARK  Name = ZINC14474191
REMARK  6 active torsions:
REMARK  status: ('A' for Active; 'I' for Inactive)
REMARK    1  A    between atoms: C_4  and  C_7
REMARK    2  A    between atoms: C_7  and  N_8
REMARK    3  A    between atoms: N_8  and  S_9
REMARK    4  A    between atoms: S_9  and  C_12
REMARK    5  A    between atoms: C_25  and  C_28
REMARK    6  A    between atoms: C_33  and  O_34
REMARK                            x       y       z     vdW  Elec       q    Type
REMARK                         _______ _______ _______ _____ _____    ______ ____
ROOT
ATOM      1  C   UNL     1       0.225   6.634   1.008  0.00  0.00    +0.106 A 
ATOM      2  C   UNL     1       0.342   7.093  -0.292  0.00  0.00    +0.030 A 
ATOM      3  C   UNL     1      -0.661   7.858  -0.850  0.00  0.00    +0.025 A 
ATOM      4  C   UNL     1      -1.791   8.182  -0.109  0.00  0.00    +0.031 A 
ATOM      5  C   UNL     1      -1.907   7.707   1.203  0.00  0.00    -0.018 A 
ATOM      6  C   UNL     1      -0.898   6.945   1.752  0.00  0.00    +0.034 A 
ATOM      7  C   UNL     1      -3.144   8.040   1.942  0.00  0.00    +0.049 C 
ATOM      8  C   UNL     1      -3.209   8.106   3.434  0.00  0.00    -0.023 C 
ATOM      9  C   UNL     1      -4.093   9.029   3.791  0.00  0.00    -0.030 C 
ATOM     10  C   UNL     1      -4.702   9.681   2.548  0.00  0.00    +0.033 C 
ATOM     11  C   UNL     1      -3.588   9.470   1.513  0.00  0.00    +0.029 C 
ATOM     12  C   UNL     1      -4.008   9.345   0.059  0.00  0.00    +0.108 C 
ATOM     13  N   UNL     1      -2.777   8.993  -0.682  0.00  0.00    -0.336 N 
ATOM     14  H   UNL     1      -2.652   9.330  -1.583  0.00  0.00    +0.147 HD
ENDROOT
BRANCH  12  15
ATOM     15  C   UNL     1      -5.037   8.256  -0.093  0.00  0.00    +0.014 A 
ATOM     16  C   UNL     1      -4.639   6.962  -0.372  0.00  0.00    +0.009 A 
ATOM     17  C   UNL     1      -5.583   5.962  -0.511  0.00  0.00    +0.001 A 
ATOM     18  C   UNL     1      -6.928   6.253  -0.373  0.00  0.00    +0.004 A 
ATOM     19  C   UNL     1      -7.331   7.545  -0.095  0.00  0.00    +0.046 A 
ATOM     20  C   UNL     1      -6.385   8.549   0.051  0.00  0.00    +0.122 A 
BRANCH  20  21
ATOM     21  O   UNL     1      -6.779   9.820   0.331  0.00  0.00    -0.506 OA
ATOM     22  H   UNL     1      -6.948  10.361  -0.453  0.00  0.00    +0.292 HD
ENDBRANCH  20  21
ENDBRANCH  12  15
BRANCH   1  23
ATOM     23  S   UNL     1       1.510   5.659   1.717  0.00  0.00    +0.059 S 
ATOM     24  O   UNL     1       1.409   5.818   3.126  0.00  0.00    -0.153 OA
ATOM     25  O   UNL     1       2.696   5.966   0.999  0.00  0.00    -0.153 OA
BRANCH  23  26
ATOM     26  N   UNL     1       1.157   4.074   1.394  0.00  0.00    -0.186 NA
ATOM     27  H   UNL     1       0.954   3.464   2.120  0.00  0.00    +0.148 HD
BRANCH  26  28
ATOM     28  C   UNL     1       1.151   3.592   0.010  0.00  0.00    +0.141 C 
BRANCH  28  32
ATOM     29  C   UNL     1       1.208  -0.679  -0.014  0.00  0.00    +0.000 A 
ATOM     30  C   UNL     1       0.002  -0.004   0.002  0.00  0.00    +0.000 A 
ATOM     31  C   UNL     1      -0.017   1.378   0.010  0.00  0.00    +0.005 A 
ATOM     32  C   UNL     1       1.171   2.086   0.002  0.00  0.00    -0.032 A 
ATOM     33  C   UNL     1       2.377   1.411  -0.014  0.00  0.00    +0.005 A 
ATOM     34  C   UNL     1       2.396   0.029  -0.021  0.00  0.00    +0.000 A 
ENDBRANCH  28  32
ENDBRANCH  26  28
ENDBRANCH  23  26
ENDBRANCH   1  23
TORSDOF 6
