REMARK  Name = ZINC15018483
REMARK  3 active torsions:
REMARK  status: ('A' for Active; 'I' for Inactive)
REMARK    1  A    between atoms: N_15  and  N_16
REMARK    2  A    between atoms: C_17  and  C_18
REMARK    3  A    between atoms: C_23  and  O_24
REMARK                            x       y       z     vdW  Elec       q    Type
REMARK                         _______ _______ _______ _____ _____    ______ ____
ROOT
ATOM      1  C   UNL     1      -0.013   1.076   0.008  0.00  0.00    +0.001 A 
ATOM      2  C   UNL     1      -1.224   1.750   0.017  0.00  0.00    +0.002 A 
ATOM      3  C   UNL     1      -1.259   3.128   0.031  0.00  0.00    +0.026 A 
ATOM      4  C   UNL     1      -0.073   3.856   0.024  0.00  0.00    +0.050 A 
ATOM      5  C   UNL     1       1.152   3.172   0.008  0.00  0.00    +0.029 A 
ATOM      6  C   UNL     1       1.173   1.779   0.000  0.00  0.00    +0.012 A 
ATOM      7  C   UNL     1       2.203   4.203   0.004  0.00  0.00    +0.137 A 
ATOM      8  C   UNL     1       1.539   5.447   0.017  0.00  0.00    +0.163 A 
ATOM      9  N   UNL     1       0.185   5.217   0.028  0.00  0.00    -0.338 N 
ATOM     10  H   UNL     1      -0.494   5.909   0.038  0.00  0.00    +0.167 HD
ATOM     11  N   UNL     1       2.274   6.554   0.015  0.00  0.00    -0.192 NA
ATOM     12  C   UNL     1       3.597   6.455   0.002  0.00  0.00    +0.256 A 
ATOM     13  N   UNL     1       4.200   5.272  -0.010  0.00  0.00    -0.111 NA
ATOM     14  N   UNL     1       3.528   4.172  -0.009  0.00  0.00    -0.142 NA
ATOM     15  N   UNL     1       4.363   7.608   0.000  0.00  0.00    -0.204 N 
ATOM     16  H   UNL     1       3.933   8.477   0.009  0.00  0.00    +0.177 HD
ENDROOT
BRANCH  15  17
ATOM     17  N   UNL     1       5.761   7.519  -0.014  0.00  0.00    -0.187 NA
ATOM     18  C   UNL     1       6.481   8.600  -0.016  0.00  0.00    +0.142 C 
BRANCH  18  19
ATOM     19  C   UNL     1       7.951   8.507  -0.030  0.00  0.00    +0.037 A 
ATOM     20  C   UNL     1       8.729   9.667  -0.032  0.00  0.00    +0.027 A 
ATOM     21  C   UNL     1      10.105   9.572  -0.046  0.00  0.00    +0.014 A 
ATOM     22  C   UNL     1      10.719   8.331  -0.059  0.00  0.00    +0.018 A 
ATOM     23  C   UNL     1       9.961   7.176  -0.057  0.00  0.00    +0.047 A 
ATOM     24  C   UNL     1       8.578   7.253  -0.037  0.00  0.00    +0.126 A 
ATOM     25  I   UNL     1      11.271  11.313  -0.049  0.00  0.00    -0.044 I 
BRANCH  24  26
ATOM     26  O   UNL     1       7.832   6.118  -0.030  0.00  0.00    -0.506 OA
ATOM     27  H   UNL     1       7.606   5.790  -0.911  0.00  0.00    +0.292 HD
ENDBRANCH  24  26
ENDBRANCH  18  19
ENDBRANCH  15  17
TORSDOF 3
