REMARK  Name = ZINC36704422
REMARK  12 active torsions:
REMARK  status: ('A' for Active; 'I' for Inactive)
REMARK    1  A    between atoms: C_1  and  C_2
REMARK    2  A    between atoms: C_2  and  N_3
REMARK    3  A    between atoms: N_3  and  C_4
REMARK    4  A    between atoms: N_3  and  C_6
REMARK    5  A    between atoms: C_4  and  C_5
REMARK    6  A    between atoms: C_6  and  C_7
REMARK    7  A    between atoms: C_7  and  N_8
REMARK    8  A    between atoms: C_13  and  C_19
REMARK    9  A    between atoms: C_14  and  C_18
REMARK   10  A    between atoms: C_20  and  C_22
REMARK   11  A    between atoms: N_27  and  S_28
REMARK   12  A    between atoms: S_28  and  C_31
REMARK                            x       y       z     vdW  Elec       q    Type
REMARK                         _______ _______ _______ _____ _____    ______ ____
ROOT
ATOM      1  N   UNL     1       0.924  -3.929  -2.231  0.00  0.00    -0.251 N 
ATOM      2  C   UNL     1      -0.160  -4.528  -2.851  0.00  0.00    +0.168 A 
ATOM      3  N   UNL     1      -1.098  -3.976  -3.585  0.00  0.00    -0.224 NA
ATOM      4  C   UNL     1      -2.106  -4.689  -4.132  0.00  0.00    +0.081 A 
ATOM      5  C   UNL     1      -3.171  -4.221  -4.936  0.00  0.00    +0.032 A 
ATOM      6  C   UNL     1      -4.120  -5.086  -5.415  0.00  0.00    -0.045 A 
ATOM      7  C   UNL     1      -4.072  -6.443  -5.132  0.00  0.00    -0.046 A 
ATOM      8  C   UNL     1      -3.044  -6.936  -4.349  0.00  0.00    +0.021 A 
ATOM      9  C   UNL     1      -2.090  -6.077  -3.865  0.00  0.00    +0.041 A 
ATOM     10  S   UNL     1      -0.634  -6.252  -2.861  0.00  0.00    -0.052 S 
ATOM     11  C   UNL     1      -5.130  -7.371  -5.672  0.00  0.00    +0.044 C 
ATOM     12  C   UNL     1      -5.241  -4.551  -6.268  0.00  0.00    +0.044 C 
ATOM     13  C   UNL     1       1.844  -4.686  -1.601  0.00  0.00    +0.240 C 
ATOM     14  O   UNL     1       2.744  -4.158  -0.983  0.00  0.00    -0.273 OA
ENDROOT
BRANCH  13  15
ATOM     15  C   UNL     1       1.754  -6.189  -1.665  0.00  0.00    +0.166 C 
ATOM     16  C   UNL     1       2.104  -6.676  -3.087  0.00  0.00    +0.031 C 
ATOM     17  C   UNL     1       3.599  -7.069  -2.961  0.00  0.00    +0.019 C 
ATOM     18  C   UNL     1       3.651  -7.639  -1.522  0.00  0.00    +0.110 C 
ATOM     19  N   UNL     1       2.729  -6.788  -0.742  0.00  0.00    -0.164 NA
BRANCH  19  20
ATOM     20  S   UNL     1       2.784  -6.545   0.895  0.00  0.00    +0.068 S 
ATOM     21  O   UNL     1       4.120  -6.810   1.300  0.00  0.00    -0.152 OA
ATOM     22  O   UNL     1       2.146  -5.300   1.143  0.00  0.00    -0.152 OA
BRANCH  20  23
ATOM     23  C   UNL     1       1.777  -7.785   1.640  0.00  0.00    +0.143 A 
ATOM     24  C   UNL     1       2.125  -9.021   2.072  0.00  0.00    +0.036 A 
ATOM     25  C   UNL     1       1.156  -9.833   2.631  0.00  0.00    +0.010 A 
ATOM     26  C   UNL     1      -0.113  -9.368   2.731  0.00  0.00    +0.047 A 
ATOM     27  S   UNL     1       0.035  -7.734   2.028  0.00  0.00    -0.077 S 
ENDBRANCH  20  23
ENDBRANCH  19  20
ENDBRANCH  13  15
BRANCH   1  28
ATOM     28  C   UNL     1       1.071  -2.471  -2.260  0.00  0.00    +0.097 C 
BRANCH  28  29
ATOM     29  C   UNL     1       0.470  -1.873  -0.987  0.00  0.00    -0.059 C 
BRANCH  29  30
ATOM     30  N   UNL     1       0.731  -0.427  -0.955  0.00  0.00    +0.380 N 
ATOM     31  H   UNL     1       1.722  -0.263  -1.054  0.00  0.00    -0.082 HD
BRANCH  30  33
ATOM     32  C   UNL     1       0.384   1.709  -2.101  0.00  0.00    -0.017 C 
ATOM     33  C   UNL     1       0.014   0.225  -2.058  0.00  0.00    -0.082 C 
ENDBRANCH  30  33
BRANCH  30  34
ATOM     34  C   UNL     1       0.268   0.126   0.325  0.00  0.00    -0.082 C 
ATOM     35  C   UNL     1       1.111  -0.451   1.464  0.00  0.00    -0.017 C 
ENDBRANCH  30  34
ENDBRANCH  29  30
ENDBRANCH  28  29
ENDBRANCH   1  28
TORSDOF 8
