REMARK  Name = ZINC54201275
REMARK  10 active torsions:
REMARK  status: ('A' for Active; 'I' for Inactive)
REMARK    1  A    between atoms: C_1  and  O_2
REMARK    2  A    between atoms: O_2  and  C_3
REMARK    3  A    between atoms: C_6  and  C_9
REMARK    4  A    between atoms: C_12  and  C_15
REMARK    5  A    between atoms: C_20  and  O_21
REMARK    6  A    between atoms: C_28  and  C_29
REMARK    7  A    between atoms: C_32  and  O_37
REMARK    8  A    between atoms: C_33  and  O_35
REMARK    9  A    between atoms: O_35  and  C_36
REMARK   10  A    between atoms: O_37  and  C_38
REMARK                            x       y       z     vdW  Elec       q    Type
REMARK                         _______ _______ _______ _____ _____    ______ ____
ROOT
ATOM      1  C   UNL     1       2.670  -2.470   4.174  0.00  0.00    +0.069 C 
ATOM      2  N   UNL     1       3.287  -1.870   5.134  0.00  0.00    -0.182 NA
ATOM      3  N   UNL     1       4.267  -2.644   5.752  0.00  0.00    -0.200 N 
ATOM      4  C   UNL     1       4.310  -3.964   5.104  0.00  0.00    +0.139 C 
ATOM      5  C   UNL     1       3.217  -3.871   4.021  0.00  0.00    +0.087 C 
ATOM      6  C   UNL     1       5.064  -2.240   6.795  0.00  0.00    +0.149 C 
ATOM      7  N   UNL     1       5.962  -3.029   7.311  0.00  0.00    -0.153 NA
ATOM      8  C   UNL     1       6.746  -2.649   8.328  0.00  0.00    +0.302 C 
ATOM      9  O   UNL     1       7.617  -3.287   8.895  0.00  0.00    -0.260 OA
ATOM     10  S   UNL     1       6.202  -0.978   8.649  0.00  0.00    -0.026 S 
ATOM     11  C   UNL     1       4.946  -0.892   7.379  0.00  0.00    +0.057 C 
ATOM     12  C   UNL     1       4.112   0.131   7.046  0.00  0.00    +0.026 C 
ENDROOT
BRANCH   1  16
ATOM     13  C   UNL     1      -0.431  -0.779   1.820  0.00  0.00    +0.120 A 
ATOM     14  C   UNL     1       0.163  -0.027   2.826  0.00  0.00    +0.046 A 
ATOM     15  C   UNL     1       1.170  -0.572   3.593  0.00  0.00    +0.013 A 
ATOM     16  C   UNL     1       1.593  -1.883   3.357  0.00  0.00    -0.002 A 
ATOM     17  C   UNL     1       0.993  -2.635   2.344  0.00  0.00    +0.013 A 
ATOM     18  C   UNL     1      -0.017  -2.084   1.586  0.00  0.00    +0.046 A 
BRANCH  13  20
ATOM     19  C   UNL     1      -1.800   1.109   1.361  0.00  0.00    +0.277 C 
ATOM     20  O   UNL     1      -1.423  -0.237   1.067  0.00  0.00    -0.495 OA
ENDBRANCH  13  20
ENDBRANCH   1  16
BRANCH   4  21
ATOM     21  C   UNL     1       3.981  -5.052   6.094  0.00  0.00    +0.017 A 
ATOM     22  C   UNL     1       3.239  -4.759   7.222  0.00  0.00    +0.009 A 
ATOM     23  C   UNL     1       2.937  -5.756   8.130  0.00  0.00    +0.001 A 
ATOM     24  C   UNL     1       3.377  -7.049   7.913  0.00  0.00    +0.004 A 
ATOM     25  C   UNL     1       4.120  -7.347   6.787  0.00  0.00    +0.046 A 
ATOM     26  C   UNL     1       4.419  -6.349   5.871  0.00  0.00    +0.122 A 
BRANCH  26  27
ATOM     27  O   UNL     1       5.145  -6.641   4.759  0.00  0.00    -0.506 OA
ATOM     28  H   UNL     1       6.100  -6.550   4.878  0.00  0.00    +0.292 HD
ENDBRANCH  26  27
ENDBRANCH   4  21
BRANCH  12  29
ATOM     29  C   UNL     1       4.300   1.456   7.648  0.00  0.00    -0.020 A 
ATOM     30  C   UNL     1       5.440   1.723   8.418  0.00  0.00    +0.012 A 
ATOM     31  C   UNL     1       5.613   2.967   8.981  0.00  0.00    +0.050 A 
ATOM     32  C   UNL     1       4.661   3.959   8.789  0.00  0.00    +0.162 A 
ATOM     33  C   UNL     1       3.523   3.702   8.025  0.00  0.00    +0.162 A 
ATOM     34  C   UNL     1       3.343   2.460   7.450  0.00  0.00    +0.057 A 
BRANCH  33  35
ATOM     35  O   UNL     1       2.593   4.677   7.841  0.00  0.00    -0.491 OA
ATOM     36  C   UNL     1       1.452   4.344   7.046  0.00  0.00    +0.277 C 
ENDBRANCH  33  35
BRANCH  32  37
ATOM     37  O   UNL     1       4.837   5.185   9.348  0.00  0.00    -0.491 OA
ATOM     38  C   UNL     1       6.024   5.381  10.119  0.00  0.00    +0.277 C 
ENDBRANCH  32  37
ENDBRANCH  12  29
TORSDOF 7
