REMARK  Name = ZINC04456385
REMARK  13 active torsions:
REMARK  status: ('A' for Active; 'I' for Inactive)
REMARK    1  A    between atoms: C_1  and  C_2
REMARK    2  A    between atoms: C_2  and  C_3
REMARK    3  A    between atoms: C_3  and  N_4
REMARK    4  A    between atoms: N_4  and  C_5
REMARK    5  A    between atoms: N_4  and  C_8
REMARK    6  A    between atoms: C_5  and  C_6
REMARK    7  A    between atoms: C_6  and  C_7
REMARK    8  A    between atoms: C_8  and  C_9
REMARK    9  A    between atoms: C_10  and  C_20
REMARK   10  A    between atoms: N_22  and  N_23
REMARK   11  A    between atoms: C_24  and  C_25
REMARK   12  A    between atoms: C_25  and  C_33
REMARK   13  A    between atoms: C_26  and  C_27
REMARK                            x       y       z     vdW  Elec       q    Type
REMARK                         _______ _______ _______ _____ _____    ______ ____
ROOT
ATOM      1  C   UNL     1       3.182  -4.048  -1.852  0.00  0.00    +0.063 A 
ATOM      2  C   UNL     1       4.154  -4.746  -1.193  0.00  0.00    +0.170 A 
ATOM      3  N   UNL     1       3.916  -6.060  -1.350  0.00  0.00    -0.124 NA
ATOM      4  N   UNL     1       2.857  -6.224  -2.065  0.00  0.00    -0.058 NA
ATOM      5  N   UNL     1       2.352  -4.961  -2.404  0.00  0.00    -0.194 N 
ATOM      6  C   UNL     1       1.210  -4.696  -3.168  0.00  0.00    +0.240 A 
ATOM      7  C   UNL     1       0.318  -5.701  -3.753  0.00  0.00    +0.206 A 
ATOM      8  N   UNL     1      -0.635  -5.080  -4.393  0.00  0.00    -0.032 NA
ATOM      9  O   UNL     1      -0.413  -3.688  -4.258  0.00  0.00    -0.239 OA
ATOM     10  N   UNL     1       0.755  -3.514  -3.475  0.00  0.00    -0.027 NA
ATOM     11  N   UNL     1       0.462  -7.079  -3.645  0.00  0.00    -0.337 N 
ATOM     12  H   UNL     1       1.206  -7.452  -3.146  0.00  0.00    +0.144 HD
ATOM     13  H   UNL     1      -0.181  -7.669  -4.068  0.00  0.00    +0.144 HD
ENDROOT
BRANCH   2  14
ATOM     14  C   UNL     1       5.276  -4.158  -0.438  0.00  0.00    +0.285 C 
ATOM     15  O   UNL     1       5.392  -2.950  -0.363  0.00  0.00    -0.267 OA
ATOM     16  N   UNL     1       6.173  -4.960   0.170  0.00  0.00    -0.202 N 
ATOM     17  H   UNL     1       6.080  -5.924   0.111  0.00  0.00    +0.178 HD
BRANCH  16  18
ATOM     18  N   UNL     1       7.238  -4.401   0.888  0.00  0.00    -0.188 NA
ATOM     19  C   UNL     1       8.105  -5.176   1.476  0.00  0.00    +0.133 C 
BRANCH  19  20
ATOM     20  C   UNL     1       9.183  -4.611   2.202  0.00  0.00    -0.030 C 
ATOM     21  C   UNL     1      10.144  -5.408   2.712  0.00  0.00    +0.012 C 
ATOM     22  C   UNL     1       9.255  -3.119   2.405  0.00  0.00    +0.045 C 
BRANCH  21  23
ATOM     23  C   UNL     1      10.166  -6.841   2.377  0.00  0.00    -0.025 A 
ATOM     24  C   UNL     1       9.782  -7.271   1.103  0.00  0.00    +0.008 A 
ATOM     25  C   UNL     1       9.805  -8.616   0.798  0.00  0.00    +0.001 A 
ATOM     26  C   UNL     1      10.207  -9.539   1.748  0.00  0.00    +0.000 A 
ATOM     27  C   UNL     1      10.587  -9.121   3.011  0.00  0.00    +0.001 A 
ATOM     28  C   UNL     1      10.575  -7.779   3.330  0.00  0.00    +0.008 A 
ENDBRANCH  21  23
ENDBRANCH  19  20
ENDBRANCH  16  18
ENDBRANCH   2  14
BRANCH   1  29
ATOM     29  C   UNL     1       3.057  -2.549  -1.941  0.00  0.00    -0.020 C 
BRANCH  29  30
ATOM     30  N   UNL     1       2.102  -2.077  -0.929  0.00  0.00    +0.383 N 
ATOM     31  H   UNL     1       1.226  -2.564  -1.040  0.00  0.00    -0.081 HD
BRANCH  30  32
ATOM     32  C   UNL     1       2.642  -2.337   0.412  0.00  0.00    -0.079 C 
BRANCH  32  34
ATOM     33  C   UNL     1       2.160  -2.232   2.861  0.00  0.00    +0.002 C 
ATOM     34  C   UNL     1       1.597  -1.961   1.464  0.00  0.00    -0.022 C 
ENDBRANCH  32  34
ENDBRANCH  30  32
BRANCH  30  35
ATOM     35  C   UNL     1       1.884  -0.634  -1.097  0.00  0.00    -0.079 C 
BRANCH  35  36
ATOM     36  C   UNL     1       1.192  -0.375  -2.437  0.00  0.00    -0.022 C 
ATOM     37  C   UNL     1       1.046   1.133  -2.653  0.00  0.00    +0.002 C 
ENDBRANCH  35  36
ENDBRANCH  30  35
ENDBRANCH  29  30
ENDBRANCH   1  29
TORSDOF 10
