REMARK  Name = ZINC36137270
REMARK  7 active torsions:
REMARK  status: ('A' for Active; 'I' for Inactive)
REMARK    1  A    between atoms: C_1  and  C_2
REMARK    2  A    between atoms: C_2  and  C_3
REMARK    3  A    between atoms: C_2  and  C_4
REMARK    4  A    between atoms: C_2  and  C_5
REMARK    5  A    between atoms: C_17  and  C_20
REMARK    6  A    between atoms: C_23  and  O_29
REMARK    7  A    between atoms: C_24  and  N_26
REMARK                            x       y       z     vdW  Elec       q    Type
REMARK                         _______ _______ _______ _____ _____    ______ ____
ROOT
ATOM      1  C   UNL     1       0.718  -0.497  -1.257  0.00  0.00    -0.000 C 
ATOM      2  C   UNL     1       0.746  -2.029  -1.264  0.00  0.00    +0.009 C 
ATOM      3  C   UNL     1       1.235  -2.533  -2.624  0.00  0.00    +0.037 C 
ATOM      4  C   UNL     1       2.550  -1.843  -2.957  0.00  0.00    -0.023 A 
ATOM      5  C   UNL     1       2.922  -0.707  -2.327  0.00  0.00    -0.004 A 
ATOM      6  S   UNL     1       4.492  -0.289  -3.036  0.00  0.00    -0.078 S 
ATOM      7  C   UNL     1       4.656  -1.546  -4.105  0.00  0.00    +0.080 A 
ATOM      8  C   UNL     1       3.498  -2.322  -3.949  0.00  0.00    +0.068 A 
ATOM      9  C   UNL     1       3.356  -3.526  -4.800  0.00  0.00    +0.248 C 
ATOM     10  O   UNL     1       2.309  -4.145  -4.853  0.00  0.00    -0.270 OA
ATOM     11  N   UNL     1       4.435  -3.907  -5.515  0.00  0.00    -0.289 N 
ATOM     12  C   UNL     1       5.753  -3.299  -5.370  0.00  0.00    +0.190 C 
ATOM     13  N   UNL     1       5.649  -1.878  -4.994  0.00  0.00    -0.316 N 
ATOM     14  C   UNL     1       2.161   0.028  -1.267  0.00  0.00    +0.046 C 
ATOM     15  H   UNL     1       4.329  -4.625  -6.159  0.00  0.00    +0.151 HD
ATOM     16  H   UNL     1       6.253  -1.210  -5.356  0.00  0.00    +0.149 HD
ENDROOT
BRANCH  12  17
ATOM     17  C   UNL     1       6.522  -4.035  -4.303  0.00  0.00    -0.007 A 
ATOM     18  C   UNL     1       7.460  -3.364  -3.541  0.00  0.00    +0.011 A 
ATOM     19  C   UNL     1       8.166  -4.037  -2.562  0.00  0.00    +0.048 A 
ATOM     20  C   UNL     1       7.932  -5.387  -2.344  0.00  0.00    +0.147 A 
ATOM     21  C   UNL     1       6.989  -6.058  -3.110  0.00  0.00    +0.168 A 
ATOM     22  C   UNL     1       6.283  -5.379  -4.084  0.00  0.00    +0.043 A 
BRANCH  21  23
ATOM     23  N   UNL     1       6.738  -7.498  -2.880  0.00  0.00    +0.060 N 
ATOM     24  O   UNL     1       5.916  -8.082  -3.547  0.00  0.00    -0.126 OA
ATOM     25  O   UNL     1       7.354  -8.090  -2.025  0.00  0.00    -0.126 OA
ENDBRANCH  21  23
BRANCH  20  26
ATOM     26  O   UNL     1       8.625  -6.051  -1.382  0.00  0.00    -0.504 OA
ATOM     27  H   UNL     1       8.201  -6.040  -0.513  0.00  0.00    +0.292 HD
ENDBRANCH  20  26
ENDBRANCH  12  17
BRANCH   1  29
ATOM     28  C   UNL     1      -0.019   1.526   0.010  0.00  0.00    +0.011 C 
ATOM     29  C   UNL     1       0.002  -0.004   0.002  0.00  0.00    -0.035 C 
ATOM     30  C   UNL     1       0.742  -0.511   1.242  0.00  0.00    +0.011 C 
ATOM     31  C   UNL     1      -1.433  -0.534   0.013  0.00  0.00    +0.011 C 
ENDBRANCH   1  29
TORSDOF 4
