REMARK  Name = ZINC16804318
REMARK  7 active torsions:
REMARK  status: ('A' for Active; 'I' for Inactive)
REMARK    1  A    between atoms: C_4  and  C_7
REMARK    2  A    between atoms: C_8  and  C_26
REMARK    3  A    between atoms: C_10  and  S_12
REMARK    4  A    between atoms: S_12  and  C_13
REMARK    5  A    between atoms: C_13  and  C_14
REMARK    6  A    between atoms: C_17  and  C_23
REMARK    7  A    between atoms: C_19  and  N_20
REMARK                            x       y       z     vdW  Elec       q    Type
REMARK                         _______ _______ _______ _____ _____    ______ ____
ROOT
ATOM      1  C   UNL     1      -6.477  -1.045   0.279  0.00  0.00    +0.118 A 
ATOM      2  C   UNL     1      -6.329  -1.594   1.535  0.00  0.00    +0.164 A 
ATOM      3  O   UNL     1      -5.053  -1.352   1.917  0.00  0.00    -0.430 OA
ATOM      4  C   UNL     1      -4.445  -0.678   0.928  0.00  0.00    +0.258 A 
ATOM      5  N   UNL     1      -5.293  -0.487  -0.053  0.00  0.00    -0.203 NA
ENDROOT
BRANCH   1   9
ATOM      6  C   UNL     1     -10.002  -1.086  -2.094  0.00  0.00    +0.000 A 
ATOM      7  C   UNL     1     -10.100  -1.014  -0.716  0.00  0.00    +0.001 A 
ATOM      8  C   UNL     1      -8.960  -1.000   0.060  0.00  0.00    +0.010 A 
ATOM      9  C   UNL     1      -7.705  -1.060  -0.548  0.00  0.00    +0.004 A 
ATOM     10  C   UNL     1      -7.613  -1.127  -1.938  0.00  0.00    +0.010 A 
ATOM     11  C   UNL     1      -8.761  -1.146  -2.703  0.00  0.00    +0.001 A 
ENDBRANCH   1   9
BRANCH   2  12
ATOM     12  C   UNL     1      -7.360  -2.308   2.311  0.00  0.00    +0.020 A 
ATOM     13  C   UNL     1      -8.267  -3.152   1.665  0.00  0.00    +0.011 A 
ATOM     14  C   UNL     1      -9.225  -3.820   2.398  0.00  0.00    +0.001 A 
ATOM     15  C   UNL     1      -9.297  -3.647   3.769  0.00  0.00    +0.000 A 
ATOM     16  C   UNL     1      -8.406  -2.808   4.415  0.00  0.00    +0.001 A 
ATOM     17  C   UNL     1      -7.439  -2.138   3.696  0.00  0.00    +0.011 A 
ENDBRANCH   2  12
BRANCH   4  18
ATOM     18  S   UNL     1      -2.770  -0.131   0.948  0.00  0.00    -0.062 S 
BRANCH  18  19
ATOM     19  C   UNL     1      -2.682   0.670  -0.673  0.00  0.00    +0.116 C 
BRANCH  19  20
ATOM     20  C   UNL     1      -1.298   1.230  -0.882  0.00  0.00    -0.007 A 
ATOM     21  C   UNL     1      -1.058   2.574  -0.659  0.00  0.00    +0.007 A 
ATOM     22  C   UNL     1       0.207   3.092  -0.842  0.00  0.00    +0.013 A 
ATOM     23  C   UNL     1       1.245   2.257  -1.260  0.00  0.00    +0.039 A 
ATOM     24  C   UNL     1       0.995   0.903  -1.489  0.00  0.00    +0.046 A 
ATOM     25  C   UNL     1      -0.275   0.398  -1.301  0.00  0.00    +0.131 A 
BRANCH  23  26
ATOM     26  C   UNL     1       2.604   2.805  -1.459  0.00  0.00    +0.242 C 
ATOM     27  O   UNL     1       3.506   2.076  -1.823  0.00  0.00    -0.270 OA
ATOM     28  N   UNL     1       2.842   4.113  -1.238  0.00  0.00    -0.325 N 
ATOM     29  H   UNL     1       2.123   4.695  -0.948  0.00  0.00    +0.145 HD
ATOM     30  H   UNL     1       3.734   4.472  -1.368  0.00  0.00    +0.145 HD
ENDBRANCH  23  26
BRANCH  25  31
ATOM     31  N   UNL     1      -0.543  -1.037  -1.543  0.00  0.00    +0.057 N 
ATOM     32  O   UNL     1       0.320  -1.743  -2.035  0.00  0.00    -0.126 OA
ATOM     33  O   UNL     1      -1.625  -1.513  -1.250  0.00  0.00    -0.126 OA
ENDBRANCH  25  31
ENDBRANCH  19  20
ENDBRANCH  18  19
ENDBRANCH   4  18
TORSDOF 7
