REMARK  Name = ZINC43025560
REMARK  8 active torsions:
REMARK  status: ('A' for Active; 'I' for Inactive)
REMARK    1  A    between atoms: C_1  and  C_2
REMARK    2  A    between atoms: C_2  and  C_3
REMARK    3  A    between atoms: C_2  and  C_4
REMARK    4  A    between atoms: C_4  and  C_6
REMARK    5  A    between atoms: C_4  and  S_18
REMARK    6  A    between atoms: S_18  and  C_19
REMARK    7  A    between atoms: C_22  and  C_26
REMARK    8  A    between atoms: C_23  and  N_25
REMARK                            x       y       z     vdW  Elec       q    Type
REMARK                         _______ _______ _______ _____ _____    ______ ____
ROOT
ATOM      1  C   UNL     1       0.858  -0.528   1.204  0.00  0.00    +0.143 C 
ENDROOT
BRANCH   1   2
ATOM      2  C   UNL     1       2.220   0.111   1.106  0.00  0.00    +0.233 C 
ATOM      3  O   UNL     1       3.098  -0.428   0.466  0.00  0.00    -0.274 OA
ATOM      4  N   UNL     1       2.461   1.281   1.730  0.00  0.00    -0.269 N 
ATOM      5  C   UNL     1       1.347   1.971   2.371  0.00  0.00    +0.125 C 
ATOM      6  C   UNL     1       1.278   3.408   1.830  0.00  0.00    +0.094 C 
ATOM      7  S   UNL     1       2.787   4.269   2.364  0.00  0.00    -0.122 S 
ATOM      8  C   UNL     1       4.066   3.110   1.997  0.00  0.00    +0.029 A 
ATOM      9  C   UNL     1       3.768   1.774   1.737  0.00  0.00    +0.050 A 
ATOM     10  C   UNL     1       4.806   0.886   1.464  0.00  0.00    +0.024 A 
ATOM     11  C   UNL     1       6.115   1.323   1.451  0.00  0.00    +0.002 A 
ATOM     12  C   UNL     1       6.409   2.649   1.709  0.00  0.00    +0.001 A 
ATOM     13  C   UNL     1       5.386   3.545   1.976  0.00  0.00    +0.016 A 
ENDBRANCH   1   2
BRANCH   1  15
ATOM     14  C   UNL     1      -0.086   1.269  -0.254  0.00  0.00    +0.009 C 
ATOM     15  C   UNL     1       0.068  -0.243  -0.075  0.00  0.00    +0.005 C 
ATOM     16  C   UNL     1       0.816  -0.824  -1.277  0.00  0.00    +0.009 C 
ENDBRANCH   1  15
BRANCH   1  17
ATOM     17  S   UNL     1       1.044  -2.320   1.413  0.00  0.00    -0.073 S 
BRANCH  17  18
ATOM     18  C   UNL     1      -0.604  -2.894   1.658  0.00  0.00    +0.191 A 
ATOM     19  N   UNL     1      -1.600  -2.016   1.644  0.00  0.00    -0.229 NA
ATOM     20  C   UNL     1      -2.850  -2.400   1.823  0.00  0.00    +0.136 A 
ATOM     21  C   UNL     1      -3.122  -3.756   2.030  0.00  0.00    +0.109 A 
ATOM     22  C   UNL     1      -2.038  -4.660   2.038  0.00  0.00    +0.138 A 
ATOM     23  N   UNL     1      -0.811  -4.190   1.845  0.00  0.00    -0.206 NA
BRANCH  22  24
ATOM     24  N   UNL     1      -2.249  -6.009   2.238  0.00  0.00    -0.342 N 
ATOM     25  H   UNL     1      -3.149  -6.344   2.375  0.00  0.00    +0.144 HD
ATOM     26  H   UNL     1      -1.497  -6.622   2.242  0.00  0.00    +0.144 HD
ENDBRANCH  22  24
BRANCH  21  27
ATOM     27  C   UNL     1      -4.464  -4.216   2.228  0.00  0.00    +0.104 C 
ATOM     28  N   UNL     1      -5.529  -4.580   2.386  0.00  0.00    -0.191 NA
ENDBRANCH  21  27
ENDBRANCH  17  18
ENDBRANCH   1  17
TORSDOF 6
