REMARK  Name = ZINC38705381
REMARK  10 active torsions:
REMARK  status: ('A' for Active; 'I' for Inactive)
REMARK    1  A    between atoms: C_1  and  C_2
REMARK    2  A    between atoms: C_4  and  C_33
REMARK    3  A    between atoms: C_5  and  C_9
REMARK    4  A    between atoms: C_6  and  O_8
REMARK    5  A    between atoms: N_17  and  C_30
REMARK    6  A    between atoms: C_18  and  C_20
REMARK    7  A    between atoms: C_22  and  O_28
REMARK    8  A    between atoms: C_23  and  O_27
REMARK    9  A    between atoms: O_28  and  C_29
REMARK   10  A    between atoms: C_30  and  C_31
REMARK                            x       y       z     vdW  Elec       q    Type
REMARK                         _______ _______ _______ _____ _____    ______ ____
ROOT
ATOM      1  C   UNL     1      -0.231  -4.715  -0.111  0.00  0.00    +0.102 A 
ATOM      2  C   UNL     1       0.043  -5.348   1.106  0.00  0.00    +0.035 A 
ATOM      3  C   UNL     1       0.103  -6.699   0.823  0.00  0.00    +0.126 A 
ATOM      4  N   UNL     1      -0.132  -6.816  -0.518  0.00  0.00    -0.272 N 
ATOM      5  H   UNL     1      -0.153  -7.653  -1.009  0.00  0.00    +0.189 HD
ATOM      6  N   UNL     1      -0.328  -5.654  -1.031  0.00  0.00    -0.173 NA
ATOM      7  C   UNL     1       0.389  -7.425   2.065  0.00  0.00    +0.266 C 
ATOM      8  O   UNL     1       0.504  -8.633   2.153  0.00  0.00    -0.268 OA
ATOM      9  N   UNL     1       0.505  -6.565   3.094  0.00  0.00    -0.281 N 
ATOM     10  C   UNL     1       0.300  -5.204   2.581  0.00  0.00    +0.142 C 
ENDROOT
BRANCH   1  15
ATOM     11  C   UNL     1      -0.856   0.953  -0.944  0.00  0.00    +0.044 C 
ATOM     12  C   UNL     1      -0.690  -0.528  -0.724  0.00  0.00    -0.047 A 
ATOM     13  C   UNL     1      -1.621  -1.410  -1.246  0.00  0.00    +0.007 A 
ATOM     14  C   UNL     1      -1.476  -2.769  -1.049  0.00  0.00    -0.037 A 
ATOM     15  C   UNL     1      -0.391  -3.255  -0.325  0.00  0.00    +0.047 A 
ATOM     16  C   UNL     1       0.547  -2.362   0.201  0.00  0.00    +0.127 A 
ATOM     17  C   UNL     1       0.393  -1.001  -0.008  0.00  0.00    +0.049 A 
ATOM     18  C   UNL     1      -2.492  -3.725  -1.619  0.00  0.00    +0.044 C 
BRANCH  16  19
ATOM     19  O   UNL     1       1.609  -2.827   0.909  0.00  0.00    -0.506 OA
ATOM     20  H   UNL     1       2.411  -2.946   0.383  0.00  0.00    +0.292 HD
ENDBRANCH  16  19
ENDBRANCH   1  15
BRANCH  10  21
ATOM     21  C   UNL     1      -0.889  -4.571   3.256  0.00  0.00    -0.018 A 
ATOM     22  C   UNL     1      -0.823  -3.256   3.678  0.00  0.00    +0.055 A 
ATOM     23  C   UNL     1      -1.916  -2.671   4.298  0.00  0.00    +0.163 A 
ATOM     24  C   UNL     1      -3.078  -3.410   4.495  0.00  0.00    +0.173 A 
ATOM     25  C   UNL     1      -3.138  -4.728   4.069  0.00  0.00    +0.063 A 
ATOM     26  C   UNL     1      -2.045  -5.304   3.446  0.00  0.00    +0.025 A 
ATOM     27 BR   UNL     1      -4.716  -5.736   4.334  0.00  0.00    -0.046 Br
BRANCH  24  28
ATOM     28  O   UNL     1      -4.153  -2.841   5.104  0.00  0.00    -0.503 OA
ATOM     29  H   UNL     1      -4.767  -2.409   4.494  0.00  0.00    +0.292 HD
ENDBRANCH  24  28
BRANCH  23  30
ATOM     30  O   UNL     1      -1.852  -1.378   4.714  0.00  0.00    -0.491 OA
ATOM     31  C   UNL     1      -0.627  -0.681   4.480  0.00  0.00    +0.277 C 
ENDBRANCH  23  30
ENDBRANCH  10  21
BRANCH   9  32
ATOM     32  C   UNL     1       0.787  -6.925   4.485  0.00  0.00    +0.135 C 
BRANCH  32  33
ATOM     33  C   UNL     1       2.277  -6.934   4.710  0.00  0.00    -0.016 C 
ATOM     34  C   UNL     1       2.799  -6.209   5.667  0.00  0.00    +0.005 C 
ENDBRANCH  32  33
ENDBRANCH   9  32
TORSDOF 7
