REMARK  Name = ZINC44411025
REMARK  10 active torsions:
REMARK  status: ('A' for Active; 'I' for Inactive)
REMARK    1  A    between atoms: C_1  and  C_2
REMARK    2  A    between atoms: C_4  and  O_29
REMARK    3  A    between atoms: C_5  and  C_24
REMARK    4  A    between atoms: C_12  and  C_23
REMARK    5  A    between atoms: C_13  and  O_21
REMARK    6  A    between atoms: C_15  and  C_18
REMARK    7  A    between atoms: O_21  and  C_22
REMARK    8  A    between atoms: C_24  and  C_25
REMARK    9  A    between atoms: C_25  and  C_27
REMARK   10  A    between atoms: C_25  and  N_28
REMARK                            x       y       z     vdW  Elec       q    Type
REMARK                         _______ _______ _______ _____ _____    ______ ____
ROOT
ATOM      1  C   UNL     1       1.013   0.976  -1.707  0.00  0.00    +0.045 C 
ATOM      2  C   UNL     1       0.946  -0.485  -1.346  0.00  0.00    -0.029 A 
ATOM      3  C   UNL     1       1.186  -1.449  -2.302  0.00  0.00    +0.050 A 
ATOM      4  C   UNL     1       1.121  -2.799  -1.970  0.00  0.00    +0.124 A 
ATOM      5  C   UNL     1       0.779  -3.192  -0.682  0.00  0.00    +0.035 A 
ATOM      6  C   UNL     1       0.507  -2.235   0.276  0.00  0.00    +0.149 A 
ATOM      7  C   UNL     1       0.645  -0.873  -0.042  0.00  0.00    +0.105 A 
ATOM      8  C   UNL     1       0.522   0.111   1.046  0.00  0.00    +0.348 C 
ATOM      9  O   UNL     1      -0.324   0.982   1.004  0.00  0.00    -0.244 OA
ATOM     10  O   UNL     1       1.366   0.024   2.085  0.00  0.00    -0.418 OA
ATOM     11  C   UNL     1       1.392  -1.055   2.910  0.00  0.00    +0.181 A 
ATOM     12  C   UNL     1       2.068  -0.875   4.117  0.00  0.00    +0.037 A 
ATOM     13  C   UNL     1       2.180  -1.904   5.037  0.00  0.00    +0.127 A 
ATOM     14  C   UNL     1       1.618  -3.136   4.765  0.00  0.00    +0.065 A 
ATOM     15  C   UNL     1       0.933  -3.329   3.565  0.00  0.00    +0.112 A 
ATOM     16  C   UNL     1       0.811  -2.278   2.630  0.00  0.00    +0.185 A 
ATOM     17  O   UNL     1       0.086  -2.558   1.514  0.00  0.00    -0.450 OA
ATOM     18  C   UNL     1       2.687   0.464   4.424  0.00  0.00    +0.051 C 
ENDROOT
BRANCH  15  19
ATOM     19  C   UNL     1       0.334  -4.641   3.270  0.00  0.00    +0.390 C 
ATOM     20  O   UNL     1       0.546  -5.591   4.011  0.00  0.00    -0.240 OA
ATOM     21  O   UNL     1      -0.377  -4.781   2.284  0.00  0.00    -0.240 OA
ENDBRANCH  15  19
BRANCH  13  22
ATOM     22  O   UNL     1       2.844  -1.701   6.207  0.00  0.00    -0.495 OA
ATOM     23  C   UNL     1       2.920  -2.807   7.109  0.00  0.00    +0.277 C 
ENDBRANCH  13  22
BRANCH   4  24
ATOM     24  O   UNL     1       1.395  -3.738  -2.910  0.00  0.00    -0.506 OA
ATOM     25  H   UNL     1       2.327  -3.994  -2.951  0.00  0.00    +0.292 HD
ENDBRANCH   4  24
BRANCH   5  26
ATOM     26  C   UNL     1       0.703  -4.655  -0.332  0.00  0.00    +0.026 C 
BRANCH  26  27
ATOM     27  C   UNL     1      -0.746  -5.134  -0.454  0.00  0.00    -0.074 C 
ATOM     28  C   UNL     1      -0.830  -6.609  -0.054  0.00  0.00    -0.014 C 
BRANCH  27  29
ATOM     29  N   UNL     1      -1.198  -4.977  -1.842  0.00  0.00    +0.380 N 
ATOM     30  H   UNL     1      -1.227  -3.996  -2.078  0.00  0.00    -0.090 HD
ATOM     31  H   UNL     1      -0.558  -5.452  -2.461  0.00  0.00    -0.090 HD
ATOM     32  H   UNL     1      -2.120  -5.374  -1.942  0.00  0.00    -0.090 HD
ENDBRANCH  27  29
ENDBRANCH  26  27
ENDBRANCH   5  26
TORSDOF 6
