REMARK  Name = ZINC36026379
REMARK  8 active torsions:
REMARK  status: ('A' for Active; 'I' for Inactive)
REMARK    1  A    between atoms: C_1  and  O_2
REMARK    2  A    between atoms: O_2  and  C_3
REMARK    3  A    between atoms: C_7  and  C_9
REMARK    4  A    between atoms: C_18  and  C_31
REMARK    5  A    between atoms: N_22  and  C_23
REMARK    6  A    between atoms: C_23  and  C_24
REMARK    7  A    between atoms: C_24  and  C_25
REMARK    8  A    between atoms: C_31  and  C_32
REMARK                            x       y       z     vdW  Elec       q    Type
REMARK                         _______ _______ _______ _____ _____    ______ ____
ROOT
ATOM      1  C   UNL     1       1.863  -4.160  -1.775  0.00  0.00    +0.247 C 
ATOM      2  O   UNL     1       1.581  -4.871  -0.829  0.00  0.00    -0.270 OA
ATOM      3  N   UNL     1       2.166  -4.713  -2.966  0.00  0.00    -0.298 N 
ATOM      4  C   UNL     1       2.593  -3.873  -4.093  0.00  0.00    +0.108 C 
ATOM      5  C   UNL     1       1.695  -4.172  -5.298  0.00  0.00    +0.025 C 
ATOM      6  C   UNL     1       1.709  -5.673  -5.581  0.00  0.00    +0.006 C 
ATOM      7  C   UNL     1       1.181  -6.446  -4.374  0.00  0.00    +0.025 C 
ATOM      8  C   UNL     1       2.081  -6.167  -3.159  0.00  0.00    +0.108 C 
ATOM      9  N   UNL     1       0.873  -5.966  -6.765  0.00  0.00    +0.401 N 
ATOM     10  C   UNL     1       1.847  -5.923  -7.883  0.00  0.00    +0.023 C 
ATOM     11  C   UNL     1       3.178  -6.264  -7.248  0.00  0.00    +0.201 C 
ATOM     12  O   UNL     1       4.176  -6.614  -7.841  0.00  0.00    -0.277 OA
ATOM     13  N   UNL     1       3.066  -6.114  -5.912  0.00  0.00    -0.313 N 
ATOM     14  H   UNL     1       0.457  -6.882  -6.690  0.00  0.00    -0.082 HD
ATOM     15  H   UNL     1       0.163  -5.259  -6.883  0.00  0.00    -0.082 HD
ENDROOT
BRANCH   1  20
ATOM     16  C   UNL     1       0.792  -0.661  -0.914  0.00  0.00    +0.121 A 
ATOM     17  C   UNL     1       1.900   0.067  -1.327  0.00  0.00    +0.045 A 
ATOM     18  C   UNL     1       2.989  -0.578  -1.883  0.00  0.00    +0.004 A 
ATOM     19  C   UNL     1       2.983  -1.950  -2.031  0.00  0.00    +0.013 A 
ATOM     20  C   UNL     1       1.874  -2.690  -1.618  0.00  0.00    +0.040 A 
ATOM     21  C   UNL     1       0.778  -2.039  -1.051  0.00  0.00    +0.058 A 
BRANCH  16  23
ATOM     22  C   UNL     1      -0.193   1.400  -0.256  0.00  0.00    +0.277 C 
ATOM     23  O   UNL     1      -0.276  -0.022  -0.368  0.00  0.00    -0.495 OA
ENDBRANCH  16  23
ENDBRANCH   1  20
BRANCH  13  24
ATOM     24  C   UNL     1       4.138  -6.354  -4.942  0.00  0.00    +0.112 C 
BRANCH  24  25
ATOM     25  C   UNL     1       4.123  -7.824  -4.518  0.00  0.00    +0.074 C 
BRANCH  25  26
ATOM     26  C   UNL     1       5.129  -8.040  -3.417  0.00  0.00    +0.043 A 
ATOM     27  C   UNL     1       4.725  -8.609  -2.225  0.00  0.00    +0.023 A 
ATOM     28  C   UNL     1       5.659  -8.804  -1.218  0.00  0.00    +0.003 A 
ATOM     29  C   UNL     1       6.970  -8.416  -1.451  0.00  0.00    +0.020 A 
ATOM     30  C   UNL     1       7.299  -7.852  -2.668  0.00  0.00    +0.111 A 
ATOM     31  N   UNL     1       6.386  -7.687  -3.605  0.00  0.00    -0.260 NA
ENDBRANCH  25  26
ENDBRANCH  24  25
ENDBRANCH  13  24
BRANCH  10  32
ATOM     32  C   UNL     1       1.481  -6.957  -8.948  0.00  0.00    +0.028 C 
BRANCH  32  33
ATOM     33  C   UNL     1       0.158  -6.590  -9.571  0.00  0.00    -0.048 A 
ATOM     34  C   UNL     1      -1.019  -7.068  -9.026  0.00  0.00    +0.003 A 
ATOM     35  C   UNL     1      -2.232  -6.731  -9.598  0.00  0.00    +0.000 A 
ATOM     36  C   UNL     1      -2.267  -5.917 -10.714  0.00  0.00    +0.000 A 
ATOM     37  C   UNL     1      -1.090  -5.439 -11.259  0.00  0.00    +0.000 A 
ATOM     38  C   UNL     1       0.122  -5.772 -10.685  0.00  0.00    +0.003 A 
ENDBRANCH  32  33
ENDBRANCH  10  32
TORSDOF 7
