REMARK  Name = ZINC36571520
REMARK  12 active torsions:
REMARK  status: ('A' for Active; 'I' for Inactive)
REMARK    1  A    between atoms: C_1  and  C_2
REMARK    2  A    between atoms: C_2  and  C_3
REMARK    3  A    between atoms: C_3  and  N_4
REMARK    4  A    between atoms: N_4  and  C_5
REMARK    5  A    between atoms: C_5  and  C_7
REMARK    6  A    between atoms: C_5  and  C_16
REMARK    7  A    between atoms: C_8  and  O_15
REMARK    8  A    between atoms: C_10  and  O_14
REMARK    9  A    between atoms: C_12  and  O_13
REMARK   10  A    between atoms: N_18  and  C_19
REMARK   11  A    between atoms: C_25  and  C_27
REMARK   12  A    between atoms: C_27  and  C_28
REMARK                            x       y       z     vdW  Elec       q    Type
REMARK                         _______ _______ _______ _____ _____    ______ ____
ROOT
ATOM      1  C   UNL     1      -0.589  -2.369  -2.220  0.00  0.00    +0.199 C 
ENDROOT
BRANCH   1   2
ATOM      2  C   UNL     1      -1.922  -2.448  -1.522  0.00  0.00    +0.065 A 
ATOM      3  C   UNL     1      -2.782  -3.503  -1.786  0.00  0.00    +0.129 A 
ATOM      4  C   UNL     1      -4.008  -3.576  -1.144  0.00  0.00    +0.091 A 
ATOM      5  C   UNL     1      -4.375  -2.594  -0.236  0.00  0.00    +0.124 A 
ATOM      6  C   UNL     1      -3.515  -1.540   0.030  0.00  0.00    +0.091 A 
ATOM      7  C   UNL     1      -2.286  -1.469  -0.610  0.00  0.00    +0.129 A 
BRANCH   7   8
ATOM      8  O   UNL     1      -1.441  -0.438  -0.346  0.00  0.00    -0.506 OA
ATOM      9  H   UNL     1      -1.492   0.286  -0.986  0.00  0.00    +0.292 HD
ENDBRANCH   7   8
BRANCH   5  10
ATOM     10  O   UNL     1      -5.577  -2.665   0.393  0.00  0.00    -0.507 OA
ATOM     11  H   UNL     1      -5.556  -3.152   1.228  0.00  0.00    +0.292 HD
ENDBRANCH   5  10
BRANCH   3  12
ATOM     12  O   UNL     1      -2.422  -4.466  -2.676  0.00  0.00    -0.506 OA
ATOM     13  H   UNL     1      -2.017  -5.244  -2.271  0.00  0.00    +0.292 HD
ENDBRANCH   3  12
ENDBRANCH   1   2
BRANCH   1  14
ATOM     14  C   UNL     1      -0.774  -1.770  -3.590  0.00  0.00    +0.239 C 
ATOM     15  O   UNL     1       0.108  -1.099  -4.083  0.00  0.00    -0.273 OA
ATOM     16  N   UNL     1      -1.921  -1.979  -4.268  0.00  0.00    -0.311 N 
ATOM     17  H   UNL     1      -2.650  -2.462  -3.849  0.00  0.00    +0.149 HD
BRANCH  16  18
ATOM     18  C   UNL     1      -2.064  -1.478  -5.636  0.00  0.00    +0.073 C 
ATOM     19  C   UNL     1      -2.525  -0.019  -5.599  0.00  0.00    +0.022 C 
ATOM     20  C   UNL     1      -2.675   0.505  -7.029  0.00  0.00    +0.002 C 
ATOM     21  C   UNL     1      -3.712  -0.338  -7.774  0.00  0.00    +0.000 C 
ATOM     22  C   UNL     1      -3.251  -1.796  -7.812  0.00  0.00    +0.002 C 
ATOM     23  C   UNL     1      -3.101  -2.321  -6.382  0.00  0.00    +0.022 C 
ENDBRANCH  16  18
ENDBRANCH   1  14
BRANCH   1  24
ATOM     24  N   UNL     1       0.323  -1.529  -1.439  0.00  0.00    -0.285 N 
ATOM     25  C   UNL     1       0.352  -0.197  -1.642  0.00  0.00    +0.221 C 
ATOM     26  O   UNL     1      -0.343   0.301  -2.503  0.00  0.00    -0.275 OA
BRANCH  24  27
ATOM     27  C   UNL     1       1.202  -2.136  -0.437  0.00  0.00    +0.108 C 
BRANCH  27  29
ATOM     28  C   UNL     1       3.521  -2.953   0.007  0.00  0.00    +0.005 C 
ATOM     29  C   UNL     1       2.563  -2.435  -1.068  0.00  0.00    +0.016 C 
ENDBRANCH  27  29
ENDBRANCH  24  27
BRANCH  25  30
ATOM     30  C   UNL     1       1.247   0.675  -0.799  0.00  0.00    +0.132 C 
BRANCH  30  31
ATOM     31  C   UNL     1       1.093   2.112  -1.224  0.00  0.00    -0.019 A 
ATOM     32  C   UNL     1       1.970   2.659  -2.143  0.00  0.00    +0.005 A 
ATOM     33  C   UNL     1       1.831   3.978  -2.533  0.00  0.00    +0.002 A 
ATOM     34  C   UNL     1       0.814   4.751  -2.005  0.00  0.00    +0.021 A 
ATOM     35  C   UNL     1      -0.065   4.206  -1.087  0.00  0.00    +0.060 A 
ATOM     36  C   UNL     1       0.072   2.883  -0.700  0.00  0.00    +0.063 A 
ATOM     37 CL   UNL     1      -1.034   2.195   0.447  0.00  0.00    -0.082 Cl
ATOM     38 CL   UNL     1      -1.342   5.177  -0.423  0.00  0.00    -0.082 Cl
ENDBRANCH  30  31
ENDBRANCH  25  30
ENDBRANCH   1  24
TORSDOF 11
