REMARK  Name = ZINC61678407
REMARK  9 active torsions:
REMARK  status: ('A' for Active; 'I' for Inactive)
REMARK    1  A    between atoms: C_1  and  C_2
REMARK    2  A    between atoms: C_2  and  C_3
REMARK    3  A    between atoms: C_3  and  C_5
REMARK    4  A    between atoms: C_3  and  O_8
REMARK    5  A    between atoms: O_8  and  C_9
REMARK    6  A    between atoms: C_18  and  C_19
REMARK    7  A    between atoms: C_19  and  C_20
REMARK    8  A    between atoms: C_20  and  C_22
REMARK    9  A    between atoms: C_20  and  N_23
REMARK                            x       y       z     vdW  Elec       q    Type
REMARK                         _______ _______ _______ _____ _____    ______ ____
ROOT
ATOM      1  C   UNL     1       0.176   1.123  -2.909  0.00  0.00    +0.125 A 
ATOM      2  C   UNL     1       1.178   1.927  -2.354  0.00  0.00    +0.046 A 
ATOM      3  C   UNL     1       1.413   3.178  -2.830  0.00  0.00    +0.012 A 
ATOM      4  C   UNL     1       0.642   3.676  -3.895  0.00  0.00    -0.017 A 
ATOM      5  C   UNL     1       0.859   4.965  -4.411  0.00  0.00    +0.008 A 
ATOM      6  C   UNL     1       0.093   5.415  -5.442  0.00  0.00    +0.001 A 
ATOM      7  C   UNL     1      -0.906   4.617  -5.997  0.00  0.00    +0.001 A 
ATOM      8  C   UNL     1      -1.144   3.364  -5.523  0.00  0.00    +0.009 A 
ATOM      9  C   UNL     1      -0.374   2.864  -4.458  0.00  0.00    -0.011 A 
ATOM     10  C   UNL     1      -0.589   1.574  -3.947  0.00  0.00    +0.000 A 
ENDROOT
BRANCH   1  11
ATOM     11  O   UNL     1      -0.036  -0.123  -2.412  0.00  0.00    -0.479 OA
BRANCH  11  12
ATOM     12  C   UNL     1       0.882  -0.592  -1.422  0.00  0.00    +0.258 C 
BRANCH  12  13
ATOM     13  C   UNL     1       1.162  -2.055  -1.649  0.00  0.00    +0.251 C 
ATOM     14  O   UNL     1       0.560  -2.661  -2.510  0.00  0.00    -0.272 OA
ATOM     15  N   UNL     1       2.081  -2.690  -0.895  0.00  0.00    -0.326 N 
ATOM     16  H   UNL     1       2.563  -2.205  -0.206  0.00  0.00    +0.145 HD
ATOM     17  H   UNL     1       2.262  -3.632  -1.041  0.00  0.00    +0.145 HD
ENDBRANCH  12  13
BRANCH  12  19
ATOM     18  C   UNL     1       0.107   1.097   0.249  0.00  0.00    +0.008 C 
ATOM     19  C   UNL     1       0.276  -0.398  -0.031  0.00  0.00    +0.051 C 
ENDBRANCH  12  19
ENDBRANCH  11  12
ENDBRANCH   1  11
BRANCH  10  20
ATOM     20  C   UNL     1      -1.660   0.693  -4.537  0.00  0.00    +0.023 C 
BRANCH  20  21
ATOM     21  C   UNL     1      -2.979   0.931  -3.799  0.00  0.00    -0.074 C 
ATOM     22  C   UNL     1      -4.094   0.132  -4.477  0.00  0.00    -0.014 C 
BRANCH  21  23
ATOM     23  N   UNL     1      -2.845   0.497  -2.402  0.00  0.00    +0.380 N 
ATOM     24  H   UNL     1      -3.715   0.654  -1.916  0.00  0.00    -0.090 HD
ATOM     25  H   UNL     1      -2.617  -0.486  -2.376  0.00  0.00    -0.090 HD
ATOM     26  H   UNL     1      -2.110   1.024  -1.955  0.00  0.00    -0.090 HD
ENDBRANCH  21  23
ENDBRANCH  20  21
ENDBRANCH  10  20
TORSDOF 7
