REMARK  Name = ZINC63479827
REMARK  4 active torsions:
REMARK  status: ('A' for Active; 'I' for Inactive)
REMARK    1  A    between atoms: C_1  and  C_2
REMARK    2  A    between atoms: C_5  and  N_8
REMARK    3  A    between atoms: C_13  and  C_30
REMARK    4  A    between atoms: C_30  and  C_31
REMARK                            x       y       z     vdW  Elec       q    Type
REMARK                         _______ _______ _______ _____ _____    ______ ____
ROOT
ATOM      1  N   UNL     1       0.059  -4.172  -0.021  0.00  0.00    -0.210 N 
ATOM      2  C   UNL     1      -0.030  -4.891  -1.146  0.00  0.00    +0.232 C 
ATOM      3  O   UNL     1      -0.133  -4.432  -2.264  0.00  0.00    -0.274 OA
ATOM      4  C   UNL     1       0.018  -6.364  -0.807  0.00  0.00    +0.107 C 
ATOM      5  C   UNL     1      -1.360  -6.995  -1.096  0.00  0.00    +0.072 C 
ATOM      6  N   UNL     1      -1.656  -7.828   0.100  0.00  0.00    -0.295 NA
ATOM      7  C   UNL     1      -1.154  -7.027   1.232  0.00  0.00    +0.136 C 
ATOM      8  C   UNL     1       0.160  -6.370   0.741  0.00  0.00    +0.123 C 
ATOM      9  C   UNL     1       0.172  -4.901   1.096  0.00  0.00    +0.233 C 
ATOM     10  O   UNL     1       0.268  -4.452   2.218  0.00  0.00    -0.274 OA
ATOM     11  C   UNL     1      -2.162  -6.003   1.672  0.00  0.00    +0.003 A 
ATOM     12  C   UNL     1      -2.785  -4.952   1.037  0.00  0.00    +0.008 A 
ATOM     13  C   UNL     1      -3.693  -4.167   1.726  0.00  0.00    +0.000 A 
ATOM     14  C   UNL     1      -3.973  -4.441   3.053  0.00  0.00    +0.002 A 
ATOM     15  C   UNL     1      -3.350  -5.492   3.692  0.00  0.00    +0.023 A 
ATOM     16  C   UNL     1      -2.436  -6.288   3.006  0.00  0.00    +0.039 A 
ATOM     17  N   UNL     1      -1.689  -7.390   3.428  0.00  0.00    -0.283 N 
ATOM     18  C   UNL     1      -0.911  -7.883   2.445  0.00  0.00    +0.243 C 
ATOM     19  O   UNL     1      -0.161  -8.832   2.523  0.00  0.00    -0.273 OA
ATOM     20  H   UNL     1      -2.647  -7.997   0.188  0.00  0.00    +0.124 HD
ATOM     21  H   UNL     1      -1.726  -7.758   4.325  0.00  0.00    +0.155 HD
ENDROOT
BRANCH   1  26
ATOM     22  C   UNL     1      -0.016   1.503   0.009  0.00  0.00    +0.044 C 
ATOM     23  C   UNL     1       0.004  -0.004   0.001  0.00  0.00    -0.050 A 
ATOM     24  C   UNL     1       1.153  -0.681   0.365  0.00  0.00    +0.005 A 
ATOM     25  C   UNL     1       1.175  -2.062   0.358  0.00  0.00    +0.024 A 
ATOM     26  C   UNL     1       0.040  -2.771  -0.013  0.00  0.00    +0.044 A 
ATOM     27  C   UNL     1      -1.113  -2.088  -0.378  0.00  0.00    +0.024 A 
ATOM     28  C   UNL     1      -1.129  -0.707  -0.365  0.00  0.00    +0.005 A 
ENDBRANCH   1  26
BRANCH   5  29
ATOM     29  C   UNL     1      -1.295  -7.867  -2.352  0.00  0.00    +0.052 C 
BRANCH  29  30
ATOM     30  C   UNL     1      -2.674  -8.373  -2.684  0.00  0.00    -0.040 C 
ATOM     31  C   UNL     1      -3.553  -7.826  -3.555  0.00  0.00    -0.001 A 
ATOM     32  C   UNL     1      -3.491  -6.641  -4.418  0.00  0.00    +0.010 A 
ATOM     33  C   UNL     1      -4.554  -6.340  -5.197  0.00  0.00    +0.001 A 
ATOM     34  C   UNL     1      -5.713  -7.130  -5.201  0.00  0.00    +0.002 A 
ATOM     35  C   UNL     1      -5.845  -8.234  -4.435  0.00  0.00    +0.026 A 
ATOM     36  C   UNL     1      -4.787  -8.644  -3.577  0.00  0.00    +0.043 A 
ATOM     37  N   UNL     1      -4.675  -9.657  -2.752  0.00  0.00    -0.380 N 
ATOM     38  C   UNL     1      -3.354  -9.600  -2.118  0.00  0.00    +0.144 C 
ATOM     39  H   UNL     1      -5.352 -10.334  -2.592  0.00  0.00    +0.160 HD
ENDBRANCH  29  30
ENDBRANCH   5  29
TORSDOF 3
