REMARK  Name = ZINC00664763
REMARK  6 active torsions:
REMARK  status: ('A' for Active; 'I' for Inactive)
REMARK    1  A    between atoms: C_1  and  C_2
REMARK    2  A    between atoms: C_5  and  C_9
REMARK    3  A    between atoms: C_7  and  C_8
REMARK    4  A    between atoms: C_16  and  N_32
REMARK    5  A    between atoms: C_17  and  C_30
REMARK    6  A    between atoms: C_18  and  C_20
REMARK                            x       y       z     vdW  Elec       q    Type
REMARK                         _______ _______ _______ _____ _____    ______ ____
ROOT
ATOM      1  C   UNL     1       0.183  -4.600  -0.117  0.00  0.00    +0.074 A 
ATOM      2  C   UNL     1      -0.775  -5.257  -0.814  0.00  0.00    +0.054 A 
ATOM      3  C   UNL     1      -0.580  -6.639  -0.629  0.00  0.00    +0.245 A 
ATOM      4  N   UNL     1       0.453  -6.807   0.146  0.00  0.00    -0.135 NA
ATOM      5  N   UNL     1       0.964  -5.545   0.486  0.00  0.00    -0.273 N 
ATOM      6  H   UNL     1       1.734  -5.373   1.051  0.00  0.00    +0.189 HD
ATOM      7  O   UNL     1      -1.393  -7.566  -1.207  0.00  0.00    -0.421 OA
ATOM      8  C   UNL     1      -2.551  -7.129  -1.740  0.00  0.00    +0.201 C 
ATOM      9  C   UNL     1      -2.845  -5.833  -1.975  0.00  0.00    +0.098 C 
ATOM     10  C   UNL     1      -1.891  -4.707  -1.665  0.00  0.00    +0.102 C 
ENDROOT
BRANCH  10  11
ATOM     11  C   UNL     1      -1.327  -4.151  -2.947  0.00  0.00    -0.034 A 
ATOM     12  C   UNL     1      -0.567  -4.973  -3.776  0.00  0.00    +0.005 A 
ATOM     13  C   UNL     1      -0.042  -4.503  -4.940  0.00  0.00    +0.009 A 
ATOM     14  C   UNL     1      -0.270  -3.167  -5.316  0.00  0.00    -0.018 A 
ATOM     15  C   UNL     1       0.254  -2.646  -6.511  0.00  0.00    +0.008 A 
ATOM     16  C   UNL     1       0.013  -1.348  -6.842  0.00  0.00    +0.001 A 
ATOM     17  C   UNL     1      -0.748  -0.525  -6.013  0.00  0.00    +0.001 A 
ATOM     18  C   UNL     1      -1.272  -0.996  -4.848  0.00  0.00    +0.008 A 
ATOM     19  C   UNL     1      -1.044  -2.331  -4.473  0.00  0.00    -0.018 A 
ATOM     20  C   UNL     1      -1.573  -2.854  -3.281  0.00  0.00    +0.013 A 
ENDBRANCH  10  11
BRANCH   1  25
ATOM     21  C   UNL     1       0.853   1.107   0.223  0.00  0.00    +0.044 C 
ATOM     22  C   UNL     1       0.677  -0.387   0.134  0.00  0.00    -0.047 A 
ATOM     23  C   UNL     1      -0.575  -0.946   0.316  0.00  0.00    +0.004 A 
ATOM     24  C   UNL     1      -0.743  -2.313   0.236  0.00  0.00    +0.010 A 
ATOM     25  C   UNL     1       0.355  -3.133  -0.030  0.00  0.00    +0.000 A 
ATOM     26  C   UNL     1       1.615  -2.563  -0.214  0.00  0.00    +0.013 A 
ATOM     27  C   UNL     1       1.768  -1.194  -0.136  0.00  0.00    -0.047 A 
ATOM     28  C   UNL     1       3.128  -0.577  -0.340  0.00  0.00    +0.044 C 
ENDBRANCH   1  25
BRANCH   8  29
ATOM     29  N   UNL     1      -3.497  -8.068  -2.067  0.00  0.00    -0.328 N 
ATOM     30  H   UNL     1      -3.320  -9.009  -1.913  0.00  0.00    +0.145 HD
ATOM     31  H   UNL     1      -4.343  -7.791  -2.453  0.00  0.00    +0.145 HD
ENDBRANCH   8  29
BRANCH   9  32
ATOM     32  C   UNL     1      -4.119  -5.513  -2.544  0.00  0.00    +0.101 C 
ATOM     33  N   UNL     1      -5.130  -5.260  -2.995  0.00  0.00    -0.191 NA
ENDBRANCH   9  32
TORSDOF 4
