REMARK  Name = ZINC36494402
REMARK  13 active torsions:
REMARK  status: ('A' for Active; 'I' for Inactive)
REMARK    1  A    between atoms: C_1  and  C_2
REMARK    2  A    between atoms: C_2  and  C_3
REMARK    3  A    between atoms: C_2  and  C_4
REMARK    4  A    between atoms: C_2  and  N_5
REMARK    5  A    between atoms: C_6  and  C_8
REMARK    6  A    between atoms: C_8  and  C_10
REMARK    7  A    between atoms: C_8  and  N_19
REMARK    8  A    between atoms: C_11  and  O_18
REMARK    9  A    between atoms: C_13  and  O_17
REMARK   10  A    between atoms: C_15  and  O_16
REMARK   11  A    between atoms: N_19  and  C_20
REMARK   12  A    between atoms: C_20  and  C_21
REMARK   13  A    between atoms: C_26  and  C_28
REMARK                            x       y       z     vdW  Elec       q    Type
REMARK                         _______ _______ _______ _____ _____    ______ ____
ROOT
ATOM      1  C   UNL     1       2.162  -0.357  -3.227  0.00  0.00    +0.200 C 
ENDROOT
BRANCH   1   2
ATOM      2  C   UNL     1       1.616  -1.754  -3.373  0.00  0.00    +0.065 A 
ATOM      3  C   UNL     1       2.270  -2.821  -2.776  0.00  0.00    +0.129 A 
ATOM      4  C   UNL     1       1.767  -4.106  -2.911  0.00  0.00    +0.091 A 
ATOM      5  C   UNL     1       0.610  -4.325  -3.643  0.00  0.00    +0.124 A 
ATOM      6  C   UNL     1      -0.045  -3.258  -4.239  0.00  0.00    +0.091 A 
ATOM      7  C   UNL     1       0.455  -1.972  -4.101  0.00  0.00    +0.129 A 
BRANCH   7   8
ATOM      8  O   UNL     1      -0.189  -0.926  -4.681  0.00  0.00    -0.506 OA
ATOM      9  H   UNL     1       0.104  -0.734  -5.582  0.00  0.00    +0.292 HD
ENDBRANCH   7   8
BRANCH   5  10
ATOM     10  O   UNL     1       0.117  -5.584  -3.776  0.00  0.00    -0.507 OA
ATOM     11  H   UNL     1      -0.508  -5.837  -3.083  0.00  0.00    +0.292 HD
ENDBRANCH   5  10
BRANCH   3  12
ATOM     12  O   UNL     1       3.404  -2.607  -2.059  0.00  0.00    -0.506 OA
ATOM     13  H   UNL     1       3.256  -2.510  -1.109  0.00  0.00    +0.292 HD
ENDBRANCH   3  12
ENDBRANCH   1   2
BRANCH   1  15
ATOM     14  N   UNL     1       1.193  -0.024  -0.976  0.00  0.00    -0.309 N 
ATOM     15  C   UNL     1       2.286  -0.017  -1.764  0.00  0.00    +0.239 C 
ATOM     16  O   UNL     1       3.369   0.262  -1.296  0.00  0.00    -0.273 OA
ATOM     17  H   UNL     1       0.326  -0.247  -1.350  0.00  0.00    +0.149 HD
BRANCH  14  19
ATOM     18  C   UNL     1       1.868   1.725   0.595  0.00  0.00    +0.031 C 
ATOM     19  C   UNL     1       1.313   0.307   0.447  0.00  0.00    +0.026 C 
ATOM     20  C   UNL     1       2.261  -0.685   1.122  0.00  0.00    +0.031 C 
ATOM     21  C   UNL     1      -0.065   0.227   1.107  0.00  0.00    +0.031 C 
ENDBRANCH  14  19
ENDBRANCH   1  15
BRANCH   1  22
ATOM     22  N   UNL     1       3.481  -0.280  -3.859  0.00  0.00    -0.278 N 
ATOM     23  C   UNL     1       4.237   0.826  -3.710  0.00  0.00    +0.220 C 
ATOM     24  O   UNL     1       3.888   1.700  -2.945  0.00  0.00    -0.275 OA
BRANCH  23  25
ATOM     25  C   UNL     1       5.516   0.977  -4.493  0.00  0.00    +0.075 C 
ATOM     26  C   UNL     1       6.613   0.131  -3.844  0.00  0.00    +0.013 C 
ATOM     27  C   UNL     1       7.912   0.284  -4.639  0.00  0.00    +0.001 C 
ATOM     28  C   UNL     1       8.336   1.754  -4.644  0.00  0.00    +0.000 C 
ATOM     29  C   UNL     1       7.238   2.599  -5.293  0.00  0.00    +0.001 C 
ATOM     30  C   UNL     1       5.940   2.446  -4.498  0.00  0.00    +0.013 C 
ENDBRANCH  23  25
BRANCH  22  31
ATOM     31  C   UNL     1       3.979  -1.405  -4.655  0.00  0.00    +0.183 C 
BRANCH  31  32
ATOM     32  C   UNL     1       3.709  -1.147  -6.115  0.00  0.00    +0.122 A 
ATOM     33  C   UNL     1       4.580  -0.622  -6.995  0.00  0.00    +0.046 A 
ATOM     34  C   UNL     1       3.914  -0.556  -8.241  0.00  0.00    +0.041 A 
ATOM     35  C   UNL     1       2.676  -1.046  -8.047  0.00  0.00    +0.195 A 
ATOM     36  O   UNL     1       2.559  -1.407  -6.759  0.00  0.00    -0.466 OA
ENDBRANCH  31  32
ENDBRANCH  22  31
ENDBRANCH   1  22
TORSDOF 10
