REMARK  Name = ZINC08981766
REMARK  8 active torsions:
REMARK  status: ('A' for Active; 'I' for Inactive)
REMARK    1  A    between atoms: C_1  and  C_2
REMARK    2  A    between atoms: C_5  and  C_8
REMARK    3  A    between atoms: N_14  and  C_15
REMARK    4  A    between atoms: C_15  and  C_16
REMARK    5  A    between atoms: C_16  and  C_17
REMARK    6  A    between atoms: N_19  and  C_20
REMARK    7  A    between atoms: C_20  and  C_22
REMARK    8  A    between atoms: C_20  and  C_23
REMARK                            x       y       z     vdW  Elec       q    Type
REMARK                         _______ _______ _______ _____ _____    ______ ____
ROOT
ATOM      1  C   UNL     1      -3.731  -0.722   1.807  0.00  0.00    +0.117 C 
ENDROOT
BRANCH   1   2
ATOM      2  C   UNL     1      -2.308  -0.228   1.807  0.00  0.00    +0.215 C 
ATOM      3  O   UNL     1      -1.420  -0.934   2.236  0.00  0.00    -0.276 OA
ATOM      4  N   UNL     1      -2.020   1.000   1.329  0.00  0.00    -0.309 N 
ATOM      5  H   UNL     1      -2.730   1.565   0.985  0.00  0.00    +0.149 HD
BRANCH   4   6
ATOM      6  C   UNL     1      -0.636   1.480   1.329  0.00  0.00    +0.100 C 
ATOM      7  C   UNL     1       0.075   0.983   0.069  0.00  0.00    +0.033 C 
BRANCH   6   8
ATOM      8  C   UNL     1      -0.628   2.987   1.349  0.00  0.00    -0.027 A 
ATOM      9  C   UNL     1      -1.540   3.696   0.591  0.00  0.00    +0.006 A 
ATOM     10  C   UNL     1      -1.528   5.075   0.618  0.00  0.00    +0.004 A 
ATOM     11  C   UNL     1      -0.598   5.758   1.391  0.00  0.00    -0.044 A 
ATOM     12  C   UNL     1       0.312   5.052   2.145  0.00  0.00    -0.044 A 
ATOM     13  C   UNL     1       0.294   3.663   2.121  0.00  0.00    +0.009 A 
ATOM     14  C   UNL     1       1.341   5.725   3.014  0.00  0.00    +0.035 C 
ATOM     15  C   UNL     1       1.514   7.187   2.608  0.00  0.00    +0.005 C 
ATOM     16  C   UNL     1       0.128   7.841   2.555  0.00  0.00    +0.005 C 
ATOM     17  C   UNL     1      -0.632   7.264   1.362  0.00  0.00    +0.035 C 
ENDBRANCH   6   8
ENDBRANCH   4   6
ENDBRANCH   1   2
BRANCH   1  18
ATOM     18  C   UNL     1      -3.781  -2.132   2.397  0.00  0.00    +0.135 C 
BRANCH  18  25
ATOM     19  C   UNL     1      -6.053  -2.523   3.452  0.00  0.00    +0.163 A 
ATOM     20  N   UNL     1      -7.187  -3.050   3.086  0.00  0.00    -0.153 NA
ATOM     21  N   UNL     1      -7.047  -3.508   1.768  0.00  0.00    -0.254 N 
ATOM     22  H   UNL     1      -7.730  -3.948   1.238  0.00  0.00    +0.191 HD
ATOM     23  C   UNL     1      -5.790  -3.224   1.371  0.00  0.00    +0.176 A 
ATOM     24  S   UNL     1      -5.109  -3.575  -0.160  0.00  0.00    -0.011 S 
ATOM     25  N   UNL     1      -5.165  -2.613   2.398  0.00  0.00    -0.303 N 
BRANCH  19  30
ATOM     26  C   UNL     1      -4.935  -0.196   8.597  0.00  0.00    +0.044 C 
ATOM     27  C   UNL     1      -5.228  -0.805   7.250  0.00  0.00    -0.050 A 
ATOM     28  C   UNL     1      -6.269  -1.706   7.112  0.00  0.00    +0.004 A 
ATOM     29  C   UNL     1      -6.542  -2.267   5.882  0.00  0.00    +0.012 A 
ATOM     30  C   UNL     1      -5.765  -1.924   4.775  0.00  0.00    +0.019 A 
ATOM     31  C   UNL     1      -4.713  -1.020   4.921  0.00  0.00    +0.012 A 
ATOM     32  C   UNL     1      -4.454  -0.461   6.155  0.00  0.00    +0.004 A 
ENDBRANCH  19  30
ENDBRANCH  18  25
ENDBRANCH   1  18
TORSDOF 6
