REMARK  Name = ZINC35486335
REMARK  15 active torsions:
REMARK  status: ('A' for Active; 'I' for Inactive)
REMARK    1  A    between atoms: C_1  and  C_2
REMARK    2  A    between atoms: C_2  and  N_3
REMARK    3  A    between atoms: N_3  and  C_4
REMARK    4  A    between atoms: N_3  and  C_6
REMARK    5  A    between atoms: C_4  and  C_5
REMARK    6  A    between atoms: C_6  and  C_7
REMARK    7  A    between atoms: C_7  and  N_8
REMARK    8  A    between atoms: C_9  and  C_26
REMARK    9  A    between atoms: C_16  and  C_25
REMARK   10  A    between atoms: C_17  and  C_24
REMARK   11  A    between atoms: C_29  and  O_34
REMARK   12  A    between atoms: C_30  and  O_32
REMARK   13  A    between atoms: O_32  and  C_33
REMARK   14  A    between atoms: O_34  and  C_35
REMARK   15  A    between atoms: C_35  and  C_36
REMARK                            x       y       z     vdW  Elec       q    Type
REMARK                         _______ _______ _______ _____ _____    ______ ____
ROOT
ATOM      1  N   UNL     1      -3.382  -3.467  -0.302  0.00  0.00    -0.285 N 
ATOM      2  C   UNL     1      -3.305  -4.353  -1.475  0.00  0.00    +0.145 C 
ATOM      3  C   UNL     1      -3.540  -5.734  -0.959  0.00  0.00    +0.072 A 
ATOM      4  C   UNL     1      -3.592  -7.028  -1.648  0.00  0.00    +0.199 A 
ATOM      5  O   UNL     1      -3.263  -7.178  -2.812  0.00  0.00    -0.287 OA
ATOM      6  C   UNL     1      -4.083  -8.138  -0.793  0.00  0.00    +0.065 A 
ATOM      7  C   UNL     1      -4.378  -9.382  -1.350  0.00  0.00    +0.019 A 
ATOM      8  C   UNL     1      -4.834 -10.392  -0.550  0.00  0.00    -0.047 A 
ATOM      9  C   UNL     1      -5.004 -10.182   0.811  0.00  0.00    -0.044 A 
ATOM     10  C   UNL     1      -4.716  -8.961   1.379  0.00  0.00    +0.050 A 
ATOM     11  C   UNL     1      -4.247  -7.915   0.584  0.00  0.00    +0.140 A 
ATOM     12  O   UNL     1      -3.961  -6.727   1.164  0.00  0.00    -0.450 OA
ATOM     13  C   UNL     1      -3.730  -5.647   0.391  0.00  0.00    +0.199 A 
ATOM     14  C   UNL     1      -3.626  -4.231   0.782  0.00  0.00    +0.283 C 
ATOM     15  O   UNL     1      -3.744  -3.812   1.917  0.00  0.00    -0.267 OA
ATOM     16  C   UNL     1      -5.511 -11.305   1.679  0.00  0.00    +0.044 C 
ATOM     17  C   UNL     1      -5.154 -11.738  -1.149  0.00  0.00    +0.044 C 
ENDROOT
BRANCH   2  18
ATOM     18  C   UNL     1      -1.941  -4.258  -2.109  0.00  0.00    -0.019 A 
ATOM     19  C   UNL     1      -0.814  -4.185  -1.312  0.00  0.00    +0.009 A 
ATOM     20  C   UNL     1       0.440  -4.098  -1.888  0.00  0.00    +0.050 A 
ATOM     21  C   UNL     1       0.569  -4.085  -3.268  0.00  0.00    +0.162 A 
ATOM     22  C   UNL     1      -0.566  -4.159  -4.070  0.00  0.00    +0.162 A 
ATOM     23  C   UNL     1      -1.819  -4.251  -3.486  0.00  0.00    +0.055 A 
BRANCH  22  24
ATOM     24  O   UNL     1      -0.445  -4.147  -5.425  0.00  0.00    -0.491 OA
ATOM     25  C   UNL     1      -1.652  -4.226  -6.185  0.00  0.00    +0.277 C 
ENDBRANCH  22  24
BRANCH  21  26
ATOM     26  O   UNL     1       1.801  -3.999  -3.837  0.00  0.00    -0.484 OA
BRANCH  26  27
ATOM     27  C   UNL     1       2.920  -3.925  -2.951  0.00  0.00    +0.256 C 
BRANCH  27  28
ATOM     28  C   UNL     1       4.192  -3.836  -3.755  0.00  0.00    +0.006 C 
ATOM     29  C   UNL     1       5.117  -2.970  -3.424  0.00  0.00    +0.007 C 
ENDBRANCH  27  28
ENDBRANCH  26  27
ENDBRANCH  21  26
ENDBRANCH   2  18
BRANCH   1  30
ATOM     30  C   UNL     1      -3.218  -2.011  -0.310  0.00  0.00    +0.090 C 
BRANCH  30  31
ATOM     31  C   UNL     1      -1.742  -1.664  -0.107  0.00  0.00    -0.060 C 
BRANCH  31  32
ATOM     32  N   UNL     1      -1.594  -0.207   0.019  0.00  0.00    +0.380 N 
ATOM     33  H   UNL     1      -2.017   0.243  -0.779  0.00  0.00    -0.082 HD
BRANCH  32  35
ATOM     34  C   UNL     1      -2.214   1.775   1.316  0.00  0.00    -0.017 C 
ATOM     35  C   UNL     1      -2.259   0.248   1.248  0.00  0.00    -0.082 C 
ENDBRANCH  32  35
BRANCH  32  36
ATOM     36  C   UNL     1      -0.168   0.137   0.078  0.00  0.00    -0.082 C 
ATOM     37  C   UNL     1       0.495  -0.202  -1.259  0.00  0.00    -0.017 C 
ENDBRANCH  32  36
ENDBRANCH  31  32
ENDBRANCH  30  31
ENDBRANCH   1  30
TORSDOF 10
