REMARK  Name = ZINC41021796
REMARK  4 active torsions:
REMARK  status: ('A' for Active; 'I' for Inactive)
REMARK    1  A    between atoms: C_6  and  S_11
REMARK    2  A    between atoms: S_11  and  C_12
REMARK    3  A    between atoms: C_15  and  N_20
REMARK    4  A    between atoms: C_17  and  C_18
REMARK                            x       y       z     vdW  Elec       q    Type
REMARK                         _______ _______ _______ _____ _____    ______ ____
ROOT
ATOM      1  S   UNL     1       5.227  -2.844  -0.061  0.00  0.00    -0.088 S 
ENDROOT
BRANCH   1   7
ATOM      2  C   UNL     1       0.014   1.395   0.000  0.00  0.00    +0.001 A 
ATOM      3  C   UNL     1       1.204   2.120  -0.012  0.00  0.00    +0.001 A 
ATOM      4  C   UNL     1       2.409   1.488  -0.026  0.00  0.00    +0.008 A 
ATOM      5  C   UNL     1       2.458   0.083  -0.029  0.00  0.00    -0.017 A 
ATOM      6  C   UNL     1       3.684  -0.602  -0.043  0.00  0.00    +0.023 A 
ATOM      7  C   UNL     1       3.691  -1.980  -0.044  0.00  0.00    +0.013 A 
ATOM      8  C   UNL     1       2.490  -2.701  -0.032  0.00  0.00    +0.015 A 
ATOM      9  C   UNL     1       1.292  -2.060  -0.018  0.00  0.00    +0.009 A 
ATOM     10  C   UNL     1       1.248  -0.655  -0.016  0.00  0.00    -0.018 A 
ATOM     11  C   UNL     1       0.023   0.034  -0.002  0.00  0.00    +0.008 A 
ENDBRANCH   1   7
BRANCH   1  12
ATOM     12  C   UNL     1       5.687  -2.929   1.637  0.00  0.00    +0.030 A 
ATOM     13  C   UNL     1       4.818  -2.470   2.619  0.00  0.00    +0.018 A 
ATOM     14  C   UNL     1       5.178  -2.536   3.949  0.00  0.00    +0.024 A 
ATOM     15  C   UNL     1       6.413  -3.061   4.318  0.00  0.00    +0.026 A 
ATOM     16  C   UNL     1       7.290  -3.521   3.353  0.00  0.00    +0.042 A 
ATOM     17  C   UNL     1       6.932  -3.464   2.003  0.00  0.00    +0.067 A 
BRANCH  15  18
ATOM     18  N   UNL     1       6.768  -3.122   5.671  0.00  0.00    -0.358 N 
ATOM     19  H   UNL     1       6.154  -2.800   6.349  0.00  0.00    +0.142 HD
ATOM     20  H   UNL     1       7.628  -3.488   5.930  0.00  0.00    +0.142 HD
ENDBRANCH  15  18
BRANCH  17  21
ATOM     21  C   UNL     1       7.833  -3.945   0.999  0.00  0.00    +0.100 C 
ATOM     22  N   UNL     1       8.547  -4.325   0.202  0.00  0.00    -0.191 NA
ENDBRANCH  17  21
ENDBRANCH   1  12
TORSDOF 4
