REMARK  Name = ZINC65748322
REMARK  12 active torsions:
REMARK  status: ('A' for Active; 'I' for Inactive)
REMARK    1  A    between atoms: C_1  and  C_2
REMARK    2  A    between atoms: C_2  and  C_3
REMARK    3  A    between atoms: C_2  and  C_34
REMARK    4  A    between atoms: C_2  and  O_38
REMARK    5  A    between atoms: C_9  and  O_32
REMARK    6  A    between atoms: N_15  and  C_28
REMARK    7  A    between atoms: C_23  and  O_26
REMARK    8  A    between atoms: C_28  and  C_29
REMARK    9  A    between atoms: O_32  and  C_33
REMARK   10  A    between atoms: C_34  and  C_35
REMARK   11  A    between atoms: C_34  and  C_36
REMARK   12  A    between atoms: C_34  and  C_37
REMARK                            x       y       z     vdW  Elec       q    Type
REMARK                         _______ _______ _______ _____ _____    ______ ____
ROOT
ATOM      1  C   UNL     1       0.876   0.324   0.764  0.00  0.00    +0.057 C 
ATOM      2  C   UNL     1       2.247   0.913   0.408  0.00  0.00    +0.016 C 
ATOM      3  C   UNL     1       2.518   2.114   1.301  0.00  0.00    -0.021 C 
ATOM      4  C   UNL     1       1.436   3.175   1.062  0.00  0.00    +0.009 C 
ATOM      5  C   UNL     1       0.064   2.596   1.410  0.00  0.00    +0.039 C 
ATOM      6  C   UNL     1       0.210   1.146   1.873  0.00  0.00    +0.112 C 
ATOM      7  C   UNL     1       1.077   1.093   3.133  0.00  0.00    +0.217 C 
ATOM      8  C   UNL     1       2.446   1.671   2.769  0.00  0.00    +0.042 C 
ATOM      9  C   UNL     1       3.586   0.752   3.136  0.00  0.00    -0.003 C 
ATOM     10  C   UNL     1       4.928   1.366   2.729  0.00  0.00    -0.077 C 
ATOM     11  N   UNL     1       4.911   1.693   1.296  0.00  0.00    +0.387 N 
ATOM     12  C   UNL     1       3.894   2.740   1.068  0.00  0.00    +0.011 C 
ATOM     13  C   UNL     1       4.180   3.853   2.065  0.00  0.00    +0.151 C 
ATOM     14  O   UNL     1       5.138   4.580   1.903  0.00  0.00    -0.294 OA
ATOM     15  C   UNL     1       3.303   4.048   3.217  0.00  0.00    +0.023 A 
ATOM     16  C   UNL     1       2.453   2.972   3.515  0.00  0.00    +0.018 A 
ATOM     17  C   UNL     1       1.390   3.008   4.383  0.00  0.00    +0.167 A 
ATOM     18  C   UNL     1       1.287   4.132   5.222  0.00  0.00    +0.159 A 
ATOM     19  C   UNL     1       2.217   5.159   5.041  0.00  0.00    +0.050 A 
ATOM     20  C   UNL     1       3.192   5.149   4.058  0.00  0.00    +0.015 A 
ATOM     21  O   UNL     1       0.561   1.956   4.164  0.00  0.00    -0.481 OA
ATOM     22  H   UNL     1       4.675   0.869   0.763  0.00  0.00    -0.081 HD
ENDROOT
BRANCH   1  24
ATOM     23  C   UNL     1       0.393   1.495  -1.389  0.00  0.00    +0.042 C 
ATOM     24  C   UNL     1      -0.016   0.336  -0.479  0.00  0.00    +0.074 C 
BRANCH  24  25
ATOM     25  C   UNL     1       0.143  -0.986  -1.233  0.00  0.00    -0.009 C 
ATOM     26  C   UNL     1       1.588  -1.127  -1.717  0.00  0.00    +0.013 C 
ATOM     27  C   UNL     1      -0.197  -2.150  -0.299  0.00  0.00    +0.013 C 
ATOM     28  C   UNL     1      -0.802  -1.004  -2.436  0.00  0.00    +0.013 C 
ENDBRANCH  24  25
BRANCH  24  29
ATOM     29  O   UNL     1      -1.380   0.498  -0.084  0.00  0.00    -0.388 OA
ATOM     30  H   UNL     1      -1.707  -0.203   0.496  0.00  0.00    +0.210 HD
ENDBRANCH  24  29
ENDBRANCH   1  24
BRANCH  18  31
ATOM     31  O   UNL     1       0.321   4.215   6.172  0.00  0.00    -0.503 OA
ATOM     32  H   UNL     1       0.581   3.854   7.030  0.00  0.00    +0.292 HD
ENDBRANCH  18  31
BRANCH   6  33
ATOM     33  O   UNL     1      -1.082   0.605   2.156  0.00  0.00    -0.373 OA
ATOM     34  C   UNL     1      -1.792   1.303   3.182  0.00  0.00    +0.194 C 
ENDBRANCH   6  33
BRANCH  11  35
ATOM     35  C   UNL     1       6.232   2.189   0.887  0.00  0.00    -0.074 C 
BRANCH  35  36
ATOM     36  C   UNL     1       7.265   1.070   1.032  0.00  0.00    -0.028 C 
ATOM     37  C   UNL     1       8.394   1.279   2.044  0.00  0.00    +0.002 C 
ATOM     38  C   UNL     1       8.687   1.354   0.544  0.00  0.00    +0.002 C 
ENDBRANCH  35  36
ENDBRANCH  11  35
TORSDOF 7
