REMARK  Name = ZINC39421210
REMARK  9 active torsions:
REMARK  status: ('A' for Active; 'I' for Inactive)
REMARK    1  A    between atoms: C_1  and  C_2
REMARK    2  A    between atoms: C_7  and  N_8
REMARK    3  A    between atoms: C_9  and  C_32
REMARK    4  A    between atoms: C_11  and  C_15
REMARK    5  A    between atoms: C_15  and  C_17
REMARK    6  A    between atoms: C_15  and  N_18
REMARK    7  A    between atoms: C_19  and  C_21
REMARK    8  A    between atoms: C_21  and  C_22
REMARK    9  A    between atoms: C_22  and  C_23
REMARK                            x       y       z     vdW  Elec       q    Type
REMARK                         _______ _______ _______ _____ _____    ______ ____
ROOT
ATOM      1  C   UNL     1      -1.469   2.117   4.521  0.00  0.00    +0.076 C 
ATOM      2  C   UNL     1      -2.974   1.863   4.423  0.00  0.00    +0.028 C 
ENDROOT
BRANCH   1   5
ATOM      3  N   UNL     1       0.162   0.024   2.577  0.00  0.00    -0.264 N 
ATOM      4  C   UNL     1      -1.003  -0.141   3.461  0.00  0.00    +0.094 C 
ATOM      5  C   UNL     1      -0.735   0.783   4.673  0.00  0.00    +0.046 C 
ATOM      6  C   UNL     1       0.802   0.975   4.570  0.00  0.00    +0.109 C 
ATOM      7  N   UNL     1       1.014   0.961   3.102  0.00  0.00    -0.239 NA
ATOM      8  C   UNL     1      -1.121  -1.596   3.917  0.00  0.00    +0.030 C 
ATOM      9  H   UNL     1       0.838   1.872   2.705  0.00  0.00    +0.144 HD
BRANCH   3  16
ATOM     10  C   UNL     1      -0.671   1.238   0.144  0.00  0.00    +0.046 C 
ATOM     11  C   UNL     1      -0.019  -0.120   0.175  0.00  0.00    -0.028 A 
ATOM     12  C   UNL     1       0.196  -0.812  -1.001  0.00  0.00    +0.005 A 
ATOM     13  C   UNL     1       0.794  -2.058  -0.973  0.00  0.00    +0.000 A 
ATOM     14  C   UNL     1       1.179  -2.616   0.232  0.00  0.00    +0.002 A 
ATOM     15  C   UNL     1       0.968  -1.930   1.412  0.00  0.00    +0.025 A 
ATOM     16  C   UNL     1       0.373  -0.675   1.387  0.00  0.00    +0.048 A 
ENDBRANCH   3  16
ENDBRANCH   1   5
BRANCH   1  17
ATOM     17  N   UNL     1      -1.191   2.962   5.685  0.00  0.00    -0.312 N 
ATOM     18  C   UNL     1      -1.280   4.303   5.581  0.00  0.00    +0.214 C 
ATOM     19  O   UNL     1      -1.590   4.810   4.523  0.00  0.00    -0.276 OA
ATOM     20  H   UNL     1      -0.943   2.557   6.531  0.00  0.00    +0.149 HD
BRANCH  18  21
ATOM     21  C   UNL     1      -0.994   5.173   6.778  0.00  0.00    +0.100 C 
BRANCH  21  22
ATOM     22  C   UNL     1      -1.165   6.643   6.393  0.00  0.00    +0.046 C 
BRANCH  22  23
ATOM     23  C   UNL     1      -0.879   7.513   7.590  0.00  0.00    -0.022 A 
ATOM     24  C   UNL     1       0.436   7.983   8.031  0.00  0.00    +0.003 A 
ATOM     25  C   UNL     1       1.737   7.812   7.556  0.00  0.00    +0.010 A 
ATOM     26  C   UNL     1       2.782   8.400   8.212  0.00  0.00    +0.001 A 
ATOM     27  C   UNL     1       2.560   9.164   9.349  0.00  0.00    +0.002 A 
ATOM     28  C   UNL     1       1.284   9.345   9.836  0.00  0.00    +0.026 A 
ATOM     29  C   UNL     1       0.205   8.757   9.183  0.00  0.00    +0.047 A 
ATOM     30  N   UNL     1      -1.152   8.749   9.413  0.00  0.00    -0.360 N 
ATOM     31  C   UNL     1      -1.782   8.008   8.451  0.00  0.00    +0.087 A 
ATOM     32  H   UNL     1      -1.596   9.205  10.145  0.00  0.00    +0.165 HD
ENDBRANCH  22  23
ENDBRANCH  21  22
ENDBRANCH  18  21
ENDBRANCH   1  17
TORSDOF 6
