REMARK  Name = ZINC03516648
REMARK  8 active torsions:
REMARK  status: ('A' for Active; 'I' for Inactive)
REMARK    1  A    between atoms: C_1  and  C_2
REMARK    2  A    between atoms: C_2  and  N_3
REMARK    3  A    between atoms: C_7  and  C_9
REMARK    4  A    between atoms: C_9  and  S_10
REMARK    5  A    between atoms: S_10  and  C_11
REMARK    6  A    between atoms: C_19  and  C_23
REMARK    7  A    between atoms: N_26  and  C_27
REMARK    8  A    between atoms: C_27  and  C_28
REMARK                            x       y       z     vdW  Elec       q    Type
REMARK                         _______ _______ _______ _____ _____    ______ ____
ROOT
ATOM      1  C   UNL     1       0.908  -2.950   0.944  0.00  0.00    +0.173 A 
ATOM      2  N   UNL     1       0.939  -3.816   1.936  0.00  0.00    -0.216 NA
ATOM      3  C   UNL     1       1.418  -3.471   3.126  0.00  0.00    +0.117 A 
ATOM      4  C   UNL     1       1.911  -2.182   3.387  0.00  0.00    +0.076 A 
ATOM      5  C   UNL     1       2.405  -1.950   4.746  0.00  0.00    -0.023 A 
ATOM      6  C   UNL     1       2.340  -2.986   5.606  0.00  0.00    -0.004 A 
ATOM      7  S   UNL     1       1.628  -4.314   4.673  0.00  0.00    -0.073 S 
ATOM      8  C   UNL     1       2.778  -3.005   7.039  0.00  0.00    +0.046 C 
ATOM      9  C   UNL     1       3.659  -1.774   7.293  0.00  0.00    -0.009 C 
ATOM     10  C   UNL     1       2.959  -0.540   6.715  0.00  0.00    +0.008 C 
ATOM     11  C   UNL     1       2.972  -0.603   5.188  0.00  0.00    +0.037 C 
ATOM     12  C   UNL     1       3.866  -1.592   8.798  0.00  0.00    +0.008 C 
ATOM     13  C   UNL     1       1.871  -1.264   2.290  0.00  0.00    +0.263 A 
ATOM     14  O   UNL     1       2.282  -0.124   2.422  0.00  0.00    -0.267 OA
ATOM     15  N   UNL     1       1.367  -1.676   1.111  0.00  0.00    -0.283 N 
ENDROOT
BRANCH   1  16
ATOM     16  S   UNL     1       0.265  -3.443  -0.621  0.00  0.00    -0.078 S 
BRANCH  16  17
ATOM     17  C   UNL     1      -0.170  -5.161  -0.254  0.00  0.00    +0.173 C 
BRANCH  17  22
ATOM     18  N   UNL     1      -2.082  -8.952  -2.509  0.00  0.00    -0.299 N 
ATOM     19  C   UNL     1      -1.683  -7.666  -2.546  0.00  0.00    +0.306 C 
ATOM     20  O   UNL     1      -1.796  -7.024  -3.572  0.00  0.00    -0.252 OA
ATOM     21  N   UNL     1      -1.157  -7.091  -1.446  0.00  0.00    -0.240 N 
ATOM     22  C   UNL     1      -0.758  -5.804  -1.484  0.00  0.00    +0.231 C 
ATOM     23  O   UNL     1      -0.871  -5.164  -2.507  0.00  0.00    -0.274 OA
ATOM     24  H   UNL     1      -1.991  -9.465  -1.690  0.00  0.00    +0.150 HD
ATOM     25  H   UNL     1      -1.067  -7.603  -0.628  0.00  0.00    +0.159 HD
BRANCH  18  27
ATOM     26  C   UNL     1      -3.021 -11.030  -3.395  0.00  0.00    +0.024 C 
ATOM     27  C   UNL     1      -2.653  -9.577  -3.704  0.00  0.00    +0.102 C 
ENDBRANCH  18  27
ENDBRANCH  17  22
ENDBRANCH  16  17
ENDBRANCH   1  16
BRANCH  15  28
ATOM     28  C   UNL     1       1.317  -0.740  -0.015  0.00  0.00    +0.154 C 
BRANCH  28  29
ATOM     29  C   UNL     1       0.002  -0.004   0.002  0.00  0.00    -0.013 C 
ATOM     30  C   UNL     1      -0.016   1.306   0.009  0.00  0.00    +0.005 C 
ENDBRANCH  28  29
ENDBRANCH  15  28
TORSDOF 6
