REMARK  Name = ZINC62825366
REMARK  4 active torsions:
REMARK  status: ('A' for Active; 'I' for Inactive)
REMARK    1  A    between atoms: C_5  and  N_10
REMARK    2  A    between atoms: C_6  and  C_7
REMARK    3  A    between atoms: C_11  and  C_13
REMARK    4  A    between atoms: C_16  and  O_20
REMARK                            x       y       z     vdW  Elec       q    Type
REMARK                         _______ _______ _______ _____ _____    ______ ____
ROOT
ATOM      1  N   UNL     1       1.290  -2.072  -0.036  0.00  0.00    -0.285 N 
ATOM      2  C   UNL     1       2.464  -2.710   0.141  0.00  0.00    +0.203 C 
ATOM      3  O   UNL     1       3.465  -2.077   0.404  0.00  0.00    -0.277 OA
ATOM      4  H   UNL     1       0.476  -2.582  -0.167  0.00  0.00    +0.155 HD
ENDROOT
BRANCH   1   9
ATOM      5  C   UNL     1       0.624   1.409  -1.087  0.00  0.00    +0.032 A 
ATOM      6  C   UNL     1       1.162   2.098  -0.022  0.00  0.00    +0.020 A 
ATOM      7  C   UNL     1       1.740   1.412   1.036  0.00  0.00    +0.032 A 
ATOM      8  C   UNL     1       1.784   0.031   1.034  0.00  0.00    +0.041 A 
ATOM      9  C   UNL     1       1.247  -0.680  -0.032  0.00  0.00    +0.062 A 
ATOM     10  C   UNL     1       0.660   0.011  -1.104  0.00  0.00    +0.086 A 
ATOM     11 BR   UNL     1       2.576  -0.891   2.482  0.00  0.00    -0.048 Br
ATOM     12 BR   UNL     1       1.112   3.988  -0.002  0.00  0.00    -0.050 Br
BRANCH  10  13
ATOM     13  C   UNL     1       0.087  -0.731  -2.239  0.00  0.00    +0.388 C 
ATOM     14  O   UNL     1      -0.329  -0.126  -3.217  0.00  0.00    -0.241 OA
ATOM     15  O   UNL     1       0.027  -1.952  -2.203  0.00  0.00    -0.241 OA
ENDBRANCH  10  13
ENDBRANCH   1   9
BRANCH   2  16
ATOM     16  C   UNL     1       2.534  -4.210   0.012  0.00  0.00    +0.019 C 
ATOM     17  C   UNL     1       2.085  -4.893   1.328  0.00  0.00    +0.023 C 
ATOM     18  C   UNL     1       2.785  -6.270   1.259  0.00  0.00    +0.097 C 
ATOM     19  C   UNL     1       3.962  -6.074   0.286  0.00  0.00    -0.050 C 
ATOM     20  N   UNL     1       3.941  -4.658  -0.145  0.00  0.00    +0.388 N 
ATOM     21  H   UNL     1       4.225  -4.581  -1.110  0.00  0.00    -0.085 HD
ATOM     22  H   UNL     1       4.549  -4.107   0.442  0.00  0.00    -0.085 HD
BRANCH  18  23
ATOM     23  O   UNL     1       1.884  -7.259   0.758  0.00  0.00    -0.394 OA
ATOM     24  H   UNL     1       2.268  -8.144   0.692  0.00  0.00    +0.210 HD
ENDBRANCH  18  23
ENDBRANCH   2  16
TORSDOF 4
