REMARK  Name = ZINC63804280
REMARK  15 active torsions:
REMARK  status: ('A' for Active; 'I' for Inactive)
REMARK    1  A    between atoms: C_1  and  C_2
REMARK    2  A    between atoms: C_2  and  C_3
REMARK    3  A    between atoms: C_3  and  C_4
REMARK    4  A    between atoms: C_4  and  C_5
REMARK    5  A    between atoms: C_5  and  C_7
REMARK    6  A    between atoms: C_5  and  C_9
REMARK    7  A    between atoms: C_7  and  C_8
REMARK    8  A    between atoms: C_9  and  N_11
REMARK    9  A    between atoms: N_13  and  C_14
REMARK   10  A    between atoms: C_14  and  C_15
REMARK   11  A    between atoms: C_15  and  C_16
REMARK   12  A    between atoms: C_19  and  O_25
REMARK   13  A    between atoms: O_25  and  C_26
REMARK   14  A    between atoms: C_30  and  C_35
REMARK   15  A    between atoms: C_32  and  C_34
REMARK                            x       y       z     vdW  Elec       q    Type
REMARK                         _______ _______ _______ _____ _____    ______ ____
ROOT
ATOM      1  N   UNL     1       2.397  -4.476  -3.663  0.00  0.00    -0.147 NA
ATOM      2  C   UNL     1       2.306  -5.782  -3.877  0.00  0.00    +0.196 C 
ATOM      3  N   UNL     1       1.478  -6.543  -3.108  0.00  0.00    -0.357 N 
ATOM      4  N   UNL     1       3.042  -6.364  -4.870  0.00  0.00    -0.297 N 
ATOM      5  C   UNL     1       3.965  -5.610  -5.583  0.00  0.00    +0.231 A 
ATOM      6  N   UNL     1       4.051  -4.309  -5.355  0.00  0.00    -0.217 NA
ATOM      7  C   UNL     1       4.919  -3.562  -6.016  0.00  0.00    +0.044 A 
ATOM      8  C   UNL     1       5.745  -4.157  -6.957  0.00  0.00    +0.046 A 
ATOM      9  C   UNL     1       5.628  -5.522  -7.171  0.00  0.00    +0.044 A 
ATOM     10  N   UNL     1       4.742  -6.211  -6.471  0.00  0.00    -0.217 NA
ATOM     11  C   UNL     1       6.505  -6.213  -8.184  0.00  0.00    +0.066 C 
ATOM     12  C   UNL     1       5.009  -2.081  -5.751  0.00  0.00    +0.066 C 
ATOM     13  H   UNL     1       2.921  -7.304  -5.076  0.00  0.00    +0.171 HD
ATOM     14  H   UNL     1       0.890  -6.119  -2.463  0.00  0.00    +0.162 HD
ENDROOT
BRANCH   1  15
ATOM     15  C   UNL     1       1.853  -3.942  -2.571  0.00  0.00    +0.242 C 
ATOM     16  O   UNL     1       1.369  -4.660  -1.719  0.00  0.00    -0.273 OA
BRANCH  15  17
ATOM     17  C   UNL     1       1.837  -2.445  -2.393  0.00  0.00    +0.077 C 
BRANCH  17  18
ATOM     18  C   UNL     1       1.062  -1.803  -3.546  0.00  0.00    +0.009 C 
ATOM     19  C   UNL     1       1.167  -0.280  -3.445  0.00  0.00    +0.004 C 
ENDBRANCH  17  18
BRANCH  17  20
ATOM     20  C   UNL     1       1.159  -2.097  -1.066  0.00  0.00    +0.013 C 
BRANCH  20  21
ATOM     21  C   UNL     1       2.018  -2.605   0.093  0.00  0.00    +0.000 C 
BRANCH  21  23
ATOM     22  C   UNL     1       2.265  -2.656   2.579  0.00  0.00    +0.004 C 
ATOM     23  C   UNL     1       1.407  -2.147   1.419  0.00  0.00    -0.003 C 
ENDBRANCH  21  23
ENDBRANCH  20  21
ENDBRANCH  17  20
ENDBRANCH  15  17
ENDBRANCH   1  15
BRANCH   3  24
ATOM     24  C   UNL     1       1.476  -8.000  -3.254  0.00  0.00    +0.120 C 
BRANCH  24  25
ATOM     25  C   UNL     1       0.380  -8.600  -2.372  0.00  0.00    +0.054 C 
BRANCH  25  26
ATOM     26  C   UNL     1       0.456 -10.104  -2.427  0.00  0.00    -0.040 C 
ATOM     27  C   UNL     1       1.084 -10.919  -1.549  0.00  0.00    +0.002 A 
ATOM     28  C   UNL     1       1.854 -10.661  -0.328  0.00  0.00    +0.055 A 
ATOM     29  C   UNL     1       2.378 -11.703   0.362  0.00  0.00    +0.121 A 
ATOM     30  C   UNL     1       2.212 -13.036  -0.050  0.00  0.00    +0.047 A 
ATOM     31  C   UNL     1       1.520 -13.373  -1.160  0.00  0.00    +0.029 A 
ATOM     32  C   UNL     1       0.909 -12.324  -1.983  0.00  0.00    +0.043 A 
ATOM     33  N   UNL     1       0.202 -12.376  -3.084  0.00  0.00    -0.380 N 
ATOM     34  C   UNL     1      -0.159 -11.008  -3.473  0.00  0.00    +0.144 C 
ATOM     35  H   UNL     1      -0.045 -13.184  -3.561  0.00  0.00    +0.160 HD
BRANCH  29  36
ATOM     36  O   UNL     1       3.090 -11.449   1.492  0.00  0.00    -0.495 OA
ATOM     37  C   UNL     1       3.625 -12.576   2.189  0.00  0.00    +0.277 C 
ENDBRANCH  29  36
ENDBRANCH  25  26
ENDBRANCH  24  25
ENDBRANCH   3  24
TORSDOF 10
