REMARK  Name = ZINC11812904
REMARK  11 active torsions:
REMARK  status: ('A' for Active; 'I' for Inactive)
REMARK    1  A    between atoms: C_1  and  C_2
REMARK    2  A    between atoms: C_2  and  C_3
REMARK    3  A    between atoms: C_3  and  C_4
REMARK    4  A    between atoms: C_4  and  C_19
REMARK    5  A    between atoms: N_7  and  C_11
REMARK    6  A    between atoms: C_11  and  C_12
REMARK    7  A    between atoms: C_12  and  C_13
REMARK    8  A    between atoms: C_18  and  N_75
REMARK    9  A    between atoms: C_24  and  C_25
REMARK   10  A    between atoms: C_24  and  N_77
REMARK   11  A    between atoms: C_30  and  C_31
REMARK                            x       y       z     vdW  Elec       q    Type
REMARK                         _______ _______ _______ _____ _____    ______ ____
ROOT
ATOM      1  C   UNL     1      -0.719  -2.392  -0.025  0.00  0.00    +0.115 C 
ATOM      2  C   UNL     1      -1.149  -1.015  -0.492  0.00  0.00    +0.247 C 
ATOM      3  O   UNL     1      -2.141  -0.735  -1.130  0.00  0.00    -0.273 OA
ATOM      4  N   UNL     1      -0.200  -0.167  -0.049  0.00  0.00    -0.224 N 
ATOM      5  C   UNL     1       0.762  -0.810   0.622  0.00  0.00    +0.309 C 
ATOM      6  O   UNL     1       1.728  -0.259   1.113  0.00  0.00    -0.252 OA
ATOM      7  N   UNL     1       0.540  -2.135   0.694  0.00  0.00    -0.285 N 
ATOM      8  H   UNL     1       1.103  -2.794   1.131  0.00  0.00    +0.151 HD
ENDROOT
BRANCH   1   9
ATOM      9  C   UNL     1      -1.765  -2.992   0.917  0.00  0.00    +0.018 C 
ATOM     10  C   UNL     1      -3.066  -3.237   0.148  0.00  0.00    -0.013 C 
ATOM     11  C   UNL     1      -4.126  -3.780   1.109  0.00  0.00    -0.078 C 
ATOM     12  C   UNL     1      -3.127  -2.596   2.971  0.00  0.00    -0.078 C 
ATOM     13  C   UNL     1      -2.037  -2.017   2.066  0.00  0.00    -0.013 C 
ATOM     14  N   UNL     1      -4.359  -2.786   2.177  0.00  0.00    +0.382 N 
ATOM     15  H   UNL     1      -4.620  -1.890   1.748  0.00  0.00    -0.081 HD
BRANCH  14  16
ATOM     16  C   UNL     1      -5.460  -3.236   3.054  0.00  0.00    -0.042 C 
BRANCH  16  17
ATOM     17  C   UNL     1      -6.671  -3.534   2.208  0.00  0.00    -0.053 A 
ATOM     18  C   UNL     1      -7.016  -4.841   1.932  0.00  0.00    +0.002 A 
ATOM     19  C   UNL     1      -8.130  -5.117   1.159  0.00  0.00    +0.000 A 
ATOM     20  C   UNL     1      -8.899  -4.085   0.649  0.00  0.00    +0.001 A 
ATOM     21  C   UNL     1      -8.561  -2.774   0.913  0.00  0.00    +0.012 A 
ATOM     22  C   UNL     1      -7.442  -2.489   1.697  0.00  0.00    +0.019 A 
BRANCH  22  23
ATOM     23  C   UNL     1      -7.074  -1.087   1.983  0.00  0.00    +0.135 A 
ATOM     24  C   UNL     1      -6.865  -0.112   1.059  0.00  0.00    +0.050 A 
ATOM     25  C   UNL     1      -6.541   1.060   1.771  0.00  0.00    +0.042 A 
ATOM     26  C   UNL     1      -6.560   0.744   3.081  0.00  0.00    +0.196 A 
ATOM     27  O   UNL     1      -6.882  -0.554   3.205  0.00  0.00    -0.463 OA
ENDBRANCH  22  23
ENDBRANCH  16  17
ENDBRANCH  14  16
ENDBRANCH   1   9
BRANCH   1  28
ATOM     28  C   UNL     1      -0.478  -3.314  -1.222  0.00  0.00    +0.035 C 
BRANCH  28  30
ATOM     29  C   UNL     1       0.935  -3.704  -3.245  0.00  0.00    +0.004 C 
ATOM     30  C   UNL     1       0.694  -2.781  -2.049  0.00  0.00    -0.001 C 
ENDBRANCH  28  30
ENDBRANCH   1  28
BRANCH   4  31
ATOM     31  C   UNL     1      -0.217   1.280  -0.278  0.00  0.00    +0.116 C 
BRANCH  31  32
ATOM     32  C   UNL     1      -0.961   1.969   0.868  0.00  0.00    +0.004 C 
BRANCH  32  33
ATOM     33  C   UNL     1      -0.885   3.486   0.685  0.00  0.00    -0.068 C 
ATOM     34  C   UNL     1       0.572   3.975   0.832  0.00  0.00    -0.017 C 
ATOM     35  C   UNL     1       0.469   5.328   1.565  0.00  0.00    -0.020 C 
ATOM     36  C   UNL     1      -1.042   5.544   1.799  0.00  0.00    -0.079 C 
ATOM     37  C   UNL     1      -3.065   4.222   1.482  0.00  0.00    -0.096 C 
ATOM     38  N   UNL     1      -1.594   4.190   1.759  0.00  0.00    +0.380 N 
ATOM     39  H   UNL     1      -1.430   3.719   2.656  0.00  0.00    -0.082 HD
ENDBRANCH  32  33
ENDBRANCH  31  32
ENDBRANCH   4  31
TORSDOF 9
