REMARK  Name = ZINC09320176
REMARK  1 active torsions:
REMARK  status: ('A' for Active; 'I' for Inactive)
REMARK    1  A    between atoms: C_6  and  N_11
REMARK                            x       y       z     vdW  Elec       q    Type
REMARK                         _______ _______ _______ _____ _____    ______ ____
ROOT
ATOM      1  N   UNL     1       3.612  -0.668  -0.036  0.00  0.00    -0.210 N 
ATOM      2  C   UNL     1       4.844  -0.068  -0.050  0.00  0.00    +0.228 C 
ATOM      3  O   UNL     1       5.119   1.069   0.272  0.00  0.00    -0.275 OA
ATOM      4  C   UNL     1       5.785  -1.131  -0.553  0.00  0.00    +0.074 C 
ATOM      5  C   UNL     1       7.190  -1.226   0.059  0.00  0.00    -0.054 C 
ATOM      6  C   UNL     1       7.341  -0.242   1.235  0.00  0.00    -0.016 C 
ATOM      7  C   UNL     1       7.812  -1.103   2.426  0.00  0.00    -0.020 C 
ATOM      8  C   UNL     1       7.228  -2.495   2.097  0.00  0.00    -0.076 C 
ATOM      9  C   UNL     1       6.103  -3.367   0.159  0.00  0.00    +0.053 C 
ATOM     10  C   UNL     1       5.083  -2.323   0.214  0.00  0.00    +0.089 C 
ATOM     11  C   UNL     1       3.694  -2.041  -0.044  0.00  0.00    +0.229 C 
ATOM     12  O   UNL     1       2.797  -2.836  -0.227  0.00  0.00    -0.275 OA
ATOM     13  C   UNL     1       6.364  -3.963  -1.195  0.00  0.00    -0.026 A 
ATOM     14  C   UNL     1       6.652  -3.424  -2.430  0.00  0.00    +0.024 A 
ATOM     15  C   UNL     1       6.848  -4.253  -3.521  0.00  0.00    +0.041 A 
ATOM     16  C   UNL     1       6.754  -5.625  -3.368  0.00  0.00    +0.022 A 
ATOM     17  C   UNL     1       6.466  -6.169  -2.134  0.00  0.00    +0.025 A 
ATOM     18  C   UNL     1       6.268  -5.342  -1.031  0.00  0.00    +0.036 A 
ATOM     19  N   UNL     1       5.974  -5.651   0.300  0.00  0.00    -0.286 N 
ATOM     20  C   UNL     1       5.865  -4.547   1.064  0.00  0.00    +0.212 C 
ATOM     21  O   UNL     1       5.621  -4.511   2.252  0.00  0.00    -0.277 OA
ATOM     22 CL   UNL     1       7.209  -3.573  -5.077  0.00  0.00    -0.084 Cl
ATOM     23  H   UNL     1       5.861  -6.554   0.634  0.00  0.00    +0.155 HD
ATOM     24  N   UNL     1       7.274  -2.590   0.634  0.00  0.00    +0.395 N 
ATOM     25  H   UNL     1       8.146  -3.046   0.338  0.00  0.00    -0.079 HD
ENDROOT
BRANCH   1  31
ATOM     26  C   UNL     1      -1.210   3.474   0.031  0.00  0.00    +0.001 A 
ATOM     27  C   UNL     1      -0.006   4.176   0.023  0.00  0.00    +0.001 A 
ATOM     28  C   UNL     1       1.186   3.521   0.009  0.00  0.00    +0.008 A 
ATOM     29  C   UNL     1       1.208   2.116   0.002  0.00  0.00    -0.016 A 
ATOM     30  C   UNL     1       2.420   1.406  -0.013  0.00  0.00    +0.032 A 
ATOM     31  C   UNL     1       2.402   0.040  -0.021  0.00  0.00    +0.044 A 
ATOM     32  C   UNL     1       1.192  -0.662  -0.013  0.00  0.00    +0.024 A 
ATOM     33  C   UNL     1       0.002  -0.004   0.002  0.00  0.00    +0.010 A 
ATOM     34  C   UNL     1      -0.017   1.402   0.010  0.00  0.00    -0.018 A 
ATOM     35  C   UNL     1      -1.228   2.114   0.019  0.00  0.00    +0.008 A 
ENDBRANCH   1  31
TORSDOF 1
