REMARK  Name = ZINC10890806
REMARK  7 active torsions:
REMARK  status: ('A' for Active; 'I' for Inactive)
REMARK    1  A    between atoms: C_4  and  N_26
REMARK    2  A    between atoms: C_5  and  N_7
REMARK    3  A    between atoms: N_7  and  C_8
REMARK    4  A    between atoms: C_8  and  C_9
REMARK    5  A    between atoms: C_9  and  C_10
REMARK    6  A    between atoms: N_12  and  N_13
REMARK    7  A    between atoms: C_14  and  C_16
REMARK                            x       y       z     vdW  Elec       q    Type
REMARK                         _______ _______ _______ _____ _____    ______ ____
ROOT
ATOM      1  C   UNL     1       2.376   1.043   0.178  0.00  0.00    +0.231 C 
ATOM      2  O   UNL     1       2.400  -0.154   0.375  0.00  0.00    -0.274 OA
ATOM      3  N   UNL     1       1.198   1.697   0.145  0.00  0.00    -0.234 N 
ATOM      4  H   UNL     1       1.180   2.654  -0.013  0.00  0.00    +0.173 HD
ENDROOT
BRANCH   3   5
ATOM      5  N   UNL     1       0.001   0.995   0.338  0.00  0.00    -0.230 N 
ATOM      6  C   UNL     1      -1.177   1.649   0.299  0.00  0.00    +0.267 C 
ATOM      7  O   UNL     1      -1.200   2.850   0.102  0.00  0.00    -0.268 OA
ATOM      8  H   UNL     1       0.020   0.038   0.496  0.00  0.00    +0.173 HD
BRANCH   6   9
ATOM      9  C   UNL     1      -2.430   0.914   0.496  0.00  0.00    +0.076 A 
ATOM     10  C   UNL     1      -3.729   1.388   0.494  0.00  0.00    +0.024 A 
ATOM     11  C   UNL     1      -4.758   0.476   0.699  0.00  0.00    -0.036 A 
ATOM     12  C   UNL     1      -4.395  -0.809   0.914  0.00  0.00    -0.006 A 
ATOM     13  S   UNL     1      -2.679  -0.830   0.792  0.00  0.00    -0.088 S 
ATOM     14  C   UNL     1      -5.316  -1.970   1.212  0.00  0.00    +0.043 C 
ATOM     15  C   UNL     1      -6.129  -2.245  -0.065  0.00  0.00    +0.005 C 
ATOM     16  C   UNL     1      -7.256  -1.247  -0.193  0.00  0.00    +0.001 C 
ATOM     17  C   UNL     1      -6.866   0.164  -0.548  0.00  0.00    +0.005 C 
ATOM     18  C   UNL     1      -6.231   0.899   0.634  0.00  0.00    +0.036 C 
ENDBRANCH   6   9
ENDBRANCH   3   5
BRANCH   1  19
ATOM     19  C   UNL     1       3.664   1.797  -0.030  0.00  0.00    +0.116 C 
BRANCH  19  20
ATOM     20  C   UNL     1       4.843   0.827   0.056  0.00  0.00    +0.111 C 
BRANCH  20  21
ATOM     21  N   UNL     1       6.095   1.560  -0.147  0.00  0.00    -0.342 N 
ATOM     22  H   UNL     1       6.076   2.517  -0.304  0.00  0.00    +0.146 HD
BRANCH  21  27
ATOM     23  C   UNL     1       8.548  -1.171   0.019  0.00  0.00    +0.002 A 
ATOM     24  C   UNL     1       9.733  -0.462  -0.044  0.00  0.00    +0.002 A 
ATOM     25  C   UNL     1       9.713   0.917  -0.141  0.00  0.00    +0.034 A 
ATOM     26  C   UNL     1       8.508   1.591  -0.175  0.00  0.00    +0.147 A 
ATOM     27  C   UNL     1       7.316   0.882  -0.112  0.00  0.00    +0.058 A 
ATOM     28  C   UNL     1       7.340  -0.503  -0.009  0.00  0.00    +0.025 A 
BRANCH  26  29
ATOM     29  N   UNL     1       8.488   3.068  -0.279  0.00  0.00    +0.058 N 
ATOM     30  O   UNL     1       9.310   3.641  -0.969  0.00  0.00    -0.126 OA
ATOM     31  O   UNL     1       7.648   3.709   0.327  0.00  0.00    -0.126 OA
ENDBRANCH  26  29
ENDBRANCH  21  27
ENDBRANCH  20  21
ENDBRANCH  19  20
ENDBRANCH   1  19
TORSDOF 7
