REMARK  Name = ZINC15322186
REMARK  7 active torsions:
REMARK  status: ('A' for Active; 'I' for Inactive)
REMARK    1  A    between atoms: C_4  and  C_7
REMARK    2  A    between atoms: C_7  and  N_8
REMARK    3  A    between atoms: C_9  and  N_33
REMARK    4  A    between atoms: C_10  and  N_17
REMARK    5  A    between atoms: N_17  and  C_18
REMARK    6  A    between atoms: C_18  and  C_19
REMARK    7  A    between atoms: C_24  and  C_26
REMARK                            x       y       z     vdW  Elec       q    Type
REMARK                         _______ _______ _______ _____ _____    ______ ____
ROOT
ATOM      1  N   UNL     1      -3.526  -0.326   0.189  0.00  0.00    -0.276 N 
ATOM      2  C   UNL     1      -2.164  -0.367  -0.002  0.00  0.00    +0.128 A 
ATOM      3  C   UNL     1      -1.411   0.757   0.271  0.00  0.00    +0.140 A 
ATOM      4  C   UNL     1      -2.064   1.917   0.727  0.00  0.00    +0.277 A 
ATOM      5  O   UNL     1      -1.424   2.926   0.972  0.00  0.00    -0.266 OA
ATOM      6  N   UNL     1      -3.401   1.906   0.893  0.00  0.00    -0.273 N 
ATOM      7  H   UNL     1      -3.866   2.730   1.218  0.00  0.00    +0.173 HD
ATOM      8  C   UNL     1      -4.118   0.800   0.626  0.00  0.00    +0.331 A 
ATOM      9  O   UNL     1      -5.324   0.818   0.784  0.00  0.00    -0.246 OA
ENDROOT
BRANCH   3  10
ATOM     10  N   UNL     1      -0.013   0.745   0.089  0.00  0.00    -0.253 N 
ATOM     11  C   UNL     1       0.505   0.663  -1.152  0.00  0.00    +0.253 C 
ATOM     12  O   UNL     1       1.706   0.757  -1.318  0.00  0.00    -0.270 OA
BRANCH  11  13
ATOM     13  C   UNL     1      -0.387   0.459  -2.313  0.00  0.00    +0.056 A 
ATOM     14  C   UNL     1       0.083  -0.175  -3.470  0.00  0.00    +0.031 A 
ATOM     15  C   UNL     1      -0.794  -0.346  -4.527  0.00  0.00    +0.037 A 
ATOM     16  C   UNL     1      -2.092   0.122  -4.412  0.00  0.00    +0.126 A 
ATOM     17  N   UNL     1      -2.505   0.720  -3.312  0.00  0.00    -0.261 NA
ATOM     18  C   UNL     1      -1.710   0.901  -2.277  0.00  0.00    +0.123 A 
ATOM     19 BR   UNL     1      -0.223  -1.200  -6.114  0.00  0.00    -0.049 Br
ENDBRANCH  11  13
BRANCH  10  20
ATOM     20  C   UNL     1       0.877   0.828   1.250  0.00  0.00    +0.188 C 
BRANCH  20  21
ATOM     21  C   UNL     1       1.148   2.275   1.573  0.00  0.00    +0.122 A 
ATOM     22  C   UNL     1       0.521   3.002   2.516  0.00  0.00    +0.046 A 
ATOM     23  C   UNL     1       1.085   4.298   2.476  0.00  0.00    +0.041 A 
ATOM     24  C   UNL     1       2.022   4.286   1.511  0.00  0.00    +0.195 A 
ATOM     25  O   UNL     1       2.060   3.057   0.971  0.00  0.00    -0.466 OA
ENDBRANCH  20  21
ENDBRANCH  10  20
ENDBRANCH   3  10
BRANCH   2  26
ATOM     26  N   UNL     1      -1.560  -1.515  -0.455  0.00  0.00    -0.343 N 
ATOM     27  H   UNL     1      -0.593  -1.562  -0.519  0.00  0.00    +0.144 HD
ATOM     28  H   UNL     1      -2.100  -2.279  -0.711  0.00  0.00    +0.144 HD
ENDBRANCH   2  26
BRANCH   1  29
ATOM     29  C   UNL     1      -4.337  -1.513  -0.092  0.00  0.00    +0.163 C 
BRANCH  29  33
ATOM     30  C   UNL     1      -5.605  -1.441  -4.170  0.00  0.00    +0.000 A 
ATOM     31  C   UNL     1      -4.413  -2.051  -3.828  0.00  0.00    +0.000 A 
ATOM     32  C   UNL     1      -4.002  -2.074  -2.509  0.00  0.00    +0.005 A 
ATOM     33  C   UNL     1      -4.784  -1.488  -1.531  0.00  0.00    -0.028 A 
ATOM     34  C   UNL     1      -5.979  -0.882  -1.872  0.00  0.00    +0.005 A 
ATOM     35  C   UNL     1      -6.387  -0.854  -3.193  0.00  0.00    +0.000 A 
ENDBRANCH  29  33
ENDBRANCH   1  29
TORSDOF 7
