REMARK  Name = ZINC14461385
REMARK  9 active torsions:
REMARK  status: ('A' for Active; 'I' for Inactive)
REMARK    1  A    between atoms: C_1  and  C_2
REMARK    2  A    between atoms: C_2  and  N_3
REMARK    3  A    between atoms: N_3  and  C_4
REMARK    4  A    between atoms: N_3  and  C_6
REMARK    5  A    between atoms: C_4  and  C_5
REMARK    6  A    between atoms: C_9  and  C_12
REMARK    7  A    between atoms: C_23  and  S_28
REMARK    8  A    between atoms: S_28  and  N_31
REMARK    9  A    between atoms: N_31  and  C_32
REMARK                            x       y       z     vdW  Elec       q    Type
REMARK                         _______ _______ _______ _____ _____    ______ ____
ROOT
ATOM      1  C   UNL     1       0.138  -6.382  -1.318  0.00  0.00    +0.105 C 
ATOM      2  C   UNL     1      -1.248  -6.801  -0.861  0.00  0.00    +0.029 C 
ATOM      3  C   UNL     1      -1.698  -6.336   0.530  0.00  0.00    +0.033 C 
ATOM      4  C   UNL     1      -3.214  -6.247   0.350  0.00  0.00    -0.030 C 
ATOM      5  C   UNL     1      -3.508  -6.039  -0.928  0.00  0.00    -0.023 C 
ATOM      6  C   UNL     1      -2.241  -5.959  -1.717  0.00  0.00    +0.049 C 
ATOM      7  C   UNL     1      -2.134  -6.420  -3.119  0.00  0.00    -0.018 A 
ATOM      8  C   UNL     1      -3.219  -6.464  -3.968  0.00  0.00    +0.034 A 
ATOM      9  C   UNL     1      -3.065  -6.890  -5.274  0.00  0.00    +0.109 A 
ATOM     10  C   UNL     1      -1.818  -7.272  -5.734  0.00  0.00    +0.030 A 
ATOM     11  C   UNL     1      -0.727  -7.236  -4.891  0.00  0.00    +0.025 A 
ATOM     12  C   UNL     1      -0.872  -6.817  -3.574  0.00  0.00    +0.031 A 
ATOM     13  N   UNL     1       0.246  -6.823  -2.726  0.00  0.00    -0.336 N 
ATOM     14  H   UNL     1       1.104  -7.122  -3.066  0.00  0.00    +0.147 HD
ENDROOT
BRANCH   1  18
ATOM     15  C   UNL     1       0.554  -2.138  -1.067  0.00  0.00    +0.013 A 
ATOM     16  C   UNL     1       0.883  -2.930   0.018  0.00  0.00    +0.022 A 
ATOM     17  C   UNL     1       0.748  -4.303  -0.064  0.00  0.00    +0.007 A 
ATOM     18  C   UNL     1       0.284  -4.885  -1.229  0.00  0.00    -0.027 A 
ATOM     19  C   UNL     1      -0.045  -4.092  -2.313  0.00  0.00    +0.007 A 
ATOM     20  C   UNL     1       0.086  -2.719  -2.230  0.00  0.00    +0.022 A 
BRANCH  15  21
ATOM     21  N   UNL     1       0.691  -0.749  -0.984  0.00  0.00    -0.394 NA
ATOM     22  H   UNL     1       0.405  -0.331  -1.857  0.00  0.00    +0.126 HD
BRANCH  21  24
ATOM     23  C   UNL     1      -0.101   1.291   0.114  0.00  0.00    +0.022 C 
ATOM     24  C   UNL     1      -0.153  -0.238   0.104  0.00  0.00    +0.081 C 
ENDBRANCH  21  24
BRANCH  21  25
ATOM     25  C   UNL     1       2.095  -0.410  -0.716  0.00  0.00    +0.081 C 
ATOM     26  C   UNL     1       2.958  -0.832  -1.906  0.00  0.00    +0.022 C 
ENDBRANCH  21  25
ENDBRANCH  15  21
ENDBRANCH   1  18
BRANCH   9  27
ATOM     27  S   UNL     1      -4.457  -6.946  -6.352  0.00  0.00    +0.072 S 
ATOM     28  O   UNL     1      -4.204  -7.984  -7.289  0.00  0.00    -0.150 OA
ATOM     29  O   UNL     1      -5.613  -6.931  -5.525  0.00  0.00    -0.150 OA
BRANCH  27  30
ATOM     30  N   UNL     1      -4.471  -5.529  -7.209  0.00  0.00    -0.216 N 
ATOM     31  H   UNL     1      -4.387  -5.545  -8.175  0.00  0.00    +0.174 HD
BRANCH  30  32
ATOM     32  C   UNL     1      -4.603  -4.310  -6.540  0.00  0.00    +0.048 A 
ATOM     33  C   UNL     1      -5.566  -4.159  -5.551  0.00  0.00    +0.024 A 
ATOM     34  C   UNL     1      -5.694  -2.953  -4.891  0.00  0.00    +0.002 A 
ATOM     35  C   UNL     1      -4.864  -1.895  -5.214  0.00  0.00    +0.000 A 
ATOM     36  C   UNL     1      -3.904  -2.041  -6.198  0.00  0.00    +0.002 A 
ATOM     37  C   UNL     1      -3.767  -3.247  -6.858  0.00  0.00    +0.024 A 
ENDBRANCH  30  32
ENDBRANCH  27  30
ENDBRANCH   9  27
TORSDOF 7
