REMARK  Name = ZINC01926241
REMARK  6 active torsions:
REMARK  status: ('A' for Active; 'I' for Inactive)
REMARK    1  A    between atoms: N_8  and  S_9
REMARK    2  A    between atoms: S_9  and  C_12
REMARK    3  A    between atoms: C_21  and  O_28
REMARK    4  A    between atoms: C_25  and  C_26
REMARK    5  A    between atoms: C_25  and  N_48
REMARK    6  A    between atoms: C_26  and  O_27
REMARK                            x       y       z     vdW  Elec       q    Type
REMARK                         _______ _______ _______ _____ _____    ______ ____
ROOT
ATOM      1  C   UNL     1       5.814  -2.040   0.554  0.00  0.00    +0.001 A 
ATOM      2  C   UNL     1       5.803  -0.657   0.523  0.00  0.00    +0.000 A 
ATOM      3  C   UNL     1       4.630   0.047   0.744  0.00  0.00    +0.010 A 
ATOM      4  C   UNL     1       3.464  -0.634   0.997  0.00  0.00    +0.026 A 
ATOM      5  C   UNL     1       3.473  -2.038   1.017  0.00  0.00    +0.011 A 
ATOM      6  C   UNL     1       4.645  -2.739   0.802  0.00  0.00    +0.010 A 
ATOM      7  C   UNL     1       2.162  -2.702   1.278  0.00  0.00    +0.095 C 
ATOM      8  N   UNL     1       2.047  -3.783   2.007  0.00  0.00    -0.128 NA
ATOM      9  C   UNL     1       1.000  -2.035   0.640  0.00  0.00    +0.052 C 
ATOM     10  C   UNL     1       1.021  -0.677   0.622  0.00  0.00    +0.057 C 
ATOM     11  C   UNL     1       2.159   0.052   1.268  0.00  0.00    +0.234 C 
ATOM     12  O   UNL     1       2.188   1.432   1.038  0.00  0.00    -0.339 OA
ATOM     13  C   UNL     1       1.410   1.991  -0.001  0.00  0.00    +0.181 C 
ATOM     14  C   UNL     1      -0.018   1.458   0.010  0.00  0.00    +0.113 C 
ATOM     15  N   UNL     1      -0.182  -0.012   0.308  0.00  0.00    -0.389 NA
ATOM     16  H   UNL     1      -0.707  -0.035   1.191  0.00  0.00    +0.126 HD
ENDROOT
BRANCH   8  17
ATOM     17  S   UNL     1       0.557  -4.463   2.251  0.00  0.00    +0.099 S 
ATOM     18  O   UNL     1      -0.193  -3.532   3.020  0.00  0.00    -0.146 OA
ATOM     19  O   UNL     1       0.115  -4.938   0.987  0.00  0.00    -0.146 OA
BRANCH  17  20
ATOM     20  C   UNL     1       0.792  -5.883   3.268  0.00  0.00    +0.113 A 
ATOM     21  C   UNL     1       1.026  -7.116   2.689  0.00  0.00    +0.030 A 
ATOM     22  C   UNL     1       1.216  -8.229   3.486  0.00  0.00    +0.017 A 
ATOM     23  C   UNL     1       1.159  -8.111   4.863  0.00  0.00    +0.018 A 
ATOM     24  C   UNL     1       0.919  -6.878   5.442  0.00  0.00    +0.017 A 
ATOM     25  C   UNL     1       0.736  -5.764   4.644  0.00  0.00    +0.030 A 
ATOM     26 BR   UNL     1       1.412  -9.634   5.955  0.00  0.00    -0.050 Br
ENDBRANCH  17  20
ENDBRANCH   8  17
BRANCH  11  27
ATOM     27  O   UNL     1       1.947  -0.080   2.675  0.00  0.00    -0.356 OA
ATOM     28  H   UNL     1       2.621   0.352   3.217  0.00  0.00    +0.213 HD
ENDBRANCH  11  27
BRANCH  15  29
ATOM     29  C   UNL     1      -1.067  -0.748  -0.669  0.00  0.00    +0.113 C 
BRANCH  29  30
ATOM     30  C   UNL     1      -0.680  -0.990  -2.130  0.00  0.00    +0.173 C 
BRANCH  30  31
ATOM     31  O   UNL     1       0.466  -1.842  -2.184  0.00  0.00    -0.394 OA
ATOM     32  H   UNL     1       0.767  -2.039  -3.082  0.00  0.00    +0.209 HD
ENDBRANCH  30  31
ENDBRANCH  29  30
ENDBRANCH  15  29
TORSDOF 6
