REMARK  Name = ZINC43479022
REMARK  6 active torsions:
REMARK  status: ('A' for Active; 'I' for Inactive)
REMARK    1  A    between atoms: C_7  and  C_11
REMARK    2  A    between atoms: C_11  and  C_12
REMARK    3  A    between atoms: N_14  and  N_15
REMARK    4  A    between atoms: N_18  and  C_19
REMARK    5  A    between atoms: C_19  and  C_20
REMARK    6  A    between atoms: C_20  and  C_21
REMARK                            x       y       z     vdW  Elec       q    Type
REMARK                         _______ _______ _______ _____ _____    ______ ____
ROOT
ATOM      1  C   UNL     1       0.242  -3.584  -1.434  0.00  0.00    +0.234 C 
ATOM      2  O   UNL     1       0.660  -2.913  -2.353  0.00  0.00    -0.274 OA
ATOM      3  N   UNL     1      -0.601  -4.607  -1.676  0.00  0.00    -0.233 N 
ATOM      4  H   UNL     1      -0.935  -5.145  -0.941  0.00  0.00    +0.173 HD
ENDROOT
BRANCH   3   5
ATOM      5  N   UNL     1      -0.995  -4.895  -2.989  0.00  0.00    -0.218 N 
ATOM      6  C   UNL     1      -1.838  -5.918  -3.231  0.00  0.00    +0.316 C 
ATOM      7  O   UNL     1      -2.180  -6.167  -4.371  0.00  0.00    -0.251 OA
ATOM      8  N   UNL     1      -2.303  -6.665  -2.210  0.00  0.00    -0.298 N 
ATOM      9  H   UNL     1      -0.661  -4.357  -3.724  0.00  0.00    +0.174 HD
ATOM     10  H   UNL     1      -2.030  -6.466  -1.301  0.00  0.00    +0.150 HD
BRANCH   8  11
ATOM     11  C   UNL     1      -3.219  -7.777  -2.473  0.00  0.00    +0.110 C 
BRANCH  11  12
ATOM     12  C   UNL     1      -3.591  -8.454  -1.153  0.00  0.00    +0.054 C 
BRANCH  12  13
ATOM     13  C   UNL     1      -4.534  -9.598  -1.423  0.00  0.00    -0.045 A 
ATOM     14  C   UNL     1      -5.899  -9.380  -1.435  0.00  0.00    +0.004 A 
ATOM     15  C   UNL     1      -6.765 -10.429  -1.683  0.00  0.00    +0.002 A 
ATOM     16  C   UNL     1      -6.266 -11.697  -1.919  0.00  0.00    +0.020 A 
ATOM     17  C   UNL     1      -4.900 -11.915  -1.908  0.00  0.00    +0.041 A 
ATOM     18  C   UNL     1      -4.034 -10.864  -1.665  0.00  0.00    +0.023 A 
ATOM     19 CL   UNL     1      -4.272 -13.506  -2.204  0.00  0.00    -0.084 Cl
ENDBRANCH  12  13
ENDBRANCH  11  12
ENDBRANCH   8  11
ENDBRANCH   3   5
BRANCH   1  20
ATOM     20  C   UNL     1       0.666  -3.275  -0.021  0.00  0.00    +0.134 C 
BRANCH  20  27
ATOM     21  C   UNL     1      -0.017   1.362   0.009  0.00  0.00    +0.001 A 
ATOM     22  C   UNL     1       1.170   2.083   0.002  0.00  0.00    +0.002 A 
ATOM     23  C   UNL     1       2.386   1.436  -0.013  0.00  0.00    +0.026 A 
ATOM     24  C   UNL     1       2.428   0.046  -0.021  0.00  0.00    +0.047 A 
ATOM     25  C   UNL     1       1.223  -0.681  -0.013  0.00  0.00    +0.003 A 
ATOM     26  C   UNL     1       0.002  -0.004   0.002  0.00  0.00    +0.010 A 
ATOM     27  C   UNL     1       1.604  -2.095  -0.025  0.00  0.00    -0.014 A 
ATOM     28  C   UNL     1       2.945  -2.141  -0.038  0.00  0.00    +0.087 A 
ATOM     29  N   UNL     1       3.455  -0.871  -0.036  0.00  0.00    -0.360 N 
ATOM     30  H   UNL     1       4.399  -0.650  -0.044  0.00  0.00    +0.165 HD
ENDBRANCH  20  27
ENDBRANCH   1  20
TORSDOF 6
