REMARK  Name = ZINC33625082
REMARK  6 active torsions:
REMARK  status: ('A' for Active; 'I' for Inactive)
REMARK    1  A    between atoms: C_7  and  C_11
REMARK    2  A    between atoms: C_11  and  C_12
REMARK    3  A    between atoms: C_12  and  C_14
REMARK    4  A    between atoms: C_12  and  N_17
REMARK    5  A    between atoms: C_18  and  C_20
REMARK    6  A    between atoms: C_23  and  C_25
REMARK                            x       y       z     vdW  Elec       q    Type
REMARK                         _______ _______ _______ _____ _____    ______ ____
ROOT
ATOM      1  C   UNL     1       1.874   4.726   1.447  0.00  0.00    +0.163 C 
ENDROOT
BRANCH   1   2
ATOM      2  C   UNL     1       2.888   5.841   1.456  0.00  0.00    +0.231 C 
ATOM      3  O   UNL     1       2.584   6.933   1.885  0.00  0.00    -0.274 OA
ATOM      4  N   UNL     1       4.132   5.623   0.986  0.00  0.00    -0.328 N 
ATOM      5  H   UNL     1       4.872   6.437   0.993  0.00  0.00    +0.145 HD
ATOM      6  H   UNL     1       4.408   4.633   0.596  0.00  0.00    +0.145 HD
ENDBRANCH   1   2
BRANCH   1   7
ATOM      7  N   UNL     1       0.609   5.211   2.004  0.00  0.00    -0.298 N 
ATOM      8  C   UNL     1       0.414   5.204   3.338  0.00  0.00    +0.264 C 
ATOM      9  O   UNL     1       1.288   4.795   4.078  0.00  0.00    -0.268 OA
ATOM     10  H   UNL     1      -0.181   5.582   1.335  0.00  0.00    +0.150 HD
BRANCH   8  11
ATOM     11  C   UNL     1      -0.858   5.692   3.898  0.00  0.00    +0.133 A 
ATOM     12  C   UNL     1      -1.083   5.697   5.251  0.00  0.00    +0.080 A 
ATOM     13  S   UNL     1      -2.687   6.354   5.333  0.00  0.00    -0.080 S 
ATOM     14  C   UNL     1      -2.951   6.574   3.633  0.00  0.00    +0.080 A 
ATOM     15  N   UNL     1      -1.830   6.151   3.109  0.00  0.00    -0.239 NA
BRANCH  14  16
ATOM     16  C   UNL     1      -4.168   7.123   2.934  0.00  0.00    +0.028 C 
ATOM     17  C   UNL     1      -4.430   8.555   3.410  0.00  0.00    +0.006 C 
ATOM     18  C   UNL     1      -5.701   9.083   2.741  0.00  0.00    -0.018 C 
ATOM     19  C   UNL     1      -6.871   8.154   3.075  0.00  0.00    -0.083 C 
ATOM     20  N   UNL     1      -6.573   6.798   2.598  0.00  0.00    +0.379 N 
ATOM     21  C   UNL     1      -5.382   6.251   3.262  0.00  0.00    -0.072 C 
ATOM     22  H   UNL     1      -7.427   6.138   2.811  0.00  0.00    -0.086 HD
ATOM     23  H   UNL     1      -6.389   6.822   1.514  0.00  0.00    -0.086 HD
ENDBRANCH  14  16
ENDBRANCH   8  11
ENDBRANCH   1   7
BRANCH   1  24
ATOM     24  C   UNL     1       1.649   4.252   0.009  0.00  0.00    +0.069 C 
BRANCH  24  31
ATOM     25  C   UNL     1      -3.016   3.796   0.051  0.00  0.00    +0.001 A 
ATOM     26  C   UNL     1      -3.430   2.471   0.048  0.00  0.00    +0.002 A 
ATOM     27  C   UNL     1      -2.508   1.447   0.033  0.00  0.00    +0.026 A 
ATOM     28  C   UNL     1      -1.149   1.741   0.016  0.00  0.00    +0.047 A 
ATOM     29  C   UNL     1      -0.734   3.086   0.026  0.00  0.00    +0.003 A 
ATOM     30  C   UNL     1      -1.686   4.108   0.040  0.00  0.00    +0.010 A 
ATOM     31  C   UNL     1       0.730   3.058   0.011  0.00  0.00    -0.020 A 
ATOM     32  C   UNL     1       1.098   1.767   0.001  0.00  0.00    +0.087 A 
ATOM     33  N   UNL     1      -0.011   0.966   0.007  0.00  0.00    -0.360 N 
ATOM     34  H   UNL     1      -0.093  -0.131   0.006  0.00  0.00    +0.165 HD
ENDBRANCH  24  31
ENDBRANCH   1  24
TORSDOF 6
