REMARK  Name = ZINC48331867
REMARK  6 active torsions:
REMARK  status: ('A' for Active; 'I' for Inactive)
REMARK    1  A    between atoms: C_1  and  N_2
REMARK    2  A    between atoms: C_10  and  S_11
REMARK    3  A    between atoms: S_11  and  C_12
REMARK    4  A    between atoms: C_12  and  C_13
REMARK    5  A    between atoms: N_15  and  C_16
REMARK    6  A    between atoms: C_17  and  C_21
REMARK                            x       y       z     vdW  Elec       q    Type
REMARK                         _______ _______ _______ _____ _____    ______ ____
ROOT
ATOM      1  C   UNL     1       0.074  -1.471   5.208  0.00  0.00    +0.228 C 
ATOM      2  O   UNL     1       0.061  -0.313   5.567  0.00  0.00    -0.275 OA
ATOM      3  N   UNL     1       0.096  -2.460   6.123  0.00  0.00    -0.279 N 
ATOM      4  H   UNL     1       0.106  -3.387   5.835  0.00  0.00    +0.155 HD
ENDROOT
BRANCH   3   5
ATOM      5  C   UNL     1       0.105  -2.154   7.475  0.00  0.00    +0.084 A 
ATOM      6  C   UNL     1       0.134  -3.033   8.548  0.00  0.00    +0.065 A 
ATOM      7  C   UNL     1       0.137  -2.442   9.867  0.00  0.00    +0.022 A 
ATOM      8  C   UNL     1       0.113  -1.097   9.907  0.00  0.00    +0.048 A 
ATOM      9  S   UNL     1       0.092  -0.636   8.189  0.00  0.00    -0.081 S 
BRANCH   6  10
ATOM     10  C   UNL     1       0.158  -4.486   8.354  0.00  0.00    +0.244 C 
ATOM     11  O   UNL     1       0.154  -4.950   7.229  0.00  0.00    -0.270 OA
ATOM     12  N   UNL     1       0.185  -5.308   9.422  0.00  0.00    -0.325 N 
ATOM     13  H   UNL     1       0.189  -4.938  10.319  0.00  0.00    +0.145 HD
ATOM     14  H   UNL     1       0.201  -6.269   9.294  0.00  0.00    +0.145 HD
ENDBRANCH   6  10
ENDBRANCH   3   5
BRANCH   1  15
ATOM     15  C   UNL     1       0.064  -1.804   3.738  0.00  0.00    +0.173 C 
BRANCH  15  16
ATOM     16  S   UNL     1       0.033  -0.269   2.771  0.00  0.00    -0.078 S 
BRANCH  16  26
ATOM     17  C   UNL     1      -0.018   1.461   0.010  0.00  0.00    +0.151 C 
ATOM     18  N   UNL     1       0.002  -0.004   0.002  0.00  0.00    -0.322 N 
ATOM     19  C   UNL     1       0.008  -0.820  -1.118  0.00  0.00    +0.069 A 
ATOM     20  C   UNL     1      -0.001  -0.578  -2.483  0.00  0.00    +0.029 A 
ATOM     21  C   UNL     1       0.009  -1.636  -3.369  0.00  0.00    +0.022 A 
ATOM     22  C   UNL     1       0.029  -2.943  -2.902  0.00  0.00    +0.043 A 
ATOM     23  C   UNL     1       0.038  -3.201  -1.549  0.00  0.00    +0.050 A 
ATOM     24  C   UNL     1       0.028  -2.140  -0.640  0.00  0.00    +0.092 A 
ATOM     25  N   UNL     1       0.033  -2.075   0.717  0.00  0.00    -0.222 NA
ATOM     26  C   UNL     1       0.024  -0.820   1.097  0.00  0.00    +0.170 A 
ATOM     27 CL   UNL     1       0.041  -4.261  -4.032  0.00  0.00    -0.083 Cl
ENDBRANCH  16  26
ENDBRANCH  15  16
ENDBRANCH   1  15
TORSDOF 5
