REMARK  Name = ZINC09130322
REMARK  5 active torsions:
REMARK  status: ('A' for Active; 'I' for Inactive)
REMARK    1  A    between atoms: C_3  and  C_6
REMARK    2  A    between atoms: C_9  and  C_32
REMARK    3  A    between atoms: C_13  and  C_16
REMARK    4  A    between atoms: N_18  and  C_19
REMARK    5  A    between atoms: C_20  and  C_28
REMARK                            x       y       z     vdW  Elec       q    Type
REMARK                         _______ _______ _______ _____ _____    ______ ____
ROOT
ATOM      1  C   UNL     1       3.599   0.625  -0.029  0.00  0.00    +0.140 C 
ATOM      2  C   UNL     1       4.122   0.345   1.384  0.00  0.00    +0.066 C 
ATOM      3  C   UNL     1       5.655   0.362   1.384  0.00  0.00    +0.215 C 
ATOM      4  N   UNL     1       6.138  -0.489   0.292  0.00  0.00    -0.238 N 
ATOM      5  C   UNL     1       5.377  -0.856  -0.767  0.00  0.00    +0.130 A 
ATOM      6  C   UNL     1       6.155  -1.653  -1.585  0.00  0.00    +0.096 A 
ATOM      7  C   UNL     1       7.429  -1.749  -0.969  0.00  0.00    +0.149 A 
ATOM      8  N   UNL     1       7.402  -1.056   0.137  0.00  0.00    -0.177 NA
ATOM      9  N   UNL     1       4.061  -0.453  -0.926  0.00  0.00    -0.319 N 
ATOM     10  H   UNL     1       3.476  -0.858  -1.585  0.00  0.00    +0.148 HD
ENDROOT
BRANCH   1  13
ATOM     11  C   UNL     1      -0.016   1.341   0.009  0.00  0.00    +0.041 A 
ATOM     12  C   UNL     1       1.331   1.769  -0.001  0.00  0.00    +0.046 A 
ATOM     13  C   UNL     1       2.092   0.660  -0.014  0.00  0.00    +0.125 A 
ATOM     14  O   UNL     1       1.282  -0.411  -0.012  0.00  0.00    -0.466 OA
ATOM     15  C   UNL     1       0.002  -0.004   0.002  0.00  0.00    +0.195 A 
ENDBRANCH   1  13
BRANCH   6  16
ATOM     16  C   UNL     1       5.744  -2.278  -2.847  0.00  0.00    +0.253 C 
ATOM     17  O   UNL     1       4.614  -2.115  -3.267  0.00  0.00    -0.270 OA
ATOM     18  N   UNL     1       6.618  -3.034  -3.541  0.00  0.00    -0.275 N 
ATOM     19  H   UNL     1       7.519  -3.164  -3.207  0.00  0.00    +0.156 HD
BRANCH  18  20
ATOM     20  C   UNL     1       6.229  -3.624  -4.733  0.00  0.00    +0.085 A 
ATOM     21  C   UNL     1       6.984  -4.431  -5.571  0.00  0.00    +0.068 A 
ATOM     22  C   UNL     1       6.338  -4.929  -6.772  0.00  0.00    -0.023 A 
ATOM     23  C   UNL     1       5.056  -4.530  -6.916  0.00  0.00    -0.004 A 
ATOM     24  S   UNL     1       4.733  -3.533  -5.491  0.00  0.00    -0.077 S 
ATOM     25  C   UNL     1       4.128  -4.871  -8.041  0.00  0.00    +0.043 C 
ATOM     26  C   UNL     1       4.963  -5.435  -9.200  0.00  0.00    +0.005 C 
ATOM     27  C   UNL     1       5.922  -6.494  -8.651  0.00  0.00    +0.005 C 
ATOM     28  C   UNL     1       7.007  -5.825  -7.804  0.00  0.00    +0.037 C 
BRANCH  21  29
ATOM     29  C   UNL     1       8.376  -4.766  -5.257  0.00  0.00    +0.244 C 
ATOM     30  O   UNL     1       8.630  -5.758  -4.599  0.00  0.00    -0.270 OA
ATOM     31  N   UNL     1       9.375  -3.976  -5.698  0.00  0.00    -0.325 N 
ATOM     32  H   UNL     1       9.173  -3.186  -6.222  0.00  0.00    +0.145 HD
ATOM     33  H   UNL     1      10.296  -4.198  -5.490  0.00  0.00    +0.145 HD
ENDBRANCH  21  29
ENDBRANCH  18  20
ENDBRANCH   6  16
BRANCH   3  34
ATOM     34  C   UNL     1       6.174  -0.171   2.721  0.00  0.00    +0.412 C 
ATOM     35  F   UNL     1       5.723  -1.482   2.906  0.00  0.00    -0.168 F 
ATOM     36  F   UNL     1       7.573  -0.154   2.718  0.00  0.00    -0.168 F 
ATOM     37  F   UNL     1       5.700   0.636   3.760  0.00  0.00    -0.168 F 
ENDBRANCH   3  34
TORSDOF 5
