REMARK  Name = ZINC49508605
REMARK  9 active torsions:
REMARK  status: ('A' for Active; 'I' for Inactive)
REMARK    1  A    between atoms: C_1  and  N_2
REMARK    2  A    between atoms: C_10  and  C_12
REMARK    3  A    between atoms: C_12  and  C_14
REMARK    4  A    between atoms: C_12  and  N_35
REMARK    5  A    between atoms: C_14  and  N_15
REMARK    6  A    between atoms: C_16  and  C_18
REMARK    7  A    between atoms: N_20  and  C_21
REMARK    8  A    between atoms: N_35  and  C_36
REMARK    9  A    between atoms: N_35  and  C_37
REMARK                            x       y       z     vdW  Elec       q    Type
REMARK                         _______ _______ _______ _____ _____    ______ ____
ROOT
ATOM      1  N   UNL     1       6.700  -2.465   0.905  0.00  0.00    -0.309 N 
ATOM      2  C   UNL     1       7.521  -2.074   1.901  0.00  0.00    +0.299 C 
ATOM      3  O   UNL     1       7.088  -1.411   2.820  0.00  0.00    -0.265 OA
ATOM      4  H   UNL     1       7.047  -2.995   0.171  0.00  0.00    +0.149 HD
ENDROOT
BRANCH   2   5
ATOM      5  C   UNL     1       8.964  -2.458   1.872  0.00  0.00    +0.303 C 
ATOM      6  O   UNL     1       9.398  -3.122   0.953  0.00  0.00    -0.265 OA
ATOM      7  N   UNL     1       9.785  -2.068   2.867  0.00  0.00    -0.278 N 
ATOM      8  H   UNL     1       9.425  -1.603   3.639  0.00  0.00    +0.155 HD
BRANCH   7   9
ATOM      9  C   UNL     1      11.155  -2.333   2.788  0.00  0.00    +0.034 A 
ATOM     10  C   UNL     1      11.799  -2.306   1.558  0.00  0.00    +0.028 A 
ATOM     11  C   UNL     1      13.157  -2.560   1.476  0.00  0.00    -0.024 A 
ATOM     12  C   UNL     1      13.878  -2.837   2.629  0.00  0.00    +0.043 A 
ATOM     13  C   UNL     1      13.230  -2.883   3.858  0.00  0.00    -0.023 A 
ATOM     14  C   UNL     1      11.877  -2.620   3.939  0.00  0.00    +0.028 A 
ATOM     15  C   UNL     1      13.992  -3.236   5.109  0.00  0.00    +0.046 C 
ATOM     16  C   UNL     1      15.425  -2.717   5.010  0.00  0.00    +0.101 C 
ATOM     17  C   UNL     1      16.012  -3.091   3.676  0.00  0.00    +0.220 C 
ATOM     18  O   UNL     1      17.181  -3.403   3.601  0.00  0.00    -0.275 OA
ATOM     19  N   UNL     1      15.255  -3.085   2.566  0.00  0.00    -0.271 N 
ATOM     20  C   UNL     1      15.877  -3.341   1.259  0.00  0.00    +0.114 C 
ATOM     21  C   UNL     1      15.323  -2.310   0.267  0.00  0.00    +0.024 C 
ATOM     22  C   UNL     1      13.817  -2.526   0.123  0.00  0.00    +0.038 C 
ENDBRANCH   7   9
ENDBRANCH   2   5
BRANCH   1  23
ATOM     23  C   UNL     1       5.285  -2.088   0.933  0.00  0.00    +0.094 C 
BRANCH  23  24
ATOM     24  C   UNL     1       4.609  -2.547  -0.361  0.00  0.00    -0.021 C 
BRANCH  24  34
ATOM     25  C   UNL     1       3.823  -8.982   0.386  0.00  0.00    +0.129 C 
ATOM     26  N   UNL     1       4.616  -8.215  -0.578  0.00  0.00    -0.333 N 
ATOM     27  C   UNL     1       5.409  -8.902  -1.606  0.00  0.00    +0.105 C 
ATOM     28  C   UNL     1       6.788  -8.232  -1.661  0.00  0.00    +0.024 C 
ATOM     29  C   UNL     1       6.613  -6.777  -2.096  0.00  0.00    +0.038 C 
ATOM     30  C   UNL     1       5.575  -6.093  -1.246  0.00  0.00    -0.026 A 
ATOM     31  C   UNL     1       4.627  -6.816  -0.537  0.00  0.00    +0.033 A 
ATOM     32  C   UNL     1       3.675  -6.154   0.230  0.00  0.00    +0.023 A 
ATOM     33  C   UNL     1       3.670  -4.775   0.286  0.00  0.00    +0.004 A 
ATOM     34  C   UNL     1       4.613  -4.053  -0.422  0.00  0.00    -0.059 A 
ATOM     35  C   UNL     1       5.569  -4.710  -1.180  0.00  0.00    +0.007 A 
ENDBRANCH  24  34
BRANCH  24  36
ATOM     36  N   UNL     1       3.224  -2.059  -0.390  0.00  0.00    +0.382 N 
ATOM     37  C   UNL     1       3.223  -0.592  -0.447  0.00  0.00    -0.096 C 
ATOM     38  C   UNL     1       2.541  -2.597  -1.574  0.00  0.00    -0.096 C 
ATOM     39  H   UNL     1       2.743  -2.364   0.444  0.00  0.00    -0.082 HD
ENDBRANCH  24  36
ENDBRANCH  23  24
ENDBRANCH   1  23
TORSDOF 6
