REMARK  Name = ZINC24986322
REMARK  7 active torsions:
REMARK  status: ('A' for Active; 'I' for Inactive)
REMARK    1  A    between atoms: C_1  and  S_2
REMARK    2  A    between atoms: S_2  and  C_3
REMARK    3  A    between atoms: C_3  and  C_4
REMARK    4  A    between atoms: C_4  and  C_5
REMARK    5  A    between atoms: C_5  and  C_7
REMARK    6  A    between atoms: C_5  and  N_24
REMARK    7  A    between atoms: C_25  and  C_27
REMARK                            x       y       z     vdW  Elec       q    Type
REMARK                         _______ _______ _______ _____ _____    ______ ____
ROOT
ATOM      1  C   UNL     1       1.761  -2.328   2.915  0.00  0.00    +0.160 C 
ENDROOT
BRANCH   1   2
ATOM      2  C   UNL     1       1.850  -3.828   3.025  0.00  0.00    +0.236 C 
ATOM      3  O   UNL     1       1.030  -4.438   3.677  0.00  0.00    -0.274 OA
ATOM      4  N   UNL     1       2.842  -4.492   2.398  0.00  0.00    -0.300 N 
ATOM      5  C   UNL     1       3.905  -3.760   1.695  0.00  0.00    +0.110 C 
ATOM      6  C   UNL     1       3.993  -4.281   0.257  0.00  0.00    +0.047 C 
ATOM      7  C   UNL     1       4.180  -5.799   0.279  0.00  0.00    +0.064 C 
ATOM      8  C   UNL     1       2.981  -6.459   0.960  0.00  0.00    +0.047 C 
ATOM      9  C   UNL     1       2.884  -5.960   2.410  0.00  0.00    +0.110 C 
ATOM     10  C   UNL     1       4.314  -6.314  -1.129  0.00  0.00    +0.057 A 
ATOM     11  C   UNL     1       5.492  -6.679  -1.685  0.00  0.00    +0.039 A 
ATOM     12  N   UNL     1       5.252  -7.086  -2.931  0.00  0.00    -0.349 N 
ATOM     13  C   UNL     1       3.970  -6.989  -3.174  0.00  0.00    +0.171 A 
ATOM     14  N   UNL     1       3.352  -6.509  -2.069  0.00  0.00    -0.348 N 
ATOM     15  H   UNL     1       2.403  -6.337  -1.968  0.00  0.00    +0.166 HD
ATOM     16  C   UNL     1       6.807  -6.602  -0.949  0.00  0.00    +0.070 C 
ATOM     17  C   UNL     1       6.609  -5.706   0.281  0.00  0.00    +0.088 C 
ATOM     18  N   UNL     1       5.410  -6.132   1.016  0.00  0.00    -0.305 NA
ATOM     19  H   UNL     1       5.394  -5.735   1.944  0.00  0.00    +0.123 HD
ATOM     20  H   UNL     1       5.920  -7.404  -3.558  0.00  0.00    +0.166 HD
ENDBRANCH   1   2
BRANCH   1  21
ATOM     21  N   UNL     1       1.020  -1.797   4.062  0.00  0.00    -0.300 N 
ATOM     22  C   UNL     1       1.224  -0.528   4.467  0.00  0.00    +0.245 C 
ATOM     23  O   UNL     1       2.022   0.177   3.880  0.00  0.00    -0.270 OA
ATOM     24  H   UNL     1       0.384  -2.360   4.531  0.00  0.00    +0.150 HD
BRANCH  22  25
ATOM     25  C   UNL     1       0.477   0.007   5.625  0.00  0.00    +0.037 A 
ATOM     26  C   UNL     1      -0.440  -0.815   6.303  0.00  0.00    +0.013 A 
ATOM     27  C   UNL     1      -1.138  -0.346   7.369  0.00  0.00    +0.009 A 
ATOM     28  C   UNL     1      -0.948   0.977   7.808  0.00  0.00    -0.018 A 
ATOM     29  C   UNL     1      -1.659   1.484   8.909  0.00  0.00    +0.008 A 
ATOM     30  C   UNL     1      -1.454   2.769   9.311  0.00  0.00    +0.001 A 
ATOM     31  C   UNL     1      -0.548   3.593   8.646  0.00  0.00    +0.001 A 
ATOM     32  C   UNL     1       0.159   3.138   7.576  0.00  0.00    +0.008 A 
ATOM     33  C   UNL     1      -0.026   1.816   7.132  0.00  0.00    -0.017 A 
ATOM     34  C   UNL     1       0.691   1.312   6.036  0.00  0.00    +0.021 A 
ENDBRANCH  22  25
ENDBRANCH   1  21
BRANCH   1  35
ATOM     35  C   UNL     1       1.033  -1.954   1.621  0.00  0.00    +0.042 C 
BRANCH  35  36
ATOM     36  C   UNL     1       1.074  -0.436   1.434  0.00  0.00    +0.071 C 
BRANCH  36  38
ATOM     37  C   UNL     1       0.349   1.815  -0.173  0.00  0.00    +0.084 C 
ATOM     38  S   UNL     1       0.212   0.007  -0.099  0.00  0.00    -0.164 S 
ENDBRANCH  36  38
ENDBRANCH  35  36
ENDBRANCH   1  35
TORSDOF 6
