REMARK  Name = ZINC36601338
REMARK  15 active torsions:
REMARK  status: ('A' for Active; 'I' for Inactive)
REMARK    1  A    between atoms: C_1  and  C_2
REMARK    2  A    between atoms: C_5  and  C_7
REMARK    3  A    between atoms: C_7  and  N_8
REMARK    4  A    between atoms: N_8  and  C_9
REMARK    5  A    between atoms: C_9  and  C_11
REMARK    6  A    between atoms: C_9  and  C_20
REMARK    7  A    between atoms: C_12  and  O_19
REMARK    8  A    between atoms: C_14  and  O_18
REMARK    9  A    between atoms: C_16  and  O_17
REMARK   10  A    between atoms: N_22  and  C_23
REMARK   11  A    between atoms: C_23  and  C_24
REMARK   12  A    between atoms: C_23  and  C_25
REMARK   13  A    between atoms: C_23  and  C_26
REMARK   14  A    between atoms: C_27  and  C_29
REMARK   15  A    between atoms: C_33  and  N_35
REMARK                            x       y       z     vdW  Elec       q    Type
REMARK                         _______ _______ _______ _____ _____    ______ ____
ROOT
ATOM      1  C   UNL     1       3.345  -2.720  -2.895  0.00  0.00    +0.200 C 
ENDROOT
BRANCH   1   2
ATOM      2  C   UNL     1       3.129  -1.333  -3.443  0.00  0.00    +0.065 A 
ATOM      3  C   UNL     1       2.817  -0.289  -2.585  0.00  0.00    +0.129 A 
ATOM      4  C   UNL     1       2.618   0.987  -3.090  0.00  0.00    +0.091 A 
ATOM      5  C   UNL     1       2.732   1.220  -4.452  0.00  0.00    +0.124 A 
ATOM      6  C   UNL     1       3.046   0.176  -5.310  0.00  0.00    +0.091 A 
ATOM      7  C   UNL     1       3.248  -1.099  -4.805  0.00  0.00    +0.129 A 
BRANCH   7   8
ATOM      8  O   UNL     1       3.560  -2.121  -5.645  0.00  0.00    -0.506 OA
ATOM      9  H   UNL     1       2.791  -2.592  -5.994  0.00  0.00    +0.292 HD
ENDBRANCH   7   8
BRANCH   5  10
ATOM     10  O   UNL     1       2.537   2.470  -4.947  0.00  0.00    -0.507 OA
ATOM     11  H   UNL     1       3.340   3.007  -4.988  0.00  0.00    +0.292 HD
ENDBRANCH   5  10
BRANCH   3  12
ATOM     12  O   UNL     1       2.705  -0.517  -1.250  0.00  0.00    -0.506 OA
ATOM     13  H   UNL     1       3.510  -0.328  -0.750  0.00  0.00    +0.292 HD
ENDBRANCH   3  12
ENDBRANCH   1   2
BRANCH   1  14
ATOM     14  C   UNL     1       3.835  -2.628  -1.473  0.00  0.00    +0.239 C 
ATOM     15  O   UNL     1       3.192  -3.131  -0.576  0.00  0.00    -0.273 OA
ATOM     16  N   UNL     1       4.988  -1.986  -1.198  0.00  0.00    -0.309 N 
ATOM     17  H   UNL     1       5.502  -1.584  -1.915  0.00  0.00    +0.149 HD
BRANCH  16  18
ATOM     18  C   UNL     1       5.464  -1.896   0.184  0.00  0.00    +0.026 C 
ATOM     19  C   UNL     1       5.683  -3.304   0.741  0.00  0.00    +0.031 C 
ATOM     20  C   UNL     1       6.784  -1.123   0.220  0.00  0.00    +0.031 C 
ATOM     21  C   UNL     1       4.423  -1.167   1.036  0.00  0.00    +0.031 C 
ENDBRANCH  16  18
ENDBRANCH   1  14
BRANCH   1  22
ATOM     22  N   UNL     1       2.081  -3.461  -2.929  0.00  0.00    -0.274 N 
ATOM     23  C   UNL     1       2.074  -4.767  -3.259  0.00  0.00    +0.248 C 
ATOM     24  O   UNL     1       1.019  -5.359  -3.375  0.00  0.00    -0.270 OA
BRANCH  23  25
ATOM     25  C   UNL     1       3.350  -5.481  -3.479  0.00  0.00    +0.039 A 
ATOM     26  C   UNL     1       4.530  -5.001  -2.907  0.00  0.00    +0.013 A 
ATOM     27  C   UNL     1       5.717  -5.671  -3.116  0.00  0.00    +0.003 A 
ATOM     28  C   UNL     1       5.740  -6.817  -3.891  0.00  0.00    +0.033 A 
ATOM     29  C   UNL     1       4.575  -7.298  -4.461  0.00  0.00    +0.127 A 
ATOM     30  C   UNL     1       3.380  -6.641  -4.255  0.00  0.00    +0.045 A 
BRANCH  29  31
ATOM     31  N   UNL     1       4.610  -8.525  -5.289  0.00  0.00    +0.056 N 
ATOM     32  O   UNL     1       5.656  -9.105  -5.466  0.00  0.00    -0.126 OA
ATOM     33  O   UNL     1       3.592  -8.947  -5.787  0.00  0.00    -0.126 OA
ENDBRANCH  29  31
ENDBRANCH  23  25
BRANCH  22  34
ATOM     34  C   UNL     1       0.825  -2.781  -2.604  0.00  0.00    +0.183 C 
BRANCH  34  39
ATOM     35  C   UNL     1       0.282   0.482  -6.411  0.00  0.00    +0.086 C 
ATOM     36  C   UNL     1       0.046  -0.691  -5.495  0.00  0.00    +0.102 A 
ATOM     37  C   UNL     1      -0.935  -1.602  -5.620  0.00  0.00    +0.045 A 
ATOM     38  C   UNL     1      -0.783  -2.517  -4.553  0.00  0.00    +0.046 A 
ATOM     39  C   UNL     1       0.283  -2.110  -3.839  0.00  0.00    +0.122 A 
ATOM     40  O   UNL     1       0.784  -1.006  -4.418  0.00  0.00    -0.463 OA
ENDBRANCH  34  39
ENDBRANCH  22  34
ENDBRANCH   1  22
TORSDOF 11
