REMARK  Name = ZINC52094236
REMARK  3 active torsions:
REMARK  status: ('A' for Active; 'I' for Inactive)
REMARK    1  A    between atoms: C_5  and  C_6
REMARK    2  A    between atoms: C_6  and  C_8
REMARK    3  A    between atoms: C_6  and  N_21
REMARK                            x       y       z     vdW  Elec       q    Type
REMARK                         _______ _______ _______ _____ _____    ______ ____
ROOT
ATOM      1  C   UNL     1      -1.573  -1.266   1.410  0.00  0.00    -0.042 A 
ATOM      2  C   UNL     1      -1.179  -2.531   1.798  0.00  0.00    +0.031 A 
ATOM      3  C   UNL     1      -1.443  -2.972   3.086  0.00  0.00    +0.067 A 
ATOM      4  C   UNL     1      -2.107  -2.135   3.985  0.00  0.00    +0.068 A 
ATOM      5  C   UNL     1      -2.499  -0.866   3.587  0.00  0.00    +0.043 A 
ATOM      6  C   UNL     1      -2.226  -0.433   2.304  0.00  0.00    +0.022 A 
ATOM      7 BR   UNL     1      -2.754   1.300   1.762  0.00  0.00    -0.050 Br
ATOM      8  N   UNL     1      -2.228  -2.842   5.179  0.00  0.00    -0.306 N 
ATOM      9  H   UNL     1      -2.647  -2.517   5.992  0.00  0.00    +0.170 HD
ATOM     10  C   UNL     1      -1.663  -4.053   5.014  0.00  0.00    +0.325 A 
ATOM     11  O   UNL     1      -1.599  -4.919   5.867  0.00  0.00    -0.247 OA
ATOM     12  N   UNL     1      -1.181  -4.162   3.762  0.00  0.00    -0.306 N 
ATOM     13  H   UNL     1      -0.729  -4.936   3.393  0.00  0.00    +0.170 HD
ENDROOT
BRANCH   1  14
ATOM     14  C   UNL     1      -1.286  -0.786   0.011  0.00  0.00    -0.012 C 
BRANCH  14  19
ATOM     15  C   UNL     1      -0.017   1.378   0.010  0.00  0.00    +0.010 A 
ATOM     16  C   UNL     1       1.160   2.051   0.002  0.00  0.00    +0.045 A 
ATOM     17  S   UNL     1       2.348   0.719  -0.017  0.00  0.00    -0.105 S 
ATOM     18  C   UNL     1       1.196  -0.645  -0.013  0.00  0.00    +0.047 A 
ATOM     19  C   UNL     1       0.002  -0.004   0.002  0.00  0.00    -0.051 A 
ENDBRANCH  14  19
BRANCH  14  20
ATOM     20  N   UNL     1      -1.163  -1.943  -0.887  0.00  0.00    +0.385 N 
ATOM     21  H   UNL     1      -0.970  -1.622  -1.824  0.00  0.00    -0.089 HD
ATOM     22  H   UNL     1      -0.408  -2.534  -0.572  0.00  0.00    -0.089 HD
ATOM     23  H   UNL     1      -2.025  -2.466  -0.881  0.00  0.00    -0.089 HD
ENDBRANCH  14  20
ENDBRANCH   1  14
TORSDOF 3
