REMARK  Name = ZINC40783340
REMARK  7 active torsions:
REMARK  status: ('A' for Active; 'I' for Inactive)
REMARK    1  A    between atoms: C_1  and  C_2
REMARK    2  A    between atoms: C_2  and  C_3
REMARK    3  A    between atoms: C_3  and  C_5
REMARK    4  A    between atoms: C_3  and  N_6
REMARK    5  A    between atoms: C_8  and  N_22
REMARK    6  A    between atoms: C_9  and  N_13
REMARK    7  A    between atoms: N_13  and  C_14
REMARK                            x       y       z     vdW  Elec       q    Type
REMARK                         _______ _______ _______ _____ _____    ______ ____
ROOT
ATOM      1  N   UNL     1       1.948   0.854  -1.296  0.00  0.00    -0.325 N 
ATOM      2  C   UNL     1       2.713   0.756  -2.451  0.00  0.00    +0.145 A 
ATOM      3  C   UNL     1       4.100   0.910  -2.399  0.00  0.00    +0.105 A 
ATOM      4  C   UNL     1       4.821   0.802  -3.589  0.00  0.00    +0.149 A 
ATOM      5  N   UNL     1       4.164   0.558  -4.721  0.00  0.00    -0.219 NA
ATOM      6  C   UNL     1       2.854   0.419  -4.727  0.00  0.00    +0.225 A 
ATOM      7  N   UNL     1       2.137   0.509  -3.625  0.00  0.00    -0.219 NA
ATOM      8  H   UNL     1       2.376   1.034  -0.444  0.00  0.00    +0.148 HD
ENDROOT
BRANCH   3   9
ATOM      9  N   UNL     1       4.752   1.167  -1.181  0.00  0.00    -0.353 N 
ATOM     10  H   UNL     1       4.238   1.240  -0.362  0.00  0.00    +0.143 HD
ATOM     11  H   UNL     1       5.716   1.272  -1.160  0.00  0.00    +0.143 HD
ENDBRANCH   3   9
BRANCH   1  12
ATOM     12  C   UNL     1       0.495   0.684  -1.363  0.00  0.00    +0.068 C 
ATOM     13  C   UNL     1       0.151  -0.805  -1.289  0.00  0.00    +0.028 C 
BRANCH  12  15
ATOM     14  C   UNL     1       0.080   2.922  -0.332  0.00  0.00    +0.005 C 
ATOM     15  C   UNL     1      -0.159   1.417  -0.190  0.00  0.00    +0.018 C 
ENDBRANCH  12  15
ENDBRANCH   1  12
BRANCH   4  16
ATOM     16  N   UNL     1       6.204   0.947  -3.592  0.00  0.00    -0.297 N 
ATOM     17  H   UNL     1       6.685   1.029  -2.754  0.00  0.00    +0.154 HD
BRANCH  16  18
ATOM     18  C   UNL     1       6.901   0.976  -4.805  0.00  0.00    +0.051 A 
ATOM     19  C   UNL     1       6.250   1.350  -5.973  0.00  0.00    +0.026 A 
ATOM     20  C   UNL     1       6.941   1.377  -7.169  0.00  0.00    +0.022 A 
ATOM     21  C   UNL     1       8.280   1.032  -7.204  0.00  0.00    +0.042 A 
ATOM     22  C   UNL     1       8.932   0.659  -6.042  0.00  0.00    +0.041 A 
ATOM     23  C   UNL     1       8.248   0.635  -4.842  0.00  0.00    +0.063 A 
ATOM     24 CL   UNL     1       9.068   0.174  -3.383  0.00  0.00    -0.082 Cl
ATOM     25 CL   UNL     1       9.145   1.067  -8.709  0.00  0.00    -0.083 Cl
ENDBRANCH  16  18
ENDBRANCH   4  16
TORSDOF 5
