REMARK  Name = ZINC20465382
REMARK  10 active torsions:
REMARK  status: ('A' for Active; 'I' for Inactive)
REMARK    1  A    between atoms: C_1  and  C_2
REMARK    2  A    between atoms: C_5  and  S_8
REMARK    3  A    between atoms: S_8  and  N_11
REMARK    4  A    between atoms: N_11  and  C_12
REMARK    5  A    between atoms: C_12  and  C_13
REMARK    6  A    between atoms: C_15  and  N_25
REMARK    7  A    between atoms: C_17  and  O_24
REMARK    8  A    between atoms: C_19  and  C_22
REMARK    9  A    between atoms: C_22  and  O_23
REMARK   10  A    between atoms: N_28  and  C_31
REMARK                            x       y       z     vdW  Elec       q    Type
REMARK                         _______ _______ _______ _____ _____    ______ ____
ROOT
ATOM      1  C   UNL     1       4.521   1.465  -3.579  0.00  0.00    +0.154 C 
ATOM      2  C   UNL     1       4.429   2.574  -4.645  0.00  0.00    +0.118 C 
ATOM      3  C   UNL     1       3.438   2.006  -5.694  0.00  0.00    +0.165 C 
ATOM      4  C   UNL     1       3.504   0.483  -5.414  0.00  0.00    +0.174 C 
ATOM      5  O   UNL     1       3.628   0.410  -3.977  0.00  0.00    -0.366 OA
ENDROOT
BRANCH   2   6
ATOM      6  N   UNL     1       3.902   3.812  -4.055  0.00  0.00    -0.292 NA
ATOM      7  C   UNL     1       3.340   4.690  -5.090  0.00  0.00    +0.104 C 
ATOM      8  C   UNL     1       2.732   5.929  -4.429  0.00  0.00    +0.120 C 
ATOM      9  N   UNL     1       3.769   6.627  -3.656  0.00  0.00    -0.327 N 
ATOM     10  C   UNL     1       4.331   5.748  -2.621  0.00  0.00    +0.120 C 
ATOM     11  C   UNL     1       4.939   4.510  -3.282  0.00  0.00    +0.104 C 
BRANCH   9  12
ATOM     12  C   UNL     1       3.268   7.806  -3.094  0.00  0.00    +0.030 A 
ATOM     13  C   UNL     1       3.340   8.008  -1.722  0.00  0.00    +0.026 A 
ATOM     14  C   UNL     1       2.849   9.175  -1.171  0.00  0.00    +0.040 A 
ATOM     15  C   UNL     1       2.274  10.138  -1.983  0.00  0.00    +0.124 A 
ATOM     16  C   UNL     1       2.196   9.936  -3.351  0.00  0.00    +0.040 A 
ATOM     17  C   UNL     1       2.691   8.773  -3.907  0.00  0.00    +0.026 A 
ATOM     18  F   UNL     1       1.790  11.276  -1.441  0.00  0.00    -0.205 F 
ENDBRANCH   9  12
ENDBRANCH   2   6
BRANCH   3  19
ATOM     19  O   UNL     1       2.117   2.507  -5.475  0.00  0.00    -0.388 OA
ATOM     20  H   UNL     1       1.295   2.199  -6.137  0.00  0.00    +0.210 HD
ENDBRANCH   3  19
BRANCH   1  21
ATOM     21  C   UNL     1       4.098   2.017  -2.216  0.00  0.00    +0.139 C 
BRANCH  21  22
ATOM     22  N   UNL     1       3.936   0.910  -1.270  0.00  0.00    -0.187 NA
ATOM     23  H   UNL     1       3.707  -0.100  -1.639  0.00  0.00    +0.148 HD
BRANCH  22  24
ATOM     24  S   UNL     1       3.849   1.217   0.355  0.00  0.00    +0.058 S 
ATOM     25  O   UNL     1       4.935   2.080   0.664  0.00  0.00    -0.153 OA
ATOM     26  O   UNL     1       3.668  -0.038   0.996  0.00  0.00    -0.153 OA
BRANCH  24  31
ATOM     27  C   UNL     1      -1.198   4.384   1.307  0.00  0.00    +0.044 C 
ATOM     28  C   UNL     1       0.063   3.593   1.069  0.00  0.00    -0.050 A 
ATOM     29  C   UNL     1       0.031   2.211   1.114  0.00  0.00    +0.005 A 
ATOM     30  C   UNL     1       1.188   1.486   0.902  0.00  0.00    +0.029 A 
ATOM     31  C   UNL     1       2.375   2.142   0.633  0.00  0.00    +0.105 A 
ATOM     32  C   UNL     1       2.406   3.523   0.582  0.00  0.00    +0.029 A 
ATOM     33  C   UNL     1       1.250   4.248   0.800  0.00  0.00    +0.005 A 
ENDBRANCH  24  31
ENDBRANCH  22  24
ENDBRANCH  21  22
ENDBRANCH   1  21
BRANCH   4  34
ATOM     34  C   UNL     1       2.223  -0.211  -5.880  0.00  0.00    +0.190 C 
BRANCH  34  35
ATOM     35  O   UNL     1       2.320  -1.613  -5.621  0.00  0.00    -0.392 OA
ATOM     36  H   UNL     1       1.488  -2.280  -5.891  0.00  0.00    +0.210 HD
ENDBRANCH  34  35
ENDBRANCH   4  34
TORSDOF 9
