REMARK  Name = ZINC29375684
REMARK  12 active torsions:
REMARK  status: ('A' for Active; 'I' for Inactive)
REMARK    1  A    between atoms: C_1  and  C_2
REMARK    2  A    between atoms: C_2  and  C_3
REMARK    3  A    between atoms: C_3  and  C_4
REMARK    4  A    between atoms: C_3  and  C_5
REMARK    5  A    between atoms: C_3  and  N_6
REMARK    6  A    between atoms: C_7  and  C_9
REMARK    7  A    between atoms: C_9  and  C_11
REMARK    8  A    between atoms: C_9  and  S_12
REMARK    9  A    between atoms: S_12  and  C_13
REMARK   10  A    between atoms: C_13  and  C_15
REMARK   11  A    between atoms: C_13  and  C_16
REMARK   12  A    between atoms: N_22  and  C_23
REMARK                            x       y       z     vdW  Elec       q    Type
REMARK                         _______ _______ _______ _____ _____    ______ ____
ROOT
ATOM      1  C   UNL     1       1.635   3.792   0.362  0.00  0.00    +0.149 A 
ATOM      2  N   UNL     1       0.756   4.592  -0.216  0.00  0.00    -0.198 NA
ATOM      3  C   UNL     1       0.868   5.912  -0.084  0.00  0.00    +0.217 A 
ATOM      4  N   UNL     1       1.866   6.425   0.628  0.00  0.00    -0.181 NA
ATOM      5  C   UNL     1       2.747   5.617   1.207  0.00  0.00    +0.224 A 
ATOM      6  N   UNL     1       2.625   4.298   1.075  0.00  0.00    -0.198 NA
ATOM      7  N   UNL     1       3.786   6.145   1.950  0.00  0.00    -0.284 N 
ATOM      8  N   UNL     1      -0.050   6.747  -0.688  0.00  0.00    -0.327 N 
ATOM      9  H   UNL     1       4.462   5.476   2.503  0.00  0.00    +0.155 HD
ATOM     10  H   UNL     1       0.043   7.838  -0.579  0.00  0.00    +0.145 HD
ATOM     11  H   UNL     1      -0.875   6.322  -1.278  0.00  0.00    +0.145 HD
ENDROOT
BRANCH   7  12
ATOM     12  C   UNL     1       3.977   7.529   1.998  0.00  0.00    +0.034 A 
ATOM     13  C   UNL     1       3.678   8.312   0.890  0.00  0.00    +0.023 A 
ATOM     14  C   UNL     1       3.863   9.680   0.943  0.00  0.00    +0.002 A 
ATOM     15  C   UNL     1       4.356  10.268   2.093  0.00  0.00    +0.000 A 
ATOM     16  C   UNL     1       4.661   9.491   3.195  0.00  0.00    +0.002 A 
ATOM     17  C   UNL     1       4.473   8.123   3.151  0.00  0.00    +0.023 A 
ENDBRANCH   7  12
BRANCH   1  18
ATOM     18  C   UNL     1       1.504   2.298   0.211  0.00  0.00    +0.112 C 
ATOM     19  C   UNL     1       1.948   1.887  -1.194  0.00  0.00    +0.027 C 
BRANCH  18  20
ATOM     20  S   UNL     1      -0.226   1.815   0.465  0.00  0.00    -0.137 S 
BRANCH  20  21
ATOM     21  C   UNL     1      -0.188   0.002   0.403  0.00  0.00    +0.130 C 
ATOM     22  C   UNL     1       0.625  -0.531   1.584  0.00  0.00    +0.029 C 
BRANCH  21  24
ATOM     23  N   UNL     1      -1.864  -1.784   0.057  0.00  0.00    -0.309 N 
ATOM     24  C   UNL     1      -1.595  -0.533   0.480  0.00  0.00    +0.226 C 
ATOM     25  O   UNL     1      -2.485   0.163   0.922  0.00  0.00    -0.275 OA
ATOM     26  H   UNL     1      -1.057  -2.414  -0.344  0.00  0.00    +0.149 HD
BRANCH  23  27
ATOM     27  C   UNL     1      -3.232  -2.303   0.131  0.00  0.00    +0.029 C 
ATOM     28  C   UNL     1      -3.702  -2.296   1.587  0.00  0.00    +0.031 C 
ATOM     29  C   UNL     1      -4.159  -1.422  -0.708  0.00  0.00    +0.031 C 
BRANCH  27  31
ATOM     30  C   UNL     1      -4.692  -4.278  -0.330  0.00  0.00    +0.006 C 
ATOM     31  C   UNL     1      -3.264  -3.735  -0.408  0.00  0.00    +0.022 C 
ENDBRANCH  27  31
ENDBRANCH  23  27
ENDBRANCH  21  24
ENDBRANCH  20  21
ENDBRANCH  18  20
ENDBRANCH   1  18
TORSDOF 7
