REMARK  Name = ZINC18337247
REMARK  9 active torsions:
REMARK  status: ('A' for Active; 'I' for Inactive)
REMARK    1  A    between atoms: C_1  and  C_2
REMARK    2  A    between atoms: C_2  and  O_3
REMARK    3  A    between atoms: O_3  and  C_4
REMARK    4  A    between atoms: C_9  and  C_10
REMARK    5  A    between atoms: C_13  and  S_16
REMARK    6  A    between atoms: N_14  and  N_15
REMARK    7  A    between atoms: S_16  and  C_17
REMARK    8  A    between atoms: C_17  and  C_18
REMARK    9  A    between atoms: C_26  and  N_28
REMARK                            x       y       z     vdW  Elec       q    Type
REMARK                         _______ _______ _______ _____ _____    ______ ____
ROOT
ATOM      1  C   UNL     1      -1.963   2.444   3.538  0.00  0.00    +0.185 A 
ATOM      2  N   UNL     1      -2.586   2.870   2.465  0.00  0.00    -0.127 NA
ATOM      3  N   UNL     1      -3.605   3.578   2.801  0.00  0.00    -0.121 NA
ATOM      4  C   UNL     1      -3.695   3.646   4.110  0.00  0.00    +0.209 A 
ATOM      5  N   UNL     1      -2.657   2.922   4.625  0.00  0.00    -0.224 N 
ENDROOT
BRANCH   1  11
ATOM      6  C   UNL     1      -0.149   1.182   2.379  0.00  0.00    +0.131 A 
ATOM      7  C   UNL     1       0.992   0.398   2.422  0.00  0.00    +0.046 A 
ATOM      8  C   UNL     1       1.534   0.029   3.639  0.00  0.00    +0.004 A 
ATOM      9  C   UNL     1       0.941   0.437   4.821  0.00  0.00    +0.001 A 
ATOM     10  C   UNL     1      -0.196   1.218   4.795  0.00  0.00    +0.015 A 
ATOM     11  C   UNL     1      -0.748   1.602   3.573  0.00  0.00    +0.062 A 
BRANCH   6  12
ATOM     12  O   UNL     1      -0.682   1.547   1.184  0.00  0.00    -0.492 OA
BRANCH  12  14
ATOM     13  C   UNL     1      -0.753   1.593  -1.232  0.00  0.00    +0.048 C 
ATOM     14  C   UNL     1      -0.013   1.086   0.008  0.00  0.00    +0.226 C 
ENDBRANCH  12  14
ENDBRANCH   6  12
ENDBRANCH   1  11
BRANCH   5  15
ATOM     15  N   UNL     1      -2.368   2.719   5.945  0.00  0.00    -0.295 N 
ATOM     16  H   UNL     1      -1.754   3.439   6.296  0.00  0.00    +0.163 HD
ATOM     17  H   UNL     1      -3.211   2.662   6.495  0.00  0.00    +0.163 HD
ENDBRANCH   5  15
BRANCH   4  18
ATOM     18  S   UNL     1      -4.929   4.505   5.029  0.00  0.00    -0.077 S 
BRANCH  18  19
ATOM     19  C   UNL     1      -5.917   5.183   3.673  0.00  0.00    +0.153 C 
BRANCH  19  20
ATOM     20  C   UNL     1      -7.065   5.979   4.237  0.00  0.00    +0.142 A 
ATOM     21  N   UNL     1      -8.200   5.364   4.470  0.00  0.00    -0.231 NA
ATOM     22  C   UNL     1      -9.245   6.034   4.977  0.00  0.00    +0.076 A 
ATOM     23  C   UNL     1     -10.470   5.408   5.244  0.00  0.00    +0.028 A 
ATOM     24  C   UNL     1     -11.502   6.138   5.753  0.00  0.00    +0.002 A 
ATOM     25  C   UNL     1     -11.359   7.498   6.014  0.00  0.00    +0.001 A 
ATOM     26  C   UNL     1     -10.181   8.139   5.766  0.00  0.00    +0.013 A 
ATOM     27  C   UNL     1      -9.102   7.418   5.243  0.00  0.00    +0.040 A 
ATOM     28  C   UNL     1      -7.854   8.027   4.965  0.00  0.00    +0.127 A 
ATOM     29  N   UNL     1      -6.884   7.270   4.469  0.00  0.00    -0.216 NA
BRANCH  28  30
ATOM     30  N   UNL     1      -7.652   9.370   5.202  0.00  0.00    -0.343 N 
ATOM     31  H   UNL     1      -6.792   9.773   5.007  0.00  0.00    +0.144 HD
ATOM     32  H   UNL     1      -8.371   9.911   5.565  0.00  0.00    +0.144 HD
ENDBRANCH  28  30
ENDBRANCH  19  20
ENDBRANCH  18  19
ENDBRANCH   4  18
TORSDOF 8
