REMARK  Name = ZINC18242902
REMARK  10 active torsions:
REMARK  status: ('A' for Active; 'I' for Inactive)
REMARK    1  A    between atoms: C_1  and  C_2
REMARK    2  A    between atoms: C_2  and  O_3
REMARK    3  A    between atoms: O_3  and  C_4
REMARK    4  A    between atoms: C_4  and  C_6
REMARK    5  A    between atoms: C_7  and  C_19
REMARK    6  A    between atoms: C_12  and  C_14
REMARK    7  A    between atoms: C_19  and  S_20
REMARK    8  A    between atoms: S_20  and  C_21
REMARK    9  A    between atoms: N_26  and  C_27
REMARK   10  A    between atoms: C_32  and  C_33
REMARK                            x       y       z     vdW  Elec       q    Type
REMARK                         _______ _______ _______ _____ _____    ______ ____
ROOT
ATOM      1  C   UNL     1      -0.597   1.766   3.397  0.00  0.00    +0.082 C 
ATOM      2  C   UNL     1      -0.253   1.243   4.594  0.00  0.00    +0.034 C 
ATOM      3  N   UNL     1      -0.935   1.575   5.730  0.00  0.00    -0.272 N 
ATOM      4  C   UNL     1      -1.978   2.414   5.752  0.00  0.00    +0.304 C 
ATOM      5  O   UNL     1      -2.526   2.644   6.812  0.00  0.00    -0.252 OA
ATOM      6  N   UNL     1      -2.442   3.010   4.636  0.00  0.00    -0.285 N 
ATOM      7  C   UNL     1      -1.771   2.723   3.357  0.00  0.00    +0.179 C 
ATOM      8  H   UNL     1      -0.649   1.177   6.567  0.00  0.00    +0.156 HD
ATOM      9  H   UNL     1      -3.200   3.615   4.675  0.00  0.00    +0.151 HD
ENDROOT
BRANCH   7  10
ATOM     10  C   UNL     1      -1.287   4.029   2.783  0.00  0.00    +0.130 A 
ATOM     11  C   UNL     1      -1.453   4.441   1.513  0.00  0.00    +0.047 A 
ATOM     12  C   UNL     1      -0.847   5.714   1.412  0.00  0.00    +0.041 A 
ATOM     13  C   UNL     1      -0.345   6.004   2.626  0.00  0.00    +0.195 A 
ATOM     14  O   UNL     1      -0.620   4.983   3.454  0.00  0.00    -0.466 OA
ENDBRANCH   7  10
BRANCH   1  15
ATOM     15  C   UNL     1       0.111   1.428   2.220  0.00  0.00    +0.339 C 
ATOM     16  O   UNL     1      -0.344   0.601   1.453  0.00  0.00    -0.245 OA
BRANCH  15  17
ATOM     17  O   UNL     1       1.292   2.022   1.949  0.00  0.00    -0.462 OA
BRANCH  17  19
ATOM     18  C   UNL     1       3.265   2.406   0.607  0.00  0.00    +0.048 C 
ATOM     19  C   UNL     1       1.952   1.632   0.743  0.00  0.00    +0.229 C 
ENDBRANCH  17  19
ENDBRANCH  15  17
ENDBRANCH   1  15
BRANCH   2  20
ATOM     20  C   UNL     1       0.905   0.283   4.678  0.00  0.00    +0.127 C 
BRANCH  20  21
ATOM     21  S   UNL     1       2.339   1.127   5.399  0.00  0.00    -0.091 S 
BRANCH  21  22
ATOM     22  C   UNL     1       3.592  -0.113   5.429  0.00  0.00    +0.160 A 
ATOM     23  N   UNL     1       3.535  -1.369   5.029  0.00  0.00    -0.133 NA
ATOM     24  N   UNL     1       4.645  -2.174   5.144  0.00  0.00    -0.125 NA
ATOM     25  C   UNL     1       5.759  -1.687   5.654  0.00  0.00    +0.187 A 
ATOM     26  S   UNL     1       5.280  -0.002   6.002  0.00  0.00    -0.024 S 
ATOM     27  N   UNL     1       6.983  -2.315   5.859  0.00  0.00    -0.292 N 
ATOM     28  H   UNL     1       7.699  -1.846   6.315  0.00  0.00    +0.154 HD
BRANCH  27  29
ATOM     29  C   UNL     1       7.181  -3.623   5.407  0.00  0.00    +0.036 A 
ATOM     30  C   UNL     1       6.118  -4.345   4.878  0.00  0.00    +0.023 A 
ATOM     31  C   UNL     1       6.319  -5.635   4.427  0.00  0.00    +0.002 A 
ATOM     32  C   UNL     1       7.573  -6.212   4.513  0.00  0.00    +0.000 A 
ATOM     33  C   UNL     1       8.631  -5.497   5.044  0.00  0.00    +0.005 A 
ATOM     34  C   UNL     1       8.439  -4.205   5.491  0.00  0.00    -0.029 A 
ATOM     35  C   UNL     1       9.593  -3.428   6.071  0.00  0.00    +0.045 C 
ENDBRANCH  27  29
ENDBRANCH  21  22
ENDBRANCH  20  21
ENDBRANCH   2  20
TORSDOF 8
