REMARK  Name = ZINC09549535
REMARK  10 active torsions:
REMARK  status: ('A' for Active; 'I' for Inactive)
REMARK    1  A    between atoms: C_1  and  C_2
REMARK    2  A    between atoms: C_2  and  C_3
REMARK    3  A    between atoms: C_3  and  N_4
REMARK    4  A    between atoms: C_8  and  S_30
REMARK    5  A    between atoms: C_12  and  C_13
REMARK    6  A    between atoms: C_13  and  N_67
REMARK    7  A    between atoms: C_16  and  N_19
REMARK    8  A    between atoms: S_30  and  N_33
REMARK    9  A    between atoms: N_33  and  C_34
REMARK   10  A    between atoms: N_33  and  C_35
REMARK                            x       y       z     vdW  Elec       q    Type
REMARK                         _______ _______ _______ _____ _____    ______ ____
ROOT
ATOM      1  C   UNL     1      -4.754   6.294   0.101  0.00  0.00    -0.003 C 
ENDROOT
BRANCH   1  10
ATOM      2  N   UNL     1      -6.614   6.179   1.832  0.00  0.00    -0.329 N 
ATOM      3  C   UNL     1      -6.780   6.564   3.147  0.00  0.00    +0.069 A 
ATOM      4  C   UNL     1      -7.826   6.474   4.057  0.00  0.00    +0.030 A 
ATOM      5  C   UNL     1      -7.668   6.977   5.330  0.00  0.00    +0.030 A 
ATOM      6  C   UNL     1      -6.472   7.573   5.708  0.00  0.00    +0.108 A 
ATOM      7  C   UNL     1      -5.433   7.670   4.827  0.00  0.00    +0.058 A 
ATOM      8  C   UNL     1      -5.570   7.167   3.531  0.00  0.00    +0.091 A 
ATOM      9  N   UNL     1      -4.744   7.114   2.454  0.00  0.00    -0.234 NA
ATOM     10  C   UNL     1      -5.354   6.534   1.463  0.00  0.00    +0.094 A 
BRANCH   6  11
ATOM     11  S   UNL     1      -6.293   8.209   7.341  0.00  0.00    +0.060 S 
ATOM     12  O   UNL     1      -5.279   9.203   7.281  0.00  0.00    -0.153 OA
ATOM     13  O   UNL     1      -7.604   8.486   7.815  0.00  0.00    -0.153 OA
BRANCH  11  14
ATOM     14  N   UNL     1      -5.699   6.983   8.283  0.00  0.00    -0.183 NA
ATOM     15  C   UNL     1      -4.252   6.806   8.427  0.00  0.00    +0.131 C 
ATOM     16  C   UNL     1      -6.620   6.075   8.971  0.00  0.00    +0.131 C 
ENDBRANCH  11  14
ENDBRANCH   6  11
BRANCH   2  17
ATOM     17  C   UNL     1      -7.610   5.510   0.991  0.00  0.00    +0.123 C 
BRANCH  17  19
ATOM     18  C   UNL     1      -8.506   3.295   0.262  0.00  0.00    +0.005 C 
ATOM     19  C   UNL     1      -7.466   3.994   1.140  0.00  0.00    +0.018 C 
ENDBRANCH  17  19
ENDBRANCH   2  17
ENDBRANCH   1  10
BRANCH   1  25
ATOM     20  C   UNL     1      -3.288   4.819  -1.139  0.00  0.00    -0.076 C 
ATOM     21  C   UNL     1      -2.723   3.398  -1.190  0.00  0.00    +0.006 C 
ATOM     22  C   UNL     1      -1.852   3.155   0.045  0.00  0.00    +0.089 C 
ATOM     23  C   UNL     1      -2.689   3.384   1.306  0.00  0.00    +0.006 C 
ATOM     24  C   UNL     1      -3.256   4.805   1.284  0.00  0.00    -0.076 C 
ATOM     25  N   UNL     1      -4.105   4.967   0.085  0.00  0.00    +0.384 N 
ATOM     26  H   UNL     1      -4.831   4.241   0.090  0.00  0.00    -0.081 HD
BRANCH  22  27
ATOM     27  N   UNL     1      -1.355   1.776   0.030  0.00  0.00    -0.289 N 
ATOM     28  C   UNL     1      -0.017   1.392   0.010  0.00  0.00    +0.070 A 
ATOM     29  C   UNL     1       1.176   2.099   0.002  0.00  0.00    +0.028 A 
ATOM     30  C   UNL     1       2.378   1.419  -0.012  0.00  0.00    +0.002 A 
ATOM     31  C   UNL     1       2.397   0.035  -0.020  0.00  0.00    +0.002 A 
ATOM     32  C   UNL     1       1.214  -0.678  -0.013  0.00  0.00    +0.028 A 
ATOM     33  C   UNL     1       0.002  -0.004   0.002  0.00  0.00    +0.067 A 
ATOM     34  N   UNL     1      -1.326  -0.425   0.012  0.00  0.00    -0.306 N 
ATOM     35  H   UNL     1      -1.629  -1.346   0.011  0.00  0.00    +0.170 HD
ATOM     36  C   UNL     1      -2.116   0.665   0.026  0.00  0.00    +0.328 A 
ATOM     37  O   UNL     1      -3.333   0.649   0.037  0.00  0.00    -0.247 OA
ENDBRANCH  22  27
ENDBRANCH   1  25
TORSDOF 7
