REMARK  Name = ZINC39237435
REMARK  11 active torsions:
REMARK  status: ('A' for Active; 'I' for Inactive)
REMARK    1  A    between atoms: C_1  and  C_2
REMARK    2  A    between atoms: C_2  and  C_3
REMARK    3  A    between atoms: C_3  and  C_5
REMARK    4  A    between atoms: C_3  and  S_24
REMARK    5  A    between atoms: N_7  and  C_8
REMARK    6  A    between atoms: C_10  and  C_19
REMARK    7  A    between atoms: C_19  and  O_21
REMARK    8  A    between atoms: O_21  and  C_22
REMARK    9  A    between atoms: C_22  and  C_23
REMARK   10  A    between atoms: S_24  and  C_25
REMARK   11  A    between atoms: C_30  and  N_32
REMARK                            x       y       z     vdW  Elec       q    Type
REMARK                         _______ _______ _______ _____ _____    ______ ____
ROOT
ATOM      1  C   UNL     1       0.850  -2.007   0.977  0.00  0.00    +0.227 C 
ATOM      2  O   UNL     1       1.778  -2.544   0.409  0.00  0.00    -0.275 OA
ATOM      3  N   UNL     1      -0.179  -2.747   1.434  0.00  0.00    -0.301 N 
ATOM      4  H   UNL     1      -0.921  -2.318   1.888  0.00  0.00    +0.150 HD
ENDROOT
BRANCH   3   5
ATOM      5  C   UNL     1      -0.178  -4.200   1.245  0.00  0.00    +0.153 C 
ATOM      6  C   UNL     1      -0.706  -4.936   2.500  0.00  0.00    +0.155 C 
ATOM      7  C   UNL     1      -2.189  -5.193   2.411  0.00  0.00    -0.044 C 
ATOM      8  C   UNL     1      -2.752  -5.135   1.210  0.00  0.00    -0.013 C 
ATOM      9  S   UNL     1      -1.471  -4.727   0.044  0.00  0.00    -0.106 S 
ATOM     10  C   UNL     1      -4.200  -5.367   0.878  0.00  0.00    +0.042 C 
ATOM     11  C   UNL     1      -4.880  -6.039   2.077  0.00  0.00    +0.005 C 
ATOM     12  C   UNL     1      -4.495  -5.273   3.347  0.00  0.00    +0.005 C 
ATOM     13  C   UNL     1      -3.017  -5.509   3.655  0.00  0.00    +0.032 C 
BRANCH   6  14
ATOM     14  C   UNL     1       0.012  -6.255   2.635  0.00  0.00    +0.317 C 
ATOM     15  O   UNL     1      -0.611  -7.289   2.592  0.00  0.00    -0.250 OA
BRANCH  14  16
ATOM     16  O   UNL     1       1.343  -6.280   2.803  0.00  0.00    -0.464 OA
BRANCH  16  17
ATOM     17  C   UNL     1       1.958  -7.564   2.924  0.00  0.00    +0.229 C 
ATOM     18  C   UNL     1       3.467  -7.393   3.108  0.00  0.00    +0.048 C 
ENDBRANCH  16  17
ENDBRANCH  14  16
ENDBRANCH   6  14
ENDBRANCH   3   5
BRANCH   1  19
ATOM     19  C   UNL     1       0.849  -0.513   1.171  0.00  0.00    +0.140 C 
BRANCH  19  21
ATOM     20  C   UNL     1      -0.155   1.638   0.390  0.00  0.00    +0.005 C 
ATOM     21  C   UNL     1      -0.041   0.138   0.110  0.00  0.00    +0.020 C 
ENDBRANCH  19  21
BRANCH  19  22
ATOM     22  S   UNL     1       2.541   0.119   1.011  0.00  0.00    -0.075 S 
BRANCH  22  23
ATOM     23  C   UNL     1       3.377  -0.541   2.415  0.00  0.00    +0.171 A 
ATOM     24  N   UNL     1       4.717  -0.337   2.550  0.00  0.00    -0.302 N 
ATOM     25  C   UNL     1       5.373  -0.835   3.619  0.00  0.00    +0.254 A 
ATOM     26  O   UNL     1       6.574  -0.657   3.749  0.00  0.00    -0.268 OA
ATOM     27  C   UNL     1       4.655  -1.559   4.576  0.00  0.00    +0.113 A 
ATOM     28  C   UNL     1       3.291  -1.739   4.391  0.00  0.00    +0.124 A 
ATOM     29  N   UNL     1       2.692  -1.217   3.314  0.00  0.00    -0.209 NA
ATOM     30  H   UNL     1       5.201   0.167   1.878  0.00  0.00    +0.171 HD
BRANCH  28  31
ATOM     31  N   UNL     1       2.554  -2.449   5.317  0.00  0.00    -0.343 N 
ATOM     32  H   UNL     1       2.989  -2.823   6.099  0.00  0.00    +0.144 HD
ATOM     33  H   UNL     1       1.601  -2.573   5.186  0.00  0.00    +0.144 HD
ENDBRANCH  28  31
ENDBRANCH  22  23
ENDBRANCH  19  22
ENDBRANCH   1  19
TORSDOF 9
