REMARK  Name = ZINC06301350
REMARK  15 active torsions:
REMARK  status: ('A' for Active; 'I' for Inactive)
REMARK    1  A    between atoms: C_1  and  C_2
REMARK    2  A    between atoms: C_4  and  C_40
REMARK    3  A    between atoms: C_7  and  C_14
REMARK    4  A    between atoms: C_14  and  N_75
REMARK    5  A    between atoms: C_15  and  C_16
REMARK    6  A    between atoms: C_15  and  N_75
REMARK    7  A    between atoms: C_16  and  C_17
REMARK    8  A    between atoms: C_20  and  O_25
REMARK    9  A    between atoms: C_21  and  O_23
REMARK   10  A    between atoms: O_23  and  C_24
REMARK   11  A    between atoms: O_25  and  C_26
REMARK   12  A    between atoms: C_27  and  C_28
REMARK   13  A    between atoms: C_27  and  N_75
REMARK   14  A    between atoms: N_32  and  C_33
REMARK   15  A    between atoms: C_33  and  C_34
REMARK                            x       y       z     vdW  Elec       q    Type
REMARK                         _______ _______ _______ _____ _____    ______ ____
ROOT
ATOM      1  N   UNL     1       0.572  -0.569   0.850  0.00  0.00    +0.387 N 
ATOM      2  H   UNL     1       0.959  -0.432   1.791  0.00  0.00    -0.081 HD
ENDROOT
BRANCH   1   3
ATOM      3  C   UNL     1       1.315  -1.656   0.179  0.00  0.00    -0.037 C 
BRANCH   3  10
ATOM      4  C   UNL     1       0.504  -8.397   4.365  0.00  0.00    +0.044 C 
ATOM      5  C   UNL     1       0.473  -7.199   3.452  0.00  0.00    -0.048 A 
ATOM      6  C   UNL     1      -0.490  -7.119   2.455  0.00  0.00    +0.007 A 
ATOM      7  C   UNL     1      -0.535  -6.042   1.617  0.00  0.00    -0.041 A 
ATOM      8  C   UNL     1       0.398  -5.010   1.762  0.00  0.00    +0.002 A 
ATOM      9  C   UNL     1       0.375  -3.839   0.884  0.00  0.00    +0.017 A 
ATOM     10  C   UNL     1       1.308  -2.872   1.069  0.00  0.00    +0.001 A 
ATOM     11  C   UNL     1       2.268  -2.998   2.096  0.00  0.00    +0.251 A 
ATOM     12  O   UNL     1       3.094  -2.115   2.248  0.00  0.00    -0.268 OA
ATOM     13  N   UNL     1       2.293  -4.067   2.911  0.00  0.00    -0.322 N 
ATOM     14  H   UNL     1       2.966  -4.122   3.607  0.00  0.00    +0.169 HD
ATOM     15  C   UNL     1       1.376  -5.087   2.771  0.00  0.00    +0.050 A 
ATOM     16  C   UNL     1       1.402  -6.194   3.614  0.00  0.00    +0.029 A 
ATOM     17  C   UNL     1      -1.586  -5.966   0.539  0.00  0.00    +0.044 C 
ENDBRANCH   3  10
ENDBRANCH   1   3
BRANCH   1  18
ATOM     18  C   UNL     1       0.713   0.687   0.085  0.00  0.00    -0.073 C 
BRANCH  18  19
ATOM     19  C   UNL     1       0.492   1.866   1.035  0.00  0.00    +0.017 C 
BRANCH  19  20
ATOM     20  C   UNL     1       0.575   3.157   0.262  0.00  0.00    -0.045 A 
ATOM     21  C   UNL     1       1.791   3.801   0.125  0.00  0.00    +0.007 A 
ATOM     22  C   UNL     1       1.874   4.983  -0.589  0.00  0.00    +0.049 A 
ATOM     23  C   UNL     1       0.735   5.529  -1.158  0.00  0.00    +0.161 A 
ATOM     24  C   UNL     1      -0.489   4.884  -1.015  0.00  0.00    +0.162 A 
ATOM     25  C   UNL     1      -0.564   3.697  -0.304  0.00  0.00    +0.053 A 
BRANCH  24  26
ATOM     26  O   UNL     1      -1.609   5.417  -1.573  0.00  0.00    -0.491 OA
ATOM     27  C   UNL     1      -2.831   4.699  -1.386  0.00  0.00    +0.277 C 
ENDBRANCH  24  26
BRANCH  23  28
ATOM     28  O   UNL     1       0.814   6.695  -1.855  0.00  0.00    -0.491 OA
ATOM     29  C   UNL     1       2.104   7.301  -1.960  0.00  0.00    +0.277 C 
ENDBRANCH  23  28
ENDBRANCH  19  20
ENDBRANCH  18  19
ENDBRANCH   1  18
BRANCH   1  30
ATOM     30  C   UNL     1      -0.857  -0.931   0.968  0.00  0.00    +0.001 C 
BRANCH  30  31
ATOM     31  C   UNL     1      -1.517   0.012   1.939  0.00  0.00    +0.135 A 
ATOM     32  N   UNL     1      -2.318   1.007   1.643  0.00  0.00    -0.115 NA
ATOM     33  N   UNL     1      -2.674   1.573   2.744  0.00  0.00    -0.023 NA
ATOM     34  N   UNL     1      -2.121   0.966   3.735  0.00  0.00    -0.044 NA
ATOM     35  N   UNL     1      -1.404  -0.006   3.280  0.00  0.00    -0.229 N 
BRANCH  35  36
ATOM     36  C   UNL     1      -0.613  -0.949   4.074  0.00  0.00    +0.178 C 
BRANCH  36  37
ATOM     37  C   UNL     1       0.560  -0.211   4.723  0.00  0.00    +0.140 C 
ATOM     38  C   UNL     1       1.421  -1.195   5.554  0.00  0.00    +0.035 C 
ATOM     39  C   UNL     1       2.792  -0.463   5.550  0.00  0.00    +0.031 C 
ATOM     40  C   UNL     1       2.803   0.206   4.158  0.00  0.00    +0.160 C 
ATOM     41  O   UNL     1       1.444   0.303   3.714  0.00  0.00    -0.375 OA
ENDBRANCH  36  37
ENDBRANCH  35  36
ENDBRANCH  30  31
ENDBRANCH   1  30
TORSDOF 11
