REMARK  Name = ZINC02415726
REMARK  7 active torsions:
REMARK  status: ('A' for Active; 'I' for Inactive)
REMARK    1  A    between atoms: C_1  and  O_2
REMARK    2  A    between atoms: O_2  and  C_3
REMARK    3  A    between atoms: C_6  and  S_9
REMARK    4  A    between atoms: S_9  and  C_12
REMARK    5  A    between atoms: N_23  and  C_26
REMARK    6  A    between atoms: C_24  and  N_25
REMARK    7  A    between atoms: C_26  and  C_27
REMARK                            x       y       z     vdW  Elec       q    Type
REMARK                         _______ _______ _______ _____ _____    ______ ____
ROOT
ATOM      1  C   UNL     1      -0.819   3.555   0.028  0.00  0.00    +0.160 A 
ATOM      2  C   UNL     1       0.592   3.656   0.015  0.00  0.00    +0.135 A 
ATOM      3  C   UNL     1       1.094   2.276   0.004  0.00  0.00    +0.163 A 
ATOM      4  N   UNL     1       2.389   2.054  -0.010  0.00  0.00    -0.226 NA
ATOM      5  C   UNL     1       3.243   3.087  -0.013  0.00  0.00    +0.092 A 
ATOM      6  C   UNL     1       4.631   2.859  -0.028  0.00  0.00    +0.030 A 
ATOM      7  C   UNL     1       5.491   3.913  -0.031  0.00  0.00    +0.002 A 
ATOM      8  C   UNL     1       5.017   5.224  -0.019  0.00  0.00    +0.002 A 
ATOM      9  C   UNL     1       3.683   5.485  -0.005  0.00  0.00    +0.030 A 
ATOM     10  C   UNL     1       2.761   4.420  -0.002  0.00  0.00    +0.090 A 
ATOM     11  N   UNL     1       1.446   4.667   0.013  0.00  0.00    -0.240 NA
ATOM     12  N   UNL     1      -0.018   1.461   0.010  0.00  0.00    -0.309 N 
ATOM     13  C   UNL     1      -1.147   2.241   0.019  0.00  0.00    +0.126 A 
ENDROOT
BRANCH   1  14
ATOM     14  S   UNL     1      -1.953   4.904   0.044  0.00  0.00    +0.030 S 
ATOM     15  O   UNL     1      -3.163   4.411   0.603  0.00  0.00    -0.164 OA
ATOM     16  O   UNL     1      -1.256   6.013   0.594  0.00  0.00    -0.164 OA
BRANCH  14  20
ATOM     17  C   UNL     1      -2.852   5.950  -4.269  0.00  0.00    +0.120 A 
ATOM     18  C   UNL     1      -3.634   5.017  -3.603  0.00  0.00    +0.047 A 
ATOM     19  C   UNL     1      -3.357   4.699  -2.287  0.00  0.00    +0.031 A 
ATOM     20  C   UNL     1      -2.303   5.311  -1.634  0.00  0.00    +0.094 A 
ATOM     21  C   UNL     1      -1.526   6.245  -2.294  0.00  0.00    +0.031 A 
ATOM     22  C   UNL     1      -1.795   6.562  -3.612  0.00  0.00    +0.047 A 
BRANCH  17  24
ATOM     23  C   UNL     1      -2.277   7.233  -6.186  0.00  0.00    +0.277 C 
ATOM     24  O   UNL     1      -3.123   6.264  -5.563  0.00  0.00    -0.495 OA
ENDBRANCH  17  24
ENDBRANCH  14  20
ENDBRANCH   1  14
BRANCH  13  25
ATOM     25  N   UNL     1      -2.441   1.753   0.022  0.00  0.00    -0.343 N 
ATOM     26  H   UNL     1      -2.598   0.796   0.018  0.00  0.00    +0.144 HD
ATOM     27  H   UNL     1      -3.191   2.368   0.029  0.00  0.00    +0.144 HD
ENDBRANCH  13  25
BRANCH  12  28
ATOM     28  C   UNL     1       0.002  -0.004   0.002  0.00  0.00    +0.156 C 
BRANCH  28  29
ATOM     29  C   UNL     1       0.022  -0.522   1.442  0.00  0.00    +0.138 C 
ATOM     30  C   UNL     1      -0.012  -2.071   1.457  0.00  0.00    +0.035 C 
ATOM     31  C   UNL     1       0.648  -2.367   2.831  0.00  0.00    +0.031 C 
ATOM     32  C   UNL     1       1.679  -1.224   2.953  0.00  0.00    +0.160 C 
ATOM     33  O   UNL     1       1.258  -0.167   2.082  0.00  0.00    -0.375 OA
ENDBRANCH  28  29
ENDBRANCH  12  28
TORSDOF 6
