REMARK  Name = ZINC38570536
REMARK  8 active torsions:
REMARK  status: ('A' for Active; 'I' for Inactive)
REMARK    1  A    between atoms: C_1  and  C_2
REMARK    2  A    between atoms: C_7  and  O_31
REMARK    3  A    between atoms: C_13  and  C_15
REMARK    4  A    between atoms: C_15  and  C_16
REMARK    5  A    between atoms: C_16  and  C_17
REMARK    6  A    between atoms: N_19  and  C_20
REMARK    7  A    between atoms: C_20  and  C_21
REMARK    8  A    between atoms: C_21  and  C_22
REMARK                            x       y       z     vdW  Elec       q    Type
REMARK                         _______ _______ _______ _____ _____    ______ ____
ROOT
ATOM      1  C   UNL     1       1.964  -2.447   2.246  0.00  0.00    +0.096 C 
ENDROOT
BRANCH   1   2
ATOM      2  C   UNL     1       2.325  -3.899   2.068  0.00  0.00    +0.213 C 
ATOM      3  O   UNL     1       1.941  -4.504   1.090  0.00  0.00    -0.276 OA
ATOM      4  N   UNL     1       3.076  -4.525   2.996  0.00  0.00    -0.315 N 
ATOM      5  H   UNL     1       3.383  -4.041   3.779  0.00  0.00    +0.149 HD
BRANCH   4   6
ATOM      6  C   UNL     1       3.428  -5.936   2.823  0.00  0.00    +0.109 C 
BRANCH   6   7
ATOM      7  C   UNL     1       4.277  -6.399   4.008  0.00  0.00    +0.056 C 
BRANCH   7   8
ATOM      8  C   UNL     1       4.639  -7.851   3.830  0.00  0.00    -0.021 A 
ATOM      9  C   UNL     1       5.770  -8.380   3.063  0.00  0.00    +0.003 A 
ATOM     10  C   UNL     1       6.792  -7.795   2.314  0.00  0.00    +0.010 A 
ATOM     11  C   UNL     1       7.723  -8.587   1.702  0.00  0.00    +0.001 A 
ATOM     12  C   UNL     1       7.659  -9.969   1.819  0.00  0.00    +0.002 A 
ATOM     13  C   UNL     1       6.659 -10.567   2.554  0.00  0.00    +0.026 A 
ATOM     14  C   UNL     1       5.701  -9.780   3.185  0.00  0.00    +0.047 A 
ATOM     15  N   UNL     1       4.607 -10.066   3.970  0.00  0.00    -0.360 N 
ATOM     16  C   UNL     1       3.990  -8.905   4.350  0.00  0.00    +0.087 A 
ATOM     17  H   UNL     1       4.318 -10.958   4.220  0.00  0.00    +0.165 HD
ENDBRANCH   7   8
ENDBRANCH   6   7
ENDBRANCH   4   6
ENDBRANCH   1   2
BRANCH   1  18
ATOM     18  C   UNL     1       1.114  -1.984   1.061  0.00  0.00    +0.024 C 
BRANCH  18  30
ATOM     19  C   UNL     1      -0.019   1.526   0.010  0.00  0.00    +0.013 C 
ATOM     20  C   UNL     1       0.002  -0.004   0.002  0.00  0.00    +0.033 C 
ATOM     21  C   UNL     1      -1.413  -0.524   0.009  0.00  0.00    -0.001 A 
ATOM     22  C   UNL     1      -2.113  -0.549  -1.188  0.00  0.00    +0.011 A 
ATOM     23  C   UNL     1      -3.412  -1.010  -1.229  0.00  0.00    +0.046 A 
ATOM     24  C   UNL     1      -4.028  -1.453  -0.067  0.00  0.00    +0.120 A 
ATOM     25  C   UNL     1      -3.332  -1.432   1.131  0.00  0.00    +0.092 A 
ATOM     26  C   UNL     1      -2.021  -0.971   1.169  0.00  0.00    +0.139 A 
ATOM     27  O   UNL     1      -1.367  -0.986   2.362  0.00  0.00    -0.425 OA
ATOM     28  C   UNL     1      -0.179  -0.353   2.429  0.00  0.00    +0.316 C 
ATOM     29  O   UNL     1       0.133   0.308   3.392  0.00  0.00    -0.250 OA
ATOM     30  C   UNL     1       0.747  -0.510   1.241  0.00  0.00    +0.106 C 
BRANCH  24  31
ATOM     31  O   UNL     1      -5.309  -1.904  -0.103  0.00  0.00    -0.507 OA
ATOM     32  H   UNL     1      -5.388  -2.853  -0.270  0.00  0.00    +0.292 HD
ENDBRANCH  24  31
ENDBRANCH  18  30
ENDBRANCH   1  18
TORSDOF 7
