REMARK  Name = ZINC63315438
REMARK  5 active torsions:
REMARK  status: ('A' for Active; 'I' for Inactive)
REMARK    1  A    between atoms: C_1  and  S_2
REMARK    2  A    between atoms: S_2  and  C_3
REMARK    3  A    between atoms: C_8  and  C_10
REMARK    4  A    between atoms: C_10  and  S_11
REMARK    5  A    between atoms: S_11  and  C_12
REMARK                            x       y       z     vdW  Elec       q    Type
REMARK                         _______ _______ _______ _____ _____    ______ ____
ROOT
ATOM      1  C   UNL     1      -7.822  -2.317   0.066  0.00  0.00    +0.169 C 
ENDROOT
BRANCH   1   7
ATOM      2  C   UNL     1      -1.702  -0.454   0.016  0.00  0.00    +0.160 A 
ATOM      3  N   UNL     1      -2.784   0.310   0.024  0.00  0.00    -0.133 NA
ATOM      4  N   UNL     1      -3.946  -0.180   0.034  0.00  0.00    -0.125 NA
ATOM      5  C   UNL     1      -4.156  -1.486   0.036  0.00  0.00    +0.189 A 
ATOM      6  N   UNL     1      -5.352  -2.200   0.046  0.00  0.00    -0.263 N 
ATOM      7  C   UNL     1      -6.529  -1.544   0.056  0.00  0.00    +0.229 C 
ATOM      8  O   UNL     1      -6.547  -0.331   0.056  0.00  0.00    -0.275 OA
ATOM      9  S   UNL     1      -2.465  -2.073   0.015  0.00  0.00    -0.024 S 
ATOM     10  H   UNL     1      -5.337  -3.170   0.045  0.00  0.00    +0.157 HD
BRANCH   2  12
ATOM     11  C   UNL     1      -0.022   1.810   0.012  0.00  0.00    +0.092 C 
ATOM     12  S   UNL     1       0.002  -0.004   0.002  0.00  0.00    -0.100 S 
ENDBRANCH   2  12
ENDBRANCH   1   7
BRANCH   1  13
ATOM     13  S   UNL     1      -9.219  -1.159   0.078  0.00  0.00    -0.106 S 
BRANCH  13  14
ATOM     14  C   UNL     1     -10.680  -2.234   0.090  0.00  0.00    +0.236 C 
ATOM     15  N   UNL     1     -10.631  -3.138   1.246  0.00  0.00    -0.355 N 
ATOM     16  C   UNL     1     -10.612  -4.356   0.787  0.00  0.00    +0.061 A 
ATOM     17  C   UNL     1     -10.565  -5.670   1.444  0.00  0.00    +0.027 A 
ATOM     18  C   UNL     1     -10.555  -6.789   0.692  0.00  0.00    +0.002 A 
ATOM     19  C   UNL     1     -10.590  -6.759  -0.713  0.00  0.00    +0.002 A 
ATOM     20  C   UNL     1     -10.635  -5.609  -1.415  0.00  0.00    +0.027 A 
ATOM     21  C   UNL     1     -10.648  -4.324  -0.701  0.00  0.00    +0.061 A 
ATOM     22  N   UNL     1     -10.688  -3.088  -1.104  0.00  0.00    -0.355 N 
ATOM     23  H   UNL     1     -10.615  -2.876   2.179  0.00  0.00    +0.162 HD
ATOM     24  H   UNL     1     -10.717  -2.785  -2.026  0.00  0.00    +0.162 HD
ENDBRANCH  13  14
ENDBRANCH   1  13
TORSDOF 4
