REMARK  Name = ZINC36277162
REMARK  1 active torsions:
REMARK  status: ('A' for Active; 'I' for Inactive)
REMARK    1  A    between atoms: C_9  and  N_14
REMARK                            x       y       z     vdW  Elec       q    Type
REMARK                         _______ _______ _______ _____ _____    ______ ____
ROOT
ATOM      1  C   UNL     1      -0.381   1.218  -0.600  0.00  0.00    +0.001 C 
ATOM      2  C   UNL     1       1.014   1.808  -0.398  0.00  0.00    +0.005 C 
ATOM      3  C   UNL     1       1.911   1.475  -1.584  0.00  0.00    +0.037 C 
ATOM      4  C   UNL     1       2.629   0.150  -1.343  0.00  0.00    -0.025 A 
ATOM      5  C   UNL     1       2.119  -0.810  -0.546  0.00  0.00    -0.004 A 
ATOM      6  S   UNL     1       3.296  -2.137  -0.602  0.00  0.00    -0.073 S 
ATOM      7  C   UNL     1       4.484  -1.395  -1.690  0.00  0.00    +0.115 A 
ATOM      8  C   UNL     1       3.920  -0.138  -1.978  0.00  0.00    +0.051 A 
ATOM      9  C   UNL     1       4.681   0.689  -2.851  0.00  0.00    +0.129 A 
ATOM     10  N   UNL     1       5.833   0.239  -3.321  0.00  0.00    -0.202 NA
ATOM     11  C   UNL     1       6.303  -0.956  -3.007  0.00  0.00    +0.225 A 
ATOM     12  N   UNL     1       5.641  -1.767  -2.202  0.00  0.00    -0.210 NA
ATOM     13 CL   UNL     1       7.824  -1.471  -3.668  0.00  0.00    -0.041 Cl
ATOM     14  C   UNL     1       0.844  -0.770   0.238  0.00  0.00    +0.043 C 
ATOM     15  C   UNL     1      -0.298  -0.303  -0.675  0.00  0.00    +0.005 C 
ENDROOT
BRANCH   9  16
ATOM     16  N   UNL     1       4.223   1.946  -3.203  0.00  0.00    -0.343 N 
ATOM     17  H   UNL     1       4.853   2.640  -3.451  0.00  0.00    +0.144 HD
ATOM     18  H   UNL     1       3.271   2.133  -3.201  0.00  0.00    +0.144 HD
ENDBRANCH   9  16
TORSDOF 1
