REMARK  Name = ZINC39610020
REMARK  6 active torsions:
REMARK  status: ('A' for Active; 'I' for Inactive)
REMARK    1  A    between atoms: C_1  and  O_2
REMARK    2  A    between atoms: O_2  and  C_3
REMARK    3  A    between atoms: C_6  and  C_9
REMARK    4  A    between atoms: C_9  and  N_10
REMARK    5  A    between atoms: C_11  and  C_13
REMARK    6  A    between atoms: C_24  and  C_26
REMARK                            x       y       z     vdW  Elec       q    Type
REMARK                         _______ _______ _______ _____ _____    ______ ____
ROOT
ATOM      1  C   UNL     1       6.184  -3.516  -4.679  0.00  0.00    +0.100 C 
ATOM      2  C   UNL     1       6.924  -2.162  -4.601  0.00  0.00    +0.121 C 
ATOM      3  N   UNL     1       8.252  -2.425  -5.205  0.00  0.00    -0.300 N 
ATOM      4  C   UNL     1       7.964  -3.323  -6.349  0.00  0.00    +0.115 C 
ATOM      5  C   UNL     1       6.870  -4.275  -5.828  0.00  0.00    -0.004 C 
ATOM      6  C   UNL     1       7.496  -5.566  -5.309  0.00  0.00    -0.010 C 
ATOM      7  C   UNL     1       8.122  -6.330  -6.479  0.00  0.00    -0.082 C 
ATOM      8  N   UNL     1       7.089  -6.630  -7.478  0.00  0.00    +0.379 N 
ATOM      9  C   UNL     1       6.556  -5.383  -8.039  0.00  0.00    -0.082 C 
ATOM     10  C   UNL     1       5.865  -4.579  -6.935  0.00  0.00    -0.010 C 
ATOM     11  C   UNL     1       9.449  -1.954  -4.805  0.00  0.00    +0.219 C 
ATOM     12  O   UNL     1      10.455  -2.263  -5.409  0.00  0.00    -0.275 OA
ATOM     13  H   UNL     1       7.490  -7.186  -8.219  0.00  0.00    -0.086 HD
ATOM     14  H   UNL     1       6.341  -7.147  -7.041  0.00  0.00    -0.086 HD
ENDROOT
BRANCH  11  15
ATOM     15  C   UNL     1       9.539  -1.045  -3.606  0.00  0.00    +0.079 C 
ATOM     16  C   UNL     1      11.001  -0.646  -3.370  0.00  0.00    +0.017 C 
ATOM     17  C   UNL     1      11.086   0.126  -2.052  0.00  0.00    +0.027 C 
ATOM     18  C   UNL     1      10.045   1.207  -2.018  0.00  0.00    -0.031 C 
ATOM     19  C   UNL     1       9.017   1.248  -2.803  0.00  0.00    -0.030 C 
ATOM     20  C   UNL     1       8.722   0.224  -3.861  0.00  0.00    +0.039 C 
ENDBRANCH  11  15
BRANCH   1  22
ATOM     21  N   UNL     1       3.807  -4.188  -4.560  0.00  0.00    -0.311 N 
ATOM     22  C   UNL     1       4.726  -3.300  -4.989  0.00  0.00    +0.218 C 
ATOM     23  O   UNL     1       4.379  -2.328  -5.626  0.00  0.00    -0.275 OA
ATOM     24  H   UNL     1       4.084  -4.965  -4.051  0.00  0.00    +0.149 HD
BRANCH  21  25
ATOM     25  C   UNL     1       2.389  -3.978  -4.862  0.00  0.00    +0.139 C 
BRANCH  25  29
ATOM     26  C   UNL     1       0.089  -7.170  -3.194  0.00  0.00    +0.120 A 
ATOM     27  C   UNL     1       0.338  -6.029  -2.446  0.00  0.00    +0.046 A 
ATOM     28  C   UNL     1       1.082  -4.998  -2.987  0.00  0.00    +0.009 A 
ATOM     29  C   UNL     1       1.578  -5.104  -4.274  0.00  0.00    -0.030 A 
ATOM     30  C   UNL     1       1.330  -6.240  -5.022  0.00  0.00    +0.009 A 
ATOM     31  C   UNL     1       0.592  -7.276  -4.483  0.00  0.00    +0.046 A 
BRANCH  26  33
ATOM     32  C   UNL     1      -1.129  -8.008  -1.332  0.00  0.00    +0.277 C 
ATOM     33  O   UNL     1      -0.643  -8.185  -2.664  0.00  0.00    -0.495 OA
ENDBRANCH  26  33
ENDBRANCH  25  29
ENDBRANCH  21  25
ENDBRANCH   1  22
TORSDOF 5
