REMARK  Name = ZINC20806723
REMARK  8 active torsions:
REMARK  status: ('A' for Active; 'I' for Inactive)
REMARK    1  A    between atoms: C_1  and  C_2
REMARK    2  A    between atoms: C_6  and  C_8
REMARK    3  A    between atoms: C_8  and  S_9
REMARK    4  A    between atoms: S_9  and  C_10
REMARK    5  A    between atoms: N_14  and  N_15
REMARK    6  A    between atoms: N_16  and  N_17
REMARK    7  A    between atoms: C_18  and  C_19
REMARK    8  A    between atoms: C_28  and  O_29
REMARK                            x       y       z     vdW  Elec       q    Type
REMARK                         _______ _______ _______ _____ _____    ______ ____
ROOT
ATOM      1  C   UNL     1      -0.117   7.713  -1.501  0.00  0.00    +0.210 A 
ATOM      2  N   UNL     1      -0.115   8.374  -0.368  0.00  0.00    -0.119 NA
ATOM      3  N   UNL     1      -0.136   9.743  -0.665  0.00  0.00    -0.109 NA
ATOM      4  C   UNL     1      -0.151   9.874  -1.970  0.00  0.00    +0.254 A 
ATOM      5  N   UNL     1      -0.134   8.622  -2.520  0.00  0.00    -0.211 N 
ATOM      6  N   UNL     1      -0.173  11.072  -2.668  0.00  0.00    -0.204 N 
ATOM      7  H   UNL     1      -0.184  11.066  -3.768  0.00  0.00    +0.177 HD
ENDROOT
BRANCH   5   8
ATOM      8  N   UNL     1      -0.137   8.332  -3.855  0.00  0.00    -0.294 N 
ATOM      9  H   UNL     1      -0.150   9.146  -4.595  0.00  0.00    +0.163 HD
ATOM     10  H   UNL     1      -0.125   7.285  -4.190  0.00  0.00    +0.163 HD
ENDBRANCH   5   8
BRANCH   6  11
ATOM     11  N   UNL     1      -0.182  12.288  -1.973  0.00  0.00    -0.187 NA
ATOM     12  C   UNL     1      -0.204  13.411  -2.628  0.00  0.00    +0.142 C 
BRANCH  12  13
ATOM     13  C   UNL     1      -0.213  14.687  -1.899  0.00  0.00    +0.044 A 
ATOM     14  C   UNL     1      -0.231  15.959  -2.620  0.00  0.00    -0.006 A 
ATOM     15  C   UNL     1      -0.239  16.006  -4.019  0.00  0.00    +0.009 A 
ATOM     16  C   UNL     1      -0.256  17.212  -4.653  0.00  0.00    +0.001 A 
ATOM     17  C   UNL     1      -0.264  18.401  -3.927  0.00  0.00    +0.001 A 
ATOM     18  C   UNL     1      -0.265  18.392  -2.565  0.00  0.00    +0.008 A 
ATOM     19  C   UNL     1      -0.244  17.166  -1.879  0.00  0.00    -0.017 A 
ATOM     20  C   UNL     1      -0.229  17.116  -0.474  0.00  0.00    +0.012 A 
ATOM     21  C   UNL     1      -0.208  15.925   0.180  0.00  0.00    +0.046 A 
ATOM     22  C   UNL     1      -0.199  14.711  -0.505  0.00  0.00    +0.126 A 
BRANCH  22  23
ATOM     23  O   UNL     1      -0.177  13.544   0.190  0.00  0.00    -0.506 OA
ATOM     24  H   UNL     1      -0.166  13.559   1.290  0.00  0.00    +0.292 HD
ENDBRANCH  22  23
ENDBRANCH  12  13
ENDBRANCH   6  11
BRANCH   1  25
ATOM     25  S   UNL     1      -0.095   5.960  -1.677  0.00  0.00    -0.080 S 
BRANCH  25  26
ATOM     26  C   UNL     1      -0.070   5.347   0.030  0.00  0.00    +0.112 C 
BRANCH  26  32
ATOM     27  C   UNL     1      -2.514   0.980   0.019  0.00  0.00    +0.044 C 
ATOM     28  C   UNL     1      -1.219   1.751   0.017  0.00  0.00    -0.050 A 
ATOM     29  C   UNL     1      -0.013   1.076   0.008  0.00  0.00    +0.003 A 
ATOM     30  C   UNL     1       1.175   1.783   0.000  0.00  0.00    +0.001 A 
ATOM     31  C   UNL     1       1.156   3.166   0.008  0.00  0.00    +0.004 A 
ATOM     32  C   UNL     1      -0.050   3.840   0.022  0.00  0.00    -0.037 A 
ATOM     33  C   UNL     1      -1.238   3.133   0.030  0.00  0.00    +0.007 A 
ENDBRANCH  26  32
ENDBRANCH  25  26
ENDBRANCH   1  25
TORSDOF 7
