REMARK  Name = ZINC21325721
REMARK  12 active torsions:
REMARK  status: ('A' for Active; 'I' for Inactive)
REMARK    1  A    between atoms: C_1  and  C_2
REMARK    2  A    between atoms: C_2  and  N_3
REMARK    3  A    between atoms: N_3  and  C_4
REMARK    4  A    between atoms: N_3  and  C_6
REMARK    5  A    between atoms: C_4  and  C_5
REMARK    6  A    between atoms: C_9  and  C_13
REMARK    7  A    between atoms: C_10  and  O_12
REMARK    8  A    between atoms: N_14  and  N_15
REMARK    9  A    between atoms: C_19  and  S_22
REMARK   10  A    between atoms: N_20  and  N_21
REMARK   11  A    between atoms: S_22  and  C_23
REMARK   12  A    between atoms: C_23  and  C_24
REMARK                            x       y       z     vdW  Elec       q    Type
REMARK                         _______ _______ _______ _____ _____    ______ ____
ROOT
ATOM      1  N   UNL     1      -1.150   2.163   0.019  0.00  0.00    -0.204 N 
ATOM      2  C   UNL     1      -0.017   1.363   0.009  0.00  0.00    +0.254 A 
ATOM      3  N   UNL     1       1.225   1.785   0.000  0.00  0.00    -0.109 NA
ATOM      4  N   UNL     1       2.063   0.663  -0.014  0.00  0.00    -0.119 NA
ATOM      5  C   UNL     1       1.307  -0.408  -0.013  0.00  0.00    +0.210 A 
ATOM      6  N   UNL     1       0.002  -0.004   0.002  0.00  0.00    -0.211 N 
ATOM      7  H   UNL     1      -2.148   1.702   0.022  0.00  0.00    +0.177 HD
ENDROOT
BRANCH   6   8
ATOM      8  N   UNL     1      -1.092  -0.822   0.008  0.00  0.00    -0.294 N 
ATOM      9  H   UNL     1      -0.962  -1.914   0.001  0.00  0.00    +0.163 HD
ATOM     10  H   UNL     1      -2.103  -0.388   0.020  0.00  0.00    +0.163 HD
ENDBRANCH   6   8
BRANCH   1  12
ATOM     11  C   UNL     1      -2.083   4.308   0.036  0.00  0.00    +0.142 C 
ATOM     12  N   UNL     1      -1.022   3.558   0.026  0.00  0.00    -0.187 NA
BRANCH  11  16
ATOM     13  C   UNL     1      -1.697   8.538   0.057  0.00  0.00    +0.033 A 
ATOM     14  C   UNL     1      -2.960   7.954   0.060  0.00  0.00    +0.024 A 
ATOM     15  C   UNL     1      -3.089   6.583   0.053  0.00  0.00    +0.015 A 
ATOM     16  C   UNL     1      -1.949   5.774   0.043  0.00  0.00    +0.036 A 
ATOM     17  C   UNL     1      -0.677   6.365   0.046  0.00  0.00    +0.127 A 
ATOM     18  C   UNL     1      -0.558   7.743   0.048  0.00  0.00    +0.069 A 
BRANCH  17  19
ATOM     19  O   UNL     1       0.436   5.585   0.042  0.00  0.00    -0.506 OA
ATOM     20  H   UNL     1       1.433   6.050   0.044  0.00  0.00    +0.292 HD
ENDBRANCH  17  19
BRANCH  13  21
ATOM     21  N   UNL     1      -1.574   9.928   0.065  0.00  0.00    -0.330 N 
BRANCH  21  23
ATOM     22  C   UNL     1      -3.184  11.055   1.521  0.00  0.00    +0.024 C 
ATOM     23  C   UNL     1      -2.773  10.770   0.075  0.00  0.00    +0.102 C 
ENDBRANCH  21  23
BRANCH  21  24
ATOM     24  C   UNL     1      -0.246  10.546   0.062  0.00  0.00    +0.102 C 
ATOM     25  C   UNL     1       0.210  10.770  -1.382  0.00  0.00    +0.024 C 
ENDBRANCH  21  24
ENDBRANCH  13  21
ENDBRANCH  11  16
ENDBRANCH   1  12
BRANCH   5  26
ATOM     26  S   UNL     1       1.874  -2.077  -0.026  0.00  0.00    -0.080 S 
BRANCH  26  27
ATOM     27  C   UNL     1       3.682  -1.926  -0.043  0.00  0.00    +0.112 C 
BRANCH  27  28
ATOM     28  C   UNL     1       4.300  -3.300  -0.056  0.00  0.00    -0.036 A 
ATOM     29  C   UNL     1       4.601  -3.933   1.136  0.00  0.00    +0.006 A 
ATOM     30  C   UNL     1       5.163  -5.196   1.125  0.00  0.00    +0.022 A 
ATOM     31  C   UNL     1       5.436  -5.822  -0.078  0.00  0.00    +0.059 A 
ATOM     32  C   UNL     1       5.141  -5.185  -1.271  0.00  0.00    +0.060 A 
ATOM     33  C   UNL     1       4.572  -3.923  -1.259  0.00  0.00    +0.026 A 
ATOM     34 CL   UNL     1       5.482  -5.969  -2.782  0.00  0.00    -0.082 Cl
ATOM     35 CL   UNL     1       6.149  -7.405  -0.092  0.00  0.00    -0.082 Cl
ENDBRANCH  27  28
ENDBRANCH  26  27
ENDBRANCH   5  26
TORSDOF 10
