REMARK  Name = ZINC64349686
REMARK  6 active torsions:
REMARK  status: ('A' for Active; 'I' for Inactive)
REMARK    1  A    between atoms: C_1  and  N_2
REMARK    2  A    between atoms: N_2  and  C_3
REMARK    3  A    between atoms: N_2  and  C_16
REMARK    4  A    between atoms: C_3  and  C_4
REMARK    5  A    between atoms: N_9  and  C_10
REMARK    6  A    between atoms: C_10  and  C_11
REMARK                            x       y       z     vdW  Elec       q    Type
REMARK                         _______ _______ _______ _____ _____    ______ ____
ROOT
ATOM      1  C   UNL     1      -1.389  -1.016   1.714  0.00  0.00    +0.238 C 
ATOM      2  O   UNL     1      -2.322  -0.631   1.042  0.00  0.00    -0.274 OA
ATOM      3  N   UNL     1      -1.615  -1.688   2.860  0.00  0.00    -0.239 N 
ATOM      4  C   UNL     1      -2.879  -1.932   3.260  0.00  0.00    +0.306 C 
ATOM      5  O   UNL     1      -3.814  -1.546   2.587  0.00  0.00    -0.252 OA
ATOM      6  N   UNL     1      -3.105  -2.604   4.406  0.00  0.00    -0.292 N 
ATOM      7  H   UNL     1      -0.869  -1.996   3.397  0.00  0.00    +0.159 HD
ATOM      8  H   UNL     1      -2.359  -2.912   4.943  0.00  0.00    +0.151 HD
ENDROOT
BRANCH   1   9
ATOM      9  C   UNL     1       0.024  -0.743   1.267  0.00  0.00    +0.201 C 
BRANCH   9  11
ATOM     10  C   UNL     1      -0.018   1.461   0.010  0.00  0.00    +0.130 C 
ATOM     11  N   UNL     1       0.002  -0.004   0.002  0.00  0.00    -0.322 N 
BRANCH  11  12
ATOM     12  C   UNL     1       0.000  -0.697  -1.213  0.00  0.00    +0.066 A 
ATOM     13  C   UNL     1       1.200  -1.030  -1.826  0.00  0.00    +0.027 A 
ATOM     14  C   UNL     1       1.196  -1.714  -3.026  0.00  0.00    +0.017 A 
ATOM     15  C   UNL     1      -0.004  -2.068  -3.619  0.00  0.00    +0.021 A 
ATOM     16  C   UNL     1      -1.202  -1.738  -3.012  0.00  0.00    +0.055 A 
ATOM     17  C   UNL     1      -1.204  -1.058  -1.807  0.00  0.00    +0.145 A 
ATOM     18  F   UNL     1      -2.375  -0.741  -1.211  0.00  0.00    -0.204 F 
ATOM     19 BR   UNL     1      -0.004  -3.005  -5.261  0.00  0.00    -0.050 Br
ENDBRANCH  11  12
ENDBRANCH   9  11
ENDBRANCH   1   9
BRANCH   6  20
ATOM     20  C   UNL     1      -4.479  -2.869   4.840  0.00  0.00    +0.180 C 
BRANCH  20  21
ATOM     21  C   UNL     1      -4.456  -3.630   6.141  0.00  0.00    +0.122 A 
ATOM     22  C   UNL     1      -4.457  -3.085   7.371  0.00  0.00    +0.046 A 
ATOM     23  C   UNL     1      -4.432  -4.156   8.294  0.00  0.00    +0.041 A 
ATOM     24  C   UNL     1      -4.417  -5.291   7.573  0.00  0.00    +0.195 A 
ATOM     25  O   UNL     1      -4.437  -4.966   6.269  0.00  0.00    -0.466 OA
ENDBRANCH  20  21
ENDBRANCH   6  20
TORSDOF 5
