REMARK  Name = ZINC05401104
REMARK  3 active torsions:
REMARK  status: ('A' for Active; 'I' for Inactive)
REMARK    1  A    between atoms: C_3  and  C_10
REMARK    2  A    between atoms: C_5  and  N_7
REMARK    3  A    between atoms: C_13  and  C_16
REMARK                            x       y       z     vdW  Elec       q    Type
REMARK                         _______ _______ _______ _____ _____    ______ ____
ROOT
ATOM      1  C   UNL     1       3.672   2.182  -0.022  0.00  0.00    +0.125 C 
ATOM      2  C   UNL     1       3.997   2.713   1.388  0.00  0.00    +0.089 C 
ATOM      3  C   UNL     1       4.014   4.215   1.217  0.00  0.00    +0.103 C 
ATOM      4  N   UNL     1       3.758   4.511  -0.013  0.00  0.00    -0.187 NA
ATOM      5  N   UNL     1       3.542   3.402  -0.834  0.00  0.00    -0.261 N 
ATOM      6  H   UNL     1       3.339   3.430  -1.782  0.00  0.00    +0.169 HD
ENDROOT
BRANCH   3   7
ATOM      7  C   UNL     1       4.280   5.186   2.284  0.00  0.00    +0.155 A 
ATOM      8  N   UNL     1       4.290   6.549   2.128  0.00  0.00    -0.337 N 
ATOM      9  H   UNL     1       4.124   7.036   1.305  0.00  0.00    +0.167 HD
ATOM     10  C   UNL     1       4.579   7.099   3.363  0.00  0.00    +0.068 A 
ATOM     11  C   UNL     1       4.722   8.400   3.825  0.00  0.00    +0.044 A 
ATOM     12  C   UNL     1       5.021   8.628   5.152  0.00  0.00    +0.034 A 
ATOM     13  C   UNL     1       5.180   7.564   6.032  0.00  0.00    +0.034 A 
ATOM     14  C   UNL     1       5.042   6.267   5.591  0.00  0.00    +0.046 A 
ATOM     15  C   UNL     1       4.738   6.018   4.248  0.00  0.00    +0.091 A 
ATOM     16  N   UNL     1       4.540   4.883   3.536  0.00  0.00    -0.226 NA
ATOM     17 BR   UNL     1       5.590   7.900   7.847  0.00  0.00    -0.049 Br
ATOM     18 BR   UNL     1       5.215  10.402   5.779  0.00  0.00    -0.049 Br
ENDBRANCH   3   7
BRANCH   1  21
ATOM     19  C   UNL     1      -0.017   1.378   0.010  0.00  0.00    +0.003 A 
ATOM     20  C   UNL     1       1.171   2.085   0.002  0.00  0.00    +0.005 A 
ATOM     21  C   UNL     1       2.377   1.411  -0.013  0.00  0.00    -0.023 A 
ATOM     22  C   UNL     1       2.396   0.028  -0.020  0.00  0.00    +0.038 A 
ATOM     23  C   UNL     1       1.209  -0.679  -0.012  0.00  0.00    +0.127 A 
ATOM     24  C   UNL     1       0.002  -0.004   0.002  0.00  0.00    +0.033 A 
BRANCH  23  25
ATOM     25  N   UNL     1       1.229  -2.159  -0.020  0.00  0.00    +0.056 N 
ATOM     26  O   UNL     1       2.284  -2.749  -0.035  0.00  0.00    -0.126 OA
ATOM     27  O   UNL     1       0.190  -2.778  -0.013  0.00  0.00    -0.126 OA
ENDBRANCH  23  25
ENDBRANCH   1  21
TORSDOF 3
