REMARK  Name = ZINC40347760
REMARK  6 active torsions:
REMARK  status: ('A' for Active; 'I' for Inactive)
REMARK    1  A    between atoms: C_1  and  C_2
REMARK    2  A    between atoms: C_2  and  N_3
REMARK    3  A    between atoms: C_6  and  N_9
REMARK    4  A    between atoms: N_9  and  S_10
REMARK    5  A    between atoms: S_10  and  C_13
REMARK    6  A    between atoms: C_14  and  N_21
REMARK                            x       y       z     vdW  Elec       q    Type
REMARK                         _______ _______ _______ _____ _____    ______ ____
ROOT
ATOM      1  S   UNL     1       4.796  -4.650  -4.059  0.00  0.00    +0.061 S 
ATOM      2  O   UNL     1       5.315  -5.187  -5.268  0.00  0.00    -0.153 OA
ATOM      3  O   UNL     1       5.531  -4.662  -2.843  0.00  0.00    -0.153 OA
ENDROOT
BRANCH   1   4
ATOM      4  C   UNL     1       3.283  -5.495  -3.741  0.00  0.00    +0.140 A 
ATOM      5  C   UNL     1       2.846  -5.670  -2.434  0.00  0.00    +0.053 A 
ATOM      6  C   UNL     1       1.652  -6.337  -2.188  0.00  0.00    +0.040 A 
ATOM      7  C   UNL     1       0.903  -6.824  -3.242  0.00  0.00    +0.021 A 
ATOM      8  C   UNL     1       1.341  -6.648  -4.543  0.00  0.00    +0.032 A 
ATOM      9  C   UNL     1       2.527  -5.980  -4.792  0.00  0.00    +0.047 A 
ATOM     10 BR   UNL     1       3.118  -5.735  -6.572  0.00  0.00    -0.048 Br
ATOM     11 BR   UNL     1      -0.722  -7.731  -2.907  0.00  0.00    -0.050 Br
BRANCH   5  12
ATOM     12  N   UNL     1       3.605  -5.178  -1.371  0.00  0.00    -0.356 N 
ATOM     13  H   UNL     1       4.188  -4.414  -1.504  0.00  0.00    +0.142 HD
ATOM     14  H   UNL     1       3.549  -5.599  -0.499  0.00  0.00    +0.142 HD
ENDBRANCH   5  12
ENDBRANCH   1   4
BRANCH   1  15
ATOM     15  N   UNL     1       4.417  -3.068  -4.368  0.00  0.00    -0.187 NA
ATOM     16  H   UNL     1       4.584  -2.692  -5.246  0.00  0.00    +0.148 HD
BRANCH  15  20
ATOM     17  N   UNL     1       2.212   0.058  -2.598  0.00  0.00    +0.380 N 
ATOM     18  C   UNL     1       3.666   0.080  -2.397  0.00  0.00    -0.077 C 
ATOM     19  C   UNL     1       4.344  -0.800  -3.450  0.00  0.00    +0.002 C 
ATOM     20  C   UNL     1       3.830  -2.236  -3.315  0.00  0.00    +0.073 C 
ATOM     21  C   UNL     1       2.304  -2.237  -3.453  0.00  0.00    +0.002 C 
ATOM     22  C   UNL     1       1.702  -1.304  -2.400  0.00  0.00    -0.077 C 
ATOM     23  H   UNL     1       2.000   0.362  -3.537  0.00  0.00    -0.082 HD
BRANCH  17  25
ATOM     24  C   UNL     1       2.008   2.402  -1.922  0.00  0.00    -0.017 C 
ATOM     25  C   UNL     1       1.572   0.964  -1.635  0.00  0.00    -0.082 C 
ENDBRANCH  17  25
ENDBRANCH  15  20
ENDBRANCH   1  15
TORSDOF 5
