REMARK  Name = ZINC39664039
REMARK  10 active torsions:
REMARK  status: ('A' for Active; 'I' for Inactive)
REMARK    1  A    between atoms: C_1  and  C_2
REMARK    2  A    between atoms: C_2  and  C_3
REMARK    3  A    between atoms: C_6  and  C_9
REMARK    4  A    between atoms: C_13  and  C_22
REMARK    5  A    between atoms: N_24  and  C_25
REMARK    6  A    between atoms: C_25  and  C_26
REMARK    7  A    between atoms: C_26  and  C_28
REMARK    8  A    between atoms: C_26  and  N_36
REMARK    9  A    between atoms: C_31  and  O_34
REMARK   10  A    between atoms: O_34  and  C_35
REMARK                            x       y       z     vdW  Elec       q    Type
REMARK                         _______ _______ _______ _____ _____    ______ ____
ROOT
ATOM      1  C   UNL     1      -5.495  -2.138   0.133  0.00  0.00    +0.247 C 
ATOM      2  O   UNL     1      -6.155  -2.438   1.109  0.00  0.00    -0.270 OA
ATOM      3  N   UNL     1      -6.057  -2.153  -1.092  0.00  0.00    -0.296 N 
ATOM      4  C   UNL     1      -5.391  -1.943  -2.399  0.00  0.00    +0.121 C 
ATOM      5  C   UNL     1      -6.063  -2.961  -3.347  0.00  0.00    +0.100 C 
ATOM      6  C   UNL     1      -7.434  -3.243  -2.711  0.00  0.00    -0.004 C 
ATOM      7  C   UNL     1      -7.479  -2.388  -1.436  0.00  0.00    +0.115 C 
ATOM      8  C   UNL     1      -7.556  -4.721  -2.352  0.00  0.00    -0.010 C 
ATOM      9  C   UNL     1      -8.948  -4.988  -1.774  0.00  0.00    -0.082 C 
ATOM     10  N   UNL     1      -9.969  -4.619  -2.761  0.00  0.00    +0.379 N 
ATOM     11  C   UNL     1      -9.906  -3.177  -3.032  0.00  0.00    -0.082 C 
ATOM     12  C   UNL     1      -8.554  -2.833  -3.663  0.00  0.00    -0.010 C 
ATOM     13  H   UNL     1      -9.807  -5.127  -3.618  0.00  0.00    -0.086 HD
ATOM     14  H   UNL     1     -10.883  -4.852  -2.402  0.00  0.00    -0.086 HD
ENDROOT
BRANCH   1  18
ATOM     15  C   UNL     1      -1.415  -1.044   0.586  0.00  0.00    -0.048 A 
ATOM     16  C   UNL     1      -2.062  -1.727   1.601  0.00  0.00    +0.004 A 
ATOM     17  C   UNL     1      -3.387  -2.085   1.460  0.00  0.00    +0.013 A 
ATOM     18  C   UNL     1      -4.075  -1.757   0.291  0.00  0.00    +0.037 A 
ATOM     19  C   UNL     1      -3.417  -1.068  -0.729  0.00  0.00    +0.013 A 
ATOM     20  C   UNL     1      -2.093  -0.711  -0.573  0.00  0.00    +0.004 A 
BRANCH  15  22
ATOM     21  C   UNL     1       0.120   0.726   1.395  0.00  0.00    +0.009 C 
ATOM     22  C   UNL     1       0.032  -0.656   0.747  0.00  0.00    +0.032 C 
ENDBRANCH  15  22
ENDBRANCH   1  18
BRANCH   5  23
ATOM     23  C   UNL     1      -5.247  -4.225  -3.424  0.00  0.00    +0.218 C 
ATOM     24  O   UNL     1      -4.630  -4.609  -2.453  0.00  0.00    -0.275 OA
ATOM     25  N   UNL     1      -5.202  -4.930  -4.572  0.00  0.00    -0.316 N 
ATOM     26  H   UNL     1      -5.750  -4.663  -5.326  0.00  0.00    +0.149 HD
BRANCH  25  27
ATOM     27  C   UNL     1      -4.325  -6.098  -4.680  0.00  0.00    +0.093 C 
BRANCH  27  28
ATOM     28  C   UNL     1      -4.375  -6.642  -6.110  0.00  0.00    -0.020 C 
BRANCH  28  29
ATOM     29  C   UNL     1      -5.754  -7.177  -6.396  0.00  0.00    -0.059 A 
ATOM     30  C   UNL     1      -6.117  -8.430  -5.938  0.00  0.00    +0.005 A 
ATOM     31  C   UNL     1      -7.380  -8.923  -6.200  0.00  0.00    +0.046 A 
ATOM     32  C   UNL     1      -8.286  -8.160  -6.923  0.00  0.00    +0.120 A 
ATOM     33  C   UNL     1      -7.919  -6.903  -7.381  0.00  0.00    +0.046 A 
ATOM     34  C   UNL     1      -6.656  -6.412  -7.112  0.00  0.00    +0.005 A 
BRANCH  32  35
ATOM     35  O   UNL     1      -9.529  -8.643  -7.182  0.00  0.00    -0.495 OA
ATOM     36  C   UNL     1     -10.408  -7.803  -7.932  0.00  0.00    +0.277 C 
ENDBRANCH  32  35
ENDBRANCH  28  29
BRANCH  28  37
ATOM     37  N   UNL     1      -3.390  -7.722  -6.257  0.00  0.00    +0.385 N 
ATOM     38  C   UNL     1      -3.325  -8.167  -7.673  0.00  0.00    -0.078 C 
ATOM     39  C   UNL     1      -1.933  -8.839  -7.770  0.00  0.00    -0.020 C 
ATOM     40  C   UNL     1      -1.051  -7.939  -6.873  0.00  0.00    -0.020 C 
ATOM     41  C   UNL     1      -2.036  -7.226  -5.928  0.00  0.00    -0.078 C 
ATOM     42  H   UNL     1      -3.631  -8.497  -5.658  0.00  0.00    -0.081 HD
ENDBRANCH  28  37
ENDBRANCH  27  28
ENDBRANCH  25  27
ENDBRANCH   5  23
TORSDOF 8
