REMARK  Name = ZINC37650017
REMARK  7 active torsions:
REMARK  status: ('A' for Active; 'I' for Inactive)
REMARK    1  A    between atoms: C_1  and  C_2
REMARK    2  A    between atoms: C_2  and  C_4
REMARK    3  A    between atoms: C_2  and  N_11
REMARK    4  A    between atoms: N_11  and  C_12
REMARK    5  A    between atoms: C_12  and  C_13
REMARK    6  A    between atoms: C_17  and  S_19
REMARK    7  A    between atoms: S_19  and  N_22
REMARK                            x       y       z     vdW  Elec       q    Type
REMARK                         _______ _______ _______ _____ _____    ______ ____
ROOT
ATOM      1  C   UNL     1      -0.086  -0.093  -2.394  0.00  0.00    -0.046 C 
ENDROOT
BRANCH   1   2
ATOM      2  C   UNL     1       0.620  -0.579  -3.634  0.00  0.00    -0.063 A 
ATOM      3  C   UNL     1       1.552   0.227  -4.260  0.00  0.00    +0.002 A 
ATOM      4  C   UNL     1       2.199  -0.218  -5.397  0.00  0.00    +0.002 A 
ATOM      5  C   UNL     1       1.914  -1.471  -5.908  0.00  0.00    +0.028 A 
ATOM      6  C   UNL     1       0.983  -2.278  -5.282  0.00  0.00    +0.105 A 
ATOM      7  C   UNL     1       0.339  -1.833  -4.142  0.00  0.00    +0.030 A 
BRANCH   6   8
ATOM      8  S   UNL     1       0.620  -3.874  -5.933  0.00  0.00    +0.056 S 
ATOM      9  O   UNL     1      -0.683  -4.212  -5.478  0.00  0.00    -0.153 OA
ATOM     10  O   UNL     1       0.958  -3.836  -7.313  0.00  0.00    -0.153 OA
BRANCH   8  11
ATOM     11  N   UNL     1       1.663  -4.943  -5.219  0.00  0.00    -0.204 NA
ATOM     12  H   UNL     1       2.314  -4.628  -4.573  0.00  0.00    +0.144 HD
ATOM     13  H   UNL     1       1.623  -5.885  -5.448  0.00  0.00    +0.144 HD
ENDBRANCH   8  11
ENDBRANCH   6   8
ENDBRANCH   1   2
BRANCH   1  14
ATOM     14  N   UNL     1       0.690  -0.478  -1.207  0.00  0.00    +0.386 N 
ATOM     15  H   UNL     1       1.608  -0.063  -1.256  0.00  0.00    -0.085 HD
ATOM     16  H   UNL     1       0.776  -1.482  -1.172  0.00  0.00    -0.085 HD
BRANCH  14  18
ATOM     17  C   UNL     1      -0.019   1.526   0.010  0.00  0.00    -0.009 C 
ATOM     18  C   UNL     1       0.002  -0.004   0.002  0.00  0.00    -0.044 C 
BRANCH  18  19
ATOM     19  C   UNL     1       0.731  -0.503   1.223  0.00  0.00    -0.062 A 
ATOM     20  C   UNL     1       2.113  -0.514   1.246  0.00  0.00    +0.003 A 
ATOM     21  C   UNL     1       2.782  -0.972   2.366  0.00  0.00    +0.014 A 
ATOM     22  C   UNL     1       2.068  -1.419   3.463  0.00  0.00    +0.013 A 
ATOM     23  C   UNL     1       0.685  -1.409   3.439  0.00  0.00    +0.014 A 
ATOM     24  C   UNL     1       0.017  -0.945   2.321  0.00  0.00    +0.003 A 
ATOM     25  I   UNL     1       3.082  -2.114   5.160  0.00  0.00    -0.044 I 
ENDBRANCH  18  19
ENDBRANCH  14  18
ENDBRANCH   1  14
TORSDOF 6
