REMARK  Name = ZINC49741025
REMARK  3 active torsions:
REMARK  status: ('A' for Active; 'I' for Inactive)
REMARK    1  A    between atoms: C_4  and  S_7
REMARK    2  A    between atoms: S_7  and  N_10
REMARK    3  A    between atoms: N_10  and  C_11
REMARK                            x       y       z     vdW  Elec       q    Type
REMARK                         _______ _______ _______ _____ _____    ______ ____
ROOT
ATOM      1  C   UNL     1       3.437  -1.983   2.293  0.00  0.00    +0.048 A 
ATOM      2  C   UNL     1       2.063  -1.999   2.091  0.00  0.00    +0.026 A 
ATOM      3  C   UNL     1       1.265  -2.864   2.808  0.00  0.00    +0.025 A 
ATOM      4  C   UNL     1       1.830  -3.730   3.742  0.00  0.00    +0.038 A 
ATOM      5  C   UNL     1       3.206  -3.708   3.937  0.00  0.00    -0.009 A 
ATOM      6  C   UNL     1       4.007  -2.849   3.219  0.00  0.00    +0.031 A 
ATOM      7  C   UNL     1       3.498  -4.745   4.993  0.00  0.00    +0.074 C 
ATOM      8  C   UNL     1       4.130  -4.092   6.219  0.00  0.00    +0.021 C 
ATOM      9  C   UNL     1       4.390  -5.155   7.290  0.00  0.00    +0.001 C 
ATOM     10  C   UNL     1       5.324  -6.227   6.725  0.00  0.00    +0.000 C 
ATOM     11  C   UNL     1       4.668  -6.889   5.511  0.00  0.00    +0.001 C 
ATOM     12  C   UNL     1       4.410  -5.832   4.434  0.00  0.00    +0.021 C 
ATOM     13  C   UNL     1       2.146  -5.319   5.342  0.00  0.00    +0.228 C 
ATOM     14  O   UNL     1       1.920  -6.190   6.156  0.00  0.00    -0.274 OA
ATOM     15  N   UNL     1       1.240  -4.683   4.578  0.00  0.00    -0.284 N 
ATOM     16  H   UNL     1       0.287  -4.863   4.605  0.00  0.00    +0.155 HD
ENDROOT
BRANCH   1  17
ATOM     17  N   UNL     1       4.245  -1.104   1.563  0.00  0.00    -0.216 N 
ATOM     18  H   UNL     1       4.609  -0.313   1.990  0.00  0.00    +0.174 HD
BRANCH  17  19
ATOM     19  S   UNL     1       4.579  -1.415  -0.029  0.00  0.00    +0.072 S 
ATOM     20  O   UNL     1       5.476  -0.401  -0.461  0.00  0.00    -0.150 OA
ATOM     21  O   UNL     1       3.331  -1.649  -0.667  0.00  0.00    -0.150 OA
BRANCH  19  25
ATOM     22  C   UNL     1       6.865  -5.318  -0.183  0.00  0.00    +0.000 A 
ATOM     23  C   UNL     1       5.495  -5.312  -0.368  0.00  0.00    +0.002 A 
ATOM     24  C   UNL     1       4.797  -4.120  -0.321  0.00  0.00    +0.029 A 
ATOM     25  C   UNL     1       5.469  -2.934  -0.088  0.00  0.00    +0.108 A 
ATOM     26  C   UNL     1       6.838  -2.941   0.099  0.00  0.00    +0.029 A 
ATOM     27  C   UNL     1       7.537  -4.133   0.050  0.00  0.00    +0.002 A 
ENDBRANCH  19  25
ENDBRANCH  17  19
ENDBRANCH   1  17
TORSDOF 3
