REMARK  Name = ZINC09042950
REMARK  14 active torsions:
REMARK  status: ('A' for Active; 'I' for Inactive)
REMARK    1  A    between atoms: C_1  and  C_2
REMARK    2  A    between atoms: C_2  and  N_63
REMARK    3  A    between atoms: C_3  and  C_4
REMARK    4  A    between atoms: C_3  and  N_63
REMARK    5  A    between atoms: C_5  and  C_6
REMARK    6  A    between atoms: C_5  and  N_63
REMARK    7  A    between atoms: C_6  and  C_7
REMARK    8  A    between atoms: C_7  and  N_8
REMARK    9  A    between atoms: C_9  and  C_27
REMARK   10  A    between atoms: C_12  and  C_13
REMARK   11  A    between atoms: C_12  and  O_22
REMARK   12  A    between atoms: C_16  and  O_20
REMARK   13  A    between atoms: O_20  and  C_21
REMARK   14  A    between atoms: C_30  and  N_33
REMARK                            x       y       z     vdW  Elec       q    Type
REMARK                         _______ _______ _______ _____ _____    ______ ____
ROOT
ATOM      1  N   UNL     1      -1.144   2.130  -0.774  0.00  0.00    -0.284 N 
ATOM      2  C   UNL     1      -0.830   3.524  -0.447  0.00  0.00    +0.144 C 
ATOM      3  C   UNL     1       0.677   3.640  -0.448  0.00  0.00    +0.071 C 
ATOM      4  C   UNL     1       1.422   4.776  -0.196  0.00  0.00    +0.133 C 
ATOM      5  C   UNL     1       1.167   2.362  -0.757  0.00  0.00    +0.249 C 
ATOM      6  O   UNL     1       2.340   2.051  -0.852  0.00  0.00    -0.282 OA
ATOM      7  C   UNL     1       0.004   1.453  -0.948  0.00  0.00    +0.288 C 
ATOM      8  O   UNL     1       0.082   0.274  -1.226  0.00  0.00    -0.266 OA
ENDROOT
BRANCH   4   9
ATOM      9  C   UNL     1       2.888   4.693  -0.125  0.00  0.00    +0.019 A 
ATOM     10  C   UNL     1       3.498   3.707   0.661  0.00  0.00    +0.015 A 
ATOM     11  C   UNL     1       4.871   3.630   0.721  0.00  0.00    +0.048 A 
ATOM     12  C   UNL     1       5.653   4.535   0.012  0.00  0.00    +0.138 A 
ATOM     13  C   UNL     1       5.052   5.520  -0.767  0.00  0.00    +0.083 A 
ATOM     14  C   UNL     1       3.679   5.602  -0.838  0.00  0.00    +0.035 A 
ATOM     15 CL   UNL     1       6.034   6.647  -1.649  0.00  0.00    -0.080 Cl
BRANCH  12  16
ATOM     16  O   UNL     1       7.006   4.458   0.078  0.00  0.00    -0.494 OA
ATOM     17  C   UNL     1       7.557   3.423   0.896  0.00  0.00    +0.277 C 
ENDBRANCH  12  16
ENDBRANCH   4   9
BRANCH   2  18
ATOM     18  C   UNL     1      -1.419   4.439  -1.490  0.00  0.00    -0.022 A 
ATOM     19  C   UNL     1      -1.399   4.072  -2.822  0.00  0.00    +0.008 A 
ATOM     20  C   UNL     1      -1.944   4.910  -3.778  0.00  0.00    +0.033 A 
ATOM     21  C   UNL     1      -2.499   6.119  -3.402  0.00  0.00    +0.126 A 
ATOM     22  C   UNL     1      -2.513   6.488  -2.070  0.00  0.00    +0.033 A 
ATOM     23  C   UNL     1      -1.973   5.648  -1.114  0.00  0.00    +0.008 A 
BRANCH  21  24
ATOM     24  N   UNL     1      -3.077   7.018  -4.425  0.00  0.00    +0.056 N 
ATOM     25  O   UNL     1      -3.566   8.084  -4.094  0.00  0.00    -0.126 OA
ATOM     26  O   UNL     1      -3.064   6.692  -5.599  0.00  0.00    -0.126 OA
ENDBRANCH  21  24
ENDBRANCH   2  18
BRANCH   4  27
ATOM     27  O   UNL     1       0.803   5.963  -0.016  0.00  0.00    -0.506 OA
ATOM     28  H   UNL     1       1.487   6.672   0.154  0.00  0.00    +0.292 HD
ENDBRANCH   4  27
BRANCH   1  29
ATOM     29  C   UNL     1      -2.490   1.565  -0.890  0.00  0.00    +0.107 C 
BRANCH  29  30
ATOM     30  C   UNL     1      -2.941   1.038   0.474  0.00  0.00    +0.000 C 
BRANCH  30  31
ATOM     31  C   UNL     1      -4.348   0.448   0.353  0.00  0.00    -0.077 C 
BRANCH  31  32
ATOM     32  N   UNL     1      -4.760  -0.075   1.672  0.00  0.00    +0.379 N 
ATOM     33  H   UNL     1      -4.026  -0.699   2.028  0.00  0.00    -0.082 HD
BRANCH  32  35
ATOM     34  C   UNL     1      -6.064   1.971   2.150  0.00  0.00    -0.017 C 
ATOM     35  C   UNL     1      -4.944   1.041   2.623  0.00  0.00    -0.082 C 
ENDBRANCH  32  35
BRANCH  32  36
ATOM     36  C   UNL     1      -6.018  -0.840   1.542  0.00  0.00    -0.082 C 
ATOM     37  C   UNL     1      -6.232  -1.656   2.818  0.00  0.00    -0.017 C 
ENDBRANCH  32  36
ENDBRANCH  31  32
ENDBRANCH  30  31
ENDBRANCH  29  30
ENDBRANCH   1  29
TORSDOF 11
