REMARK  Name = ZINC21316093
REMARK  9 active torsions:
REMARK  status: ('A' for Active; 'I' for Inactive)
REMARK    1  A    between atoms: C_1  and  C_2
REMARK    2  A    between atoms: C_5  and  C_29
REMARK    3  A    between atoms: C_6  and  N_8
REMARK    4  A    between atoms: C_9  and  C_11
REMARK    5  A    between atoms: C_11  and  S_12
REMARK    6  A    between atoms: S_12  and  C_13
REMARK    7  A    between atoms: N_17  and  N_18
REMARK    8  A    between atoms: N_19  and  N_20
REMARK    9  A    between atoms: C_21  and  C_22
REMARK                            x       y       z     vdW  Elec       q    Type
REMARK                         _______ _______ _______ _____ _____    ______ ____
ROOT
ATOM      1  C   UNL     1       0.638   3.495   0.045  0.00  0.00    +0.210 A 
ATOM      2  N   UNL     1      -0.673   3.478   0.065  0.00  0.00    -0.119 NA
ATOM      3  N   UNL     1      -1.089   2.140   0.067  0.00  0.00    -0.109 NA
ATOM      4  C   UNL     1      -0.018   1.383   0.057  0.00  0.00    +0.254 A 
ATOM      5  N   UNL     1       1.077   2.202   0.040  0.00  0.00    -0.211 N 
ATOM      6  N   UNL     1       0.001  -0.004   0.057  0.00  0.00    -0.204 N 
ATOM      7  H   UNL     1       0.961  -0.541   0.043  0.00  0.00    +0.177 HD
ENDROOT
BRANCH   5   8
ATOM      8  N   UNL     1       2.382   1.797   0.021  0.00  0.00    -0.294 N 
ATOM      9  H   UNL     1       2.625   0.724   0.019  0.00  0.00    +0.163 HD
ATOM     10  H   UNL     1       3.189   2.544   0.009  0.00  0.00    +0.163 HD
ENDBRANCH   5   8
BRANCH   6  11
ATOM     11  N   UNL     1      -1.203  -0.721   0.076  0.00  0.00    -0.188 NA
ATOM     12  C   UNL     1      -1.185  -2.019   0.076  0.00  0.00    +0.138 C 
BRANCH  12  13
ATOM     13  C   UNL     1      -2.452  -2.773   0.096  0.00  0.00    -0.005 A 
ATOM     14  C   UNL     1      -3.673  -2.094   0.119  0.00  0.00    +0.010 A 
ATOM     15  C   UNL     1      -4.854  -2.806   0.131  0.00  0.00    +0.016 A 
ATOM     16  C   UNL     1      -4.832  -4.190   0.132  0.00  0.00    +0.018 A 
ATOM     17  C   UNL     1      -3.625  -4.870   0.115  0.00  0.00    +0.016 A 
ATOM     18  C   UNL     1      -2.437  -4.171   0.096  0.00  0.00    +0.010 A 
ATOM     19 BR   UNL     1      -6.457  -5.158   0.157  0.00  0.00    -0.050 Br
ENDBRANCH  12  13
ENDBRANCH   6  11
BRANCH   1  20
ATOM     20  S   UNL     1       1.655   4.934   0.028  0.00  0.00    -0.075 S 
BRANCH  20  21
ATOM     21  C   UNL     1       0.470   6.308   0.045  0.00  0.00    +0.173 C 
BRANCH  21  23
ATOM     22  N   UNL     1       0.540   8.781   0.041  0.00  0.00    -0.285 N 
ATOM     23  C   UNL     1       1.218   7.616   0.032  0.00  0.00    +0.227 C 
ATOM     24  O   UNL     1       2.431   7.621   0.014  0.00  0.00    -0.275 OA
ATOM     25  H   UNL     1      -0.557   8.778  -0.034  0.00  0.00    +0.155 HD
BRANCH  22  31
ATOM     26  C   UNL     1       4.532  11.264   1.477  0.00  0.00    +0.044 C 
ATOM     27  C   UNL     1       3.169  11.225   0.838  0.00  0.00    -0.049 A 
ATOM     28  C   UNL     1       2.599  12.389   0.354  0.00  0.00    +0.004 A 
ATOM     29  C   UNL     1       1.347  12.357  -0.233  0.00  0.00    +0.005 A 
ATOM     30  C   UNL     1       0.662  11.163  -0.338  0.00  0.00    -0.029 A 
ATOM     31  C   UNL     1       1.232   9.993   0.146  0.00  0.00    +0.037 A 
ATOM     32  C   UNL     1       2.486  10.029   0.740  0.00  0.00    +0.027 A 
ATOM     33  C   UNL     1      -0.702  11.129  -0.979  0.00  0.00    +0.045 C 
ENDBRANCH  22  31
ENDBRANCH  21  23
ENDBRANCH  20  21
ENDBRANCH   1  20
TORSDOF 7
