REMARK  Name = ZINC39638352
REMARK  8 active torsions:
REMARK  status: ('A' for Active; 'I' for Inactive)
REMARK    1  A    between atoms: C_1  and  O_2
REMARK    2  A    between atoms: O_2  and  C_3
REMARK    3  A    between atoms: C_7  and  C_11
REMARK    4  A    between atoms: C_8  and  O_9
REMARK    5  A    between atoms: O_9  and  C_10
REMARK    6  A    between atoms: C_11  and  N_12
REMARK    7  A    between atoms: C_13  and  C_15
REMARK    8  A    between atoms: C_26  and  C_28
REMARK                            x       y       z     vdW  Elec       q    Type
REMARK                         _______ _______ _______ _____ _____    ______ ____
ROOT
ATOM      1  C   UNL     1       6.344  -3.393   2.183  0.00  0.00    +0.100 C 
ATOM      2  C   UNL     1       7.078  -2.408   3.120  0.00  0.00    +0.121 C 
ATOM      3  N   UNL     1       7.599  -3.255   4.218  0.00  0.00    -0.296 N 
ATOM      4  C   UNL     1       8.055  -4.494   3.545  0.00  0.00    +0.115 C 
ATOM      5  C   UNL     1       6.990  -4.761   2.462  0.00  0.00    -0.004 C 
ATOM      6  C   UNL     1       5.945  -5.743   2.982  0.00  0.00    -0.010 C 
ATOM      7  C   UNL     1       6.599  -7.110   3.199  0.00  0.00    -0.082 C 
ATOM      8  N   UNL     1       7.164  -7.590   1.932  0.00  0.00    +0.379 N 
ATOM      9  C   UNL     1       8.233  -6.689   1.486  0.00  0.00    -0.082 C 
ATOM     10  C   UNL     1       7.647  -5.303   1.197  0.00  0.00    -0.010 C 
ATOM     11  C   UNL     1       7.648  -2.963   5.534  0.00  0.00    +0.247 C 
ATOM     12  O   UNL     1       7.132  -1.945   5.950  0.00  0.00    -0.270 OA
ATOM     13  H   UNL     1       7.541  -8.517   2.063  0.00  0.00    -0.086 HD
ATOM     14  H   UNL     1       6.438  -7.621   1.232  0.00  0.00    -0.086 HD
ENDROOT
BRANCH  11  15
ATOM     15  C   UNL     1       8.330  -3.883   6.469  0.00  0.00    +0.040 A 
ATOM     16  C   UNL     1       9.280  -4.789   5.995  0.00  0.00    +0.033 A 
ATOM     17  C   UNL     1       9.913  -5.645   6.873  0.00  0.00    +0.043 A 
ATOM     18  C   UNL     1       9.607  -5.606   8.223  0.00  0.00    +0.040 A 
ATOM     19  C   UNL     1       8.666  -4.710   8.700  0.00  0.00    +0.043 A 
ATOM     20  C   UNL     1       8.031  -3.845   7.832  0.00  0.00    +0.033 A 
ATOM     21 CL   UNL     1       8.289  -4.669  10.394  0.00  0.00    -0.083 Cl
ATOM     22 CL   UNL     1      11.094  -6.773   6.285  0.00  0.00    -0.083 Cl
ENDBRANCH  11  15
BRANCH   1  24
ATOM     23  N   UNL     1       3.974  -3.693   1.541  0.00  0.00    -0.311 N 
ATOM     24  C   UNL     1       4.873  -3.431   2.510  0.00  0.00    +0.218 C 
ATOM     25  O   UNL     1       4.499  -3.226   3.645  0.00  0.00    -0.275 OA
ATOM     26  H   UNL     1       4.276  -3.919   0.647  0.00  0.00    +0.149 HD
BRANCH  23  27
ATOM     27  C   UNL     1       2.540  -3.637   1.837  0.00  0.00    +0.143 C 
BRANCH  27  32
ATOM     28  C   UNL     1       0.853  -5.517  -0.982  0.00  0.00    +0.162 A 
ATOM     29  C   UNL     1       0.314  -4.474  -1.718  0.00  0.00    +0.049 A 
ATOM     30  C   UNL     1       0.495  -3.168  -1.303  0.00  0.00    +0.004 A 
ATOM     31  C   UNL     1       1.215  -2.899  -0.154  0.00  0.00    +0.009 A 
ATOM     32  C   UNL     1       1.756  -3.934   0.585  0.00  0.00    +0.015 A 
ATOM     33  C   UNL     1       1.573  -5.246   0.178  0.00  0.00    +0.166 A 
BRANCH  28  35
ATOM     34  C   UNL     1      -0.073  -7.005  -2.589  0.00  0.00    +0.277 C 
ATOM     35  O   UNL     1       0.675  -6.802  -1.389  0.00  0.00    -0.491 OA
ENDBRANCH  28  35
BRANCH  33  36
ATOM     36  O   UNL     1       2.099  -6.266   0.907  0.00  0.00    -0.491 OA
ATOM     37  C   UNL     1       3.366  -6.777   0.488  0.00  0.00    +0.277 C 
ENDBRANCH  33  36
ENDBRANCH  27  32
ENDBRANCH  23  27
ENDBRANCH   1  24
TORSDOF 6
