REMARK  Name = ZINC05122828
REMARK  4 active torsions:
REMARK  status: ('A' for Active; 'I' for Inactive)
REMARK    1  A    between atoms: C_1  and  S_2
REMARK    2  A    between atoms: S_2  and  C_3
REMARK    3  A    between atoms: C_15  and  C_18
REMARK    4  A    between atoms: C_20  and  N_23
REMARK                            x       y       z     vdW  Elec       q    Type
REMARK                         _______ _______ _______ _____ _____    ______ ____
ROOT
ATOM      1  C   UNL     1       0.002  -0.004   0.002  0.00  0.00    +0.034 A 
ATOM      2  C   UNL     1      -0.017   1.375   0.010  0.00  0.00    +0.017 A 
ATOM      3  C   UNL     1       1.155   2.113   0.002  0.00  0.00    +0.002 A 
ATOM      4  C   UNL     1       2.375   1.457  -0.013  0.00  0.00    +0.017 A 
ATOM      5  C   UNL     1       2.411   0.086  -0.021  0.00  0.00    +0.042 A 
ATOM      6  C   UNL     1       1.240  -0.710  -0.014  0.00  0.00    +0.094 A 
ATOM      7  N   UNL     1       1.435  -2.035  -0.023  0.00  0.00    -0.223 NA
ATOM      8  C   UNL     1       2.635  -2.576  -0.037  0.00  0.00    +0.165 A 
ATOM      9  S   UNL     1       3.698  -1.139  -0.040  0.00  0.00    -0.052 S 
ATOM     10  N   UNL     1       2.983  -3.908  -0.048  0.00  0.00    -0.273 N 
ATOM     11  C   UNL     1       4.294  -4.269  -0.063  0.00  0.00    +0.164 A 
ATOM     12  N   UNL     1       4.809  -5.489  -0.069  0.00  0.00    -0.224 NA
ATOM     13  C   UNL     1       6.111  -5.674  -0.088  0.00  0.00    +0.087 A 
ATOM     14  C   UNL     1       6.949  -4.451  -0.089  0.00  0.00    +0.077 A 
ATOM     15  S   UNL     1       5.731  -3.212  -0.071  0.00  0.00    -0.060 S 
ATOM     16  H   UNL     1       2.292  -4.590  -0.045  0.00  0.00    +0.156 HD
ENDROOT
BRANCH  13  17
ATOM     17  C   UNL     1       6.676  -6.958  -0.100  0.00  0.00    +0.040 A 
ATOM     18  C   UNL     1       6.026  -8.219  -0.101  0.00  0.00    +0.050 A 
ATOM     19  C   UNL     1       6.820  -9.316  -0.115  0.00  0.00    +0.134 A 
ATOM     20  C   UNL     1       8.200  -9.150  -0.128  0.00  0.00    +0.078 A 
ATOM     21  S   UNL     1       8.397  -7.428  -0.127  0.00  0.00    -0.093 S 
BRANCH  19  22
ATOM     22  N   UNL     1       6.226 -10.672  -0.117  0.00  0.00    +0.057 N 
ATOM     23  O   UNL     1       4.918 -10.819  -0.105  0.00  0.00    -0.126 OA
ATOM     24  O   UNL     1       7.007 -11.733  -0.132  0.00  0.00    -0.126 OA
ENDBRANCH  19  22
ENDBRANCH  13  17
BRANCH   1  26
ATOM     25  C   UNL     1      -2.788   0.394   0.031  0.00  0.00    +0.090 C 
ATOM     26  S   UNL     1      -1.516  -0.899   0.012  0.00  0.00    -0.126 S 
ENDBRANCH   1  26
TORSDOF 3
