REMARK  Name = ZINC43548088
REMARK  12 active torsions:
REMARK  status: ('A' for Active; 'I' for Inactive)
REMARK    1  A    between atoms: C_1  and  C_2
REMARK    2  A    between atoms: C_2  and  O_34
REMARK    3  A    between atoms: C_5  and  C_23
REMARK    4  A    between atoms: C_9  and  C_21
REMARK    5  A    between atoms: C_9  and  C_22
REMARK    6  A    between atoms: C_11  and  N_13
REMARK    7  A    between atoms: N_13  and  C_14
REMARK    8  A    between atoms: N_17  and  C_20
REMARK    9  A    between atoms: C_23  and  C_24
REMARK   10  A    between atoms: C_24  and  C_25
REMARK   11  A    between atoms: N_27  and  C_28
REMARK   12  A    between atoms: C_28  and  C_29
REMARK                            x       y       z     vdW  Elec       q    Type
REMARK                         _______ _______ _______ _____ _____    ______ ____
ROOT
ATOM      1  C   UNL     1       0.316   1.432   0.655  0.00  0.00    +0.041 C 
ATOM      2  C   UNL     1       0.271  -0.083   0.451  0.00  0.00    +0.064 C 
ATOM      3  C   UNL     1      -1.181  -0.549   0.490  0.00  0.00    +0.035 C 
ATOM      4  C   UNL     1      -1.284  -2.080   0.406  0.00  0.00    +0.008 C 
ATOM      5  C   UNL     1      -0.488  -2.649   1.567  0.00  0.00    -0.038 C 
ATOM      6  C   UNL     1       0.997  -2.261   1.333  0.00  0.00    +0.002 C 
ATOM      7  C   UNL     1       1.110  -0.764   1.545  0.00  0.00    +0.039 C 
ATOM      8  C   UNL     1       1.750  -3.147   2.319  0.00  0.00    -0.033 C 
ATOM      9  C   UNL     1       0.880  -4.419   2.474  0.00  0.00    -0.009 C 
ATOM     10  C   UNL     1      -0.402  -4.178   1.630  0.00  0.00    -0.064 C 
ATOM     11  C   UNL     1       1.897  -2.438   3.666  0.00  0.00    +0.011 C 
ATOM     12  C   UNL     1       3.127  -3.512   1.758  0.00  0.00    +0.011 C 
ENDROOT
BRANCH  10  13
ATOM     13  N   UNL     1      -0.252  -4.747   0.284  0.00  0.00    +0.383 N 
ATOM     14  H   UNL     1      -0.998  -4.412  -0.308  0.00  0.00    -0.085 HD
ATOM     15  H   UNL     1       0.636  -4.466  -0.103  0.00  0.00    -0.085 HD
BRANCH  13  16
ATOM     16  C   UNL     1      -0.310  -6.213   0.362  0.00  0.00    -0.069 C 
ATOM     17  C   UNL     1      -0.014  -6.811  -1.016  0.00  0.00    -0.000 C 
ATOM     18  C   UNL     1      -0.136  -8.334  -0.943  0.00  0.00    +0.082 C 
ATOM     19  N   UNL     1      -1.493  -8.698  -0.513  0.00  0.00    -0.305 NA
ATOM     20  C   UNL     1      -1.783  -8.174   0.828  0.00  0.00    +0.082 C 
ATOM     21  C   UNL     1      -1.710  -6.646   0.807  0.00  0.00    -0.000 C 
ATOM     22  C   UNL     1      -1.689 -10.153  -0.564  0.00  0.00    +0.104 C 
ENDBRANCH  13  16
ENDBRANCH  10  13
BRANCH   2  23
ATOM     23  O   UNL     1       0.826  -0.398  -0.828  0.00  0.00    -0.389 OA
ATOM     24  H   UNL     1       0.359   0.008  -1.571  0.00  0.00    +0.210 HD
ENDBRANCH   2  23
BRANCH   5  25
ATOM     25  C   UNL     1      -1.006  -2.089   2.893  0.00  0.00    +0.015 C 
BRANCH  25  26
ATOM     26  C   UNL     1      -2.514  -2.327   2.993  0.00  0.00    +0.096 C 
BRANCH  26  27
ATOM     27  C   UNL     1      -3.023  -1.775   4.300  0.00  0.00    +0.213 C 
ATOM     28  O   UNL     1      -2.256  -1.244   5.074  0.00  0.00    -0.276 OA
ATOM     29  N   UNL     1      -4.332  -1.872   4.607  0.00  0.00    -0.308 N 
ATOM     30  H   UNL     1      -4.946  -2.297   3.988  0.00  0.00    +0.149 HD
BRANCH  29  31
ATOM     31  C   UNL     1      -4.828  -1.335   5.877  0.00  0.00    +0.178 C 
BRANCH  31  32
ATOM     32  C   UNL     1      -6.313  -1.570   5.976  0.00  0.00    +0.122 A 
ATOM     33  C   UNL     1      -6.904  -2.653   6.511  0.00  0.00    +0.046 A 
ATOM     34  C   UNL     1      -8.300  -2.457   6.396  0.00  0.00    +0.041 A 
ATOM     35  C   UNL     1      -8.478  -1.266   5.797  0.00  0.00    +0.195 A 
ATOM     36  O   UNL     1      -7.271  -0.731   5.550  0.00  0.00    -0.466 OA
ENDBRANCH  31  32
ENDBRANCH  29  31
ENDBRANCH  26  27
ENDBRANCH  25  26
ENDBRANCH   5  25
TORSDOF 8
