REMARK  Name = ZINC38980717
REMARK  8 active torsions:
REMARK  status: ('A' for Active; 'I' for Inactive)
REMARK    1  A    between atoms: C_1  and  O_2
REMARK    2  A    between atoms: O_2  and  C_3
REMARK    3  A    between atoms: C_5  and  O_31
REMARK    4  A    between atoms: C_8  and  N_9
REMARK    5  A    between atoms: N_9  and  C_10
REMARK    6  A    between atoms: N_13  and  S_14
REMARK    7  A    between atoms: S_14  and  C_17
REMARK    8  A    between atoms: O_31  and  C_32
REMARK                            x       y       z     vdW  Elec       q    Type
REMARK                         _______ _______ _______ _____ _____    ______ ____
ROOT
ATOM      1  C   UNL     1      -0.126  -4.239   0.091  0.00  0.00    +0.235 C 
ATOM      2  C   UNL     1       0.833  -4.810  -0.929  0.00  0.00    +0.170 C 
ATOM      3  N   UNL     1       0.700  -4.527  -2.191  0.00  0.00    -0.111 NA
ATOM      4  N   UNL     1       1.824  -5.614  -0.512  0.00  0.00    -0.338 N 
ATOM      5  C   UNL     1       1.981  -5.915   0.760  0.00  0.00    +0.064 A 
ATOM      6  C   UNL     1       3.040  -6.766   1.165  0.00  0.00    +0.028 A 
ATOM      7  C   UNL     1       3.205  -7.079   2.468  0.00  0.00    +0.002 A 
ATOM      8  C   UNL     1       2.359  -6.592   3.479  0.00  0.00    +0.002 A 
ATOM      9  C   UNL     1       1.320  -5.774   3.203  0.00  0.00    +0.027 A 
ATOM     10  C   UNL     1       1.072  -5.386   1.807  0.00  0.00    +0.061 A 
ATOM     11  N   UNL     1       0.080  -4.597   1.503  0.00  0.00    -0.359 N 
ATOM     12  H   UNL     1      -0.509  -4.255   2.193  0.00  0.00    +0.162 HD
ATOM     13  H   UNL     1       2.441  -5.981  -1.165  0.00  0.00    +0.167 HD
ENDROOT
BRANCH   3  14
ATOM     14  S   UNL     1       1.757  -5.159  -3.298  0.00  0.00    +0.107 S 
ATOM     15  O   UNL     1       3.026  -4.585  -3.021  0.00  0.00    -0.146 OA
ATOM     16  O   UNL     1       1.542  -6.564  -3.308  0.00  0.00    -0.146 OA
BRANCH  14  17
ATOM     17  C   UNL     1       1.270  -4.564  -4.883  0.00  0.00    +0.150 A 
ATOM     18  C   UNL     1       1.665  -3.441  -5.532  0.00  0.00    +0.037 A 
ATOM     19  C   UNL     1       1.145  -3.172  -6.784  0.00  0.00    +0.010 A 
ATOM     20  C   UNL     1       0.255  -4.039  -7.326  0.00  0.00    +0.047 A 
ATOM     21  S   UNL     1       0.133  -5.286  -6.054  0.00  0.00    -0.076 S 
ENDBRANCH  14  17
ENDBRANCH   3  14
BRANCH   1  22
ATOM     22  N   UNL     1      -0.071  -2.779  -0.012  0.00  0.00    -0.315 N 
ATOM     23  H   UNL     1       0.784  -2.322   0.014  0.00  0.00    +0.149 HD
BRANCH  22  29
ATOM     24  C   UNL     1      -1.199  -0.667  -0.375  0.00  0.00    +0.144 A 
ATOM     25  C   UNL     1      -2.370   0.059  -0.515  0.00  0.00    +0.094 A 
ATOM     26  C   UNL     1      -3.597  -0.581  -0.424  0.00  0.00    +0.142 A 
ATOM     27  C   UNL     1      -3.652  -1.948  -0.193  0.00  0.00    +0.084 A 
ATOM     28  C   UNL     1      -2.485  -2.676  -0.052  0.00  0.00    +0.050 A 
ATOM     29  C   UNL     1      -1.255  -2.040  -0.149  0.00  0.00    +0.073 A 
ATOM     30 CL   UNL     1      -5.190  -2.746  -0.080  0.00  0.00    -0.080 Cl
BRANCH  24  32
ATOM     31  C   UNL     1      -0.012   1.369  -0.697  0.00  0.00    +0.277 C 
ATOM     32  O   UNL     1       0.006  -0.041  -0.464  0.00  0.00    -0.493 OA
ENDBRANCH  24  32
BRANCH  26  33
ATOM     33  O   UNL     1      -4.747   0.132  -0.561  0.00  0.00    -0.494 OA
ATOM     34  C   UNL     1      -4.615   1.536  -0.797  0.00  0.00    +0.277 C 
ENDBRANCH  26  33
ENDBRANCH  22  29
ENDBRANCH   1  22
TORSDOF 6
