REMARK  Name = ZINC04774107
REMARK  11 active torsions:
REMARK  status: ('A' for Active; 'I' for Inactive)
REMARK    1  A    between atoms: C_1  and  N_2
REMARK    2  A    between atoms: N_2  and  C_3
REMARK    3  A    between atoms: C_3  and  N_5
REMARK    4  A    between atoms: N_5  and  N_6
REMARK    5  A    between atoms: C_7  and  C_8
REMARK    6  A    between atoms: N_14  and  C_25
REMARK    7  A    between atoms: C_16  and  C_17
REMARK    8  A    between atoms: N_18  and  N_19
REMARK    9  A    between atoms: N_19  and  C_20
REMARK   10  A    between atoms: C_20  and  N_22
REMARK   11  A    between atoms: N_22  and  C_23
REMARK                            x       y       z     vdW  Elec       q    Type
REMARK                         _______ _______ _______ _____ _____    ______ ____
ROOT
ATOM      1  C   UNL     1      -1.282   1.464  -0.391  0.00  0.00    +0.019 A 
ATOM      2  C   UNL     1      -2.397   0.653  -0.180  0.00  0.00    +0.011 A 
ATOM      3  C   UNL     1      -3.591   1.202   0.252  0.00  0.00    +0.001 A 
ATOM      4  C   UNL     1      -3.700   2.560   0.467  0.00  0.00    +0.011 A 
ATOM      5  C   UNL     1      -2.600   3.390   0.257  0.00  0.00    +0.011 A 
ATOM      6  C   UNL     1      -1.380   2.848  -0.175  0.00  0.00    +0.064 A 
ATOM      7  N   UNL     1      -0.483   3.887  -0.297  0.00  0.00    -0.299 N 
ATOM      8  C   UNL     1      -1.080   5.068   0.038  0.00  0.00    +0.124 A 
ATOM      9  C   UNL     1      -2.377   4.841   0.388  0.00  0.00    +0.039 A 
ATOM     10 CL   UNL     1      -0.305   6.621   0.022  0.00  0.00    -0.063 Cl
ENDROOT
BRANCH   7  11
ATOM     11  C   UNL     1       0.849   3.751  -0.706  0.00  0.00    +0.048 A 
ATOM     12  C   UNL     1       1.786   3.188   0.151  0.00  0.00    +0.026 A 
ATOM     13  C   UNL     1       3.098   3.049  -0.258  0.00  0.00    +0.002 A 
ATOM     14  C   UNL     1       3.482   3.481  -1.515  0.00  0.00    +0.000 A 
ATOM     15  C   UNL     1       2.552   4.047  -2.368  0.00  0.00    +0.002 A 
ATOM     16  C   UNL     1       1.238   4.183  -1.967  0.00  0.00    +0.026 A 
ENDBRANCH   7  11
BRANCH   1  18
ATOM     17  N   UNL     1      -0.017  -0.226  -1.537  0.00  0.00    -0.188 NA
ATOM     18  C   UNL     1      -0.011   0.872  -0.844  0.00  0.00    +0.140 C 
BRANCH  17  19
ATOM     19  N   UNL     1      -1.224  -0.737  -2.031  0.00  0.00    -0.218 N 
ATOM     20  H   UNL     1      -2.044  -0.230  -1.925  0.00  0.00    +0.176 HD
BRANCH  19  21
ATOM     21  C   UNL     1      -1.246  -1.932  -2.653  0.00  0.00    +0.150 C 
ATOM     22  S   UNL     1      -2.737  -2.616  -3.142  0.00  0.00    -0.017 S 
BRANCH  21  24
ATOM     23  C   UNL     1      -0.105  -3.835  -3.661  0.00  0.00    +0.127 C 
ATOM     24  N   UNL     1      -0.093  -2.590  -2.889  0.00  0.00    -0.328 N 
ATOM     25  H   UNL     1       0.744  -2.239  -2.548  0.00  0.00    +0.147 HD
ENDBRANCH  21  24
ENDBRANCH  19  21
ENDBRANCH  17  19
ENDBRANCH   1  18
BRANCH   9  26
ATOM     26  C   UNL     1      -3.362   5.848   0.813  0.00  0.00    +0.141 C 
ATOM     27  N   UNL     1      -3.981   5.713   1.947  0.00  0.00    -0.188 NA
BRANCH  27  28
ATOM     28  N   UNL     1      -3.618   4.683   2.825  0.00  0.00    -0.218 N 
ATOM     29  H   UNL     1      -2.855   4.119   2.622  0.00  0.00    +0.176 HD
BRANCH  28  30
ATOM     30  C   UNL     1      -4.328   4.476   3.952  0.00  0.00    +0.150 C 
ATOM     31  S   UNL     1      -3.884   3.218   5.024  0.00  0.00    -0.017 S 
BRANCH  30  32
ATOM     32  N   UNL     1      -5.387   5.260   4.234  0.00  0.00    -0.328 N 
ATOM     33  C   UNL     1      -6.159   5.035   5.458  0.00  0.00    +0.127 C 
ATOM     34  H   UNL     1      -5.639   5.973   3.626  0.00  0.00    +0.147 HD
ENDBRANCH  30  32
ENDBRANCH  28  30
ENDBRANCH  27  28
ENDBRANCH   9  26
TORSDOF 9
