REMARK  Name = ZINC21075396
REMARK  9 active torsions:
REMARK  status: ('A' for Active; 'I' for Inactive)
REMARK    1  A    between atoms: C_4  and  C_7
REMARK    2  A    between atoms: C_7  and  C_8
REMARK    3  A    between atoms: C_7  and  N_14
REMARK    4  A    between atoms: C_15  and  C_17
REMARK    5  A    between atoms: C_17  and  S_18
REMARK    6  A    between atoms: S_18  and  C_19
REMARK    7  A    between atoms: N_24  and  N_25
REMARK    8  A    between atoms: C_26  and  C_27
REMARK    9  A    between atoms: C_32  and  O_33
REMARK                            x       y       z     vdW  Elec       q    Type
REMARK                         _______ _______ _______ _____ _____    ______ ____
ROOT
ATOM      1  S   UNL     1      -8.731   0.029   0.083  0.00  0.00    -0.075 S 
ENDROOT
BRANCH   1   2
ATOM      2  C   UNL     1      -6.982   0.243   0.067  0.00  0.00    +0.211 A 
ATOM      3  N   UNL     1      -6.051  -0.757   0.053  0.00  0.00    -0.186 NA
ATOM      4  C   UNL     1      -4.811  -0.180   0.045  0.00  0.00    +0.232 A 
ATOM      5  N   UNL     1      -4.970   1.122   0.059  0.00  0.00    -0.245 N 
ATOM      6  N   UNL     1      -6.345   1.390   0.068  0.00  0.00    -0.144 NA
ATOM      7  N   UNL     1      -3.598  -0.853   0.030  0.00  0.00    -0.205 N 
ATOM      8  H   UNL     1      -3.580  -1.953   0.025  0.00  0.00    +0.177 HD
ATOM      9  H   UNL     1      -4.091   1.783   0.062  0.00  0.00    +0.192 HD
BRANCH   7  10
ATOM     10  N   UNL     1      -2.397  -0.132   0.023  0.00  0.00    -0.187 NA
ATOM     11  C   UNL     1      -1.262  -0.762   0.009  0.00  0.00    +0.142 C 
BRANCH  11  12
ATOM     12  C   UNL     1       0.002  -0.004   0.002  0.00  0.00    +0.036 A 
ATOM     13  C   UNL     1       1.225  -0.678  -0.013  0.00  0.00    +0.013 A 
ATOM     14  C   UNL     1       2.404   0.038  -0.021  0.00  0.00    +0.001 A 
ATOM     15  C   UNL     1       2.381   1.422  -0.013  0.00  0.00    +0.004 A 
ATOM     16  C   UNL     1       1.176   2.100   0.002  0.00  0.00    +0.046 A 
ATOM     17  C   UNL     1      -0.017   1.397   0.010  0.00  0.00    +0.125 A 
BRANCH  17  18
ATOM     18  O   UNL     1      -1.201   2.063   0.019  0.00  0.00    -0.506 OA
ATOM     19  H   UNL     1      -1.213   3.163   0.025  0.00  0.00    +0.292 HD
ENDBRANCH  17  18
ENDBRANCH  11  12
ENDBRANCH   7  10
ENDBRANCH   1   2
BRANCH   1  20
ATOM     20  C   UNL     1      -9.380   1.723   0.098  0.00  0.00    +0.173 C 
BRANCH  20  22
ATOM     21  N   UNL     1     -11.590   2.833   0.124  0.00  0.00    -0.304 N 
ATOM     22  C   UNL     1     -10.886   1.683   0.112  0.00  0.00    +0.224 C 
ATOM     23  O   UNL     1     -11.465   0.618   0.112  0.00  0.00    -0.275 OA
ATOM     24  H   UNL     1     -11.065   3.799   0.124  0.00  0.00    +0.150 HD
BRANCH  21  25
ATOM     25  C   UNL     1     -13.055   2.794   0.138  0.00  0.00    +0.134 C 
BRANCH  25  29
ATOM     26  C   UNL     1     -14.431   2.385   4.161  0.00  0.00    +0.000 A 
ATOM     27  C   UNL     1     -15.056   1.691   3.142  0.00  0.00    +0.000 A 
ATOM     28  C   UNL     1     -14.611   1.823   1.841  0.00  0.00    +0.006 A 
ATOM     29  C   UNL     1     -13.540   2.650   1.557  0.00  0.00    -0.023 A 
ATOM     30  C   UNL     1     -12.911   3.340   2.576  0.00  0.00    +0.006 A 
ATOM     31  C   UNL     1     -13.359   3.211   3.877  0.00  0.00    +0.000 A 
ENDBRANCH  25  29
BRANCH  25  32
ATOM     32  C   UNL     1     -13.596   4.071  -0.451  0.00  0.00    -0.023 A 
ATOM     33  C   UNL     1     -12.994   5.279  -0.153  0.00  0.00    +0.006 A 
ATOM     34  C   UNL     1     -13.488   6.450  -0.697  0.00  0.00    +0.000 A 
ATOM     35  C   UNL     1     -14.590   6.414  -1.531  0.00  0.00    +0.000 A 
ATOM     36  C   UNL     1     -15.195   5.207  -1.825  0.00  0.00    +0.000 A 
ATOM     37  C   UNL     1     -14.698   4.035  -1.285  0.00  0.00    +0.006 A 
ENDBRANCH  25  32
ENDBRANCH  21  25
ENDBRANCH  20  22
ENDBRANCH   1  20
TORSDOF 9
