REMARK  Name = ZINC35746885
REMARK  15 active torsions:
REMARK  status: ('A' for Active; 'I' for Inactive)
REMARK    1  A    between atoms: C_1  and  C_2
REMARK    2  A    between atoms: C_8  and  C_17
REMARK    3  A    between atoms: C_12  and  C_13
REMARK    4  A    between atoms: C_13  and  O_15
REMARK    5  A    between atoms: O_15  and  C_16
REMARK    6  A    between atoms: C_17  and  N_18
REMARK    7  A    between atoms: N_18  and  C_19
REMARK    8  A    between atoms: N_18  and  C_30
REMARK    9  A    between atoms: C_19  and  C_20
REMARK   10  A    between atoms: C_20  and  C_22
REMARK   11  A    between atoms: C_20  and  O_29
REMARK   12  A    between atoms: C_22  and  C_23
REMARK   13  A    between atoms: C_30  and  C_31
REMARK   14  A    between atoms: C_31  and  C_32
REMARK   15  A    between atoms: C_31  and  C_33
REMARK                            x       y       z     vdW  Elec       q    Type
REMARK                         _______ _______ _______ _____ _____    ______ ____
ROOT
ATOM      1  C   UNL     1      -0.789  -3.616  -4.988  0.00  0.00    -0.003 C 
ENDROOT
BRANCH   1   9
ATOM      2  C   UNL     1      -6.349  -3.844  -8.635  0.00  0.00    +0.046 C 
ATOM      3  C   UNL     1      -5.747  -4.634  -7.501  0.00  0.00    -0.015 A 
ATOM      4  C   UNL     1      -4.507  -4.268  -6.974  0.00  0.00    +0.076 A 
ATOM      5  C   UNL     1      -3.616  -3.152  -7.367  0.00  0.00    +0.260 A 
ATOM      6  O   UNL     1      -3.925  -2.394  -8.269  0.00  0.00    -0.267 OA
ATOM      7  N   UNL     1      -2.454  -2.999  -6.702  0.00  0.00    -0.312 N 
ATOM      8  H   UNL     1      -1.859  -2.273  -6.947  0.00  0.00    +0.170 HD
ATOM      9  C   UNL     1      -2.101  -3.837  -5.697  0.00  0.00    +0.094 A 
ATOM     10  N   UNL     1      -2.863  -4.829  -5.325  0.00  0.00    -0.229 NA
ATOM     11  C   UNL     1      -4.027  -5.070  -5.914  0.00  0.00    +0.116 A 
ATOM     12  S   UNL     1      -5.310  -6.280  -5.706  0.00  0.00    -0.062 S 
ATOM     13  C   UNL     1      -6.415  -5.706  -6.984  0.00  0.00    +0.102 A 
BRANCH  13  14
ATOM     14  C   UNL     1      -7.716  -6.251  -7.380  0.00  0.00    +0.346 C 
ATOM     15  O   UNL     1      -8.343  -5.732  -8.284  0.00  0.00    -0.244 OA
BRANCH  14  16
ATOM     16  O   UNL     1      -8.218  -7.328  -6.743  0.00  0.00    -0.464 OA
ATOM     17  C   UNL     1      -9.491  -7.806  -7.182  0.00  0.00    +0.280 C 
ENDBRANCH  14  16
ENDBRANCH  13  14
ENDBRANCH   1   9
BRANCH   1  18
ATOM     18  N   UNL     1      -0.549  -4.720  -4.048  0.00  0.00    +0.386 N 
ATOM     19  H   UNL     1      -1.349  -4.826  -3.442  0.00  0.00    -0.081 HD
BRANCH  18  20
ATOM     20  C   UNL     1      -0.336  -5.965  -4.799  0.00  0.00    -0.046 C 
BRANCH  20  21
ATOM     21  C   UNL     1      -0.266  -7.142  -3.824  0.00  0.00    +0.102 C 
BRANCH  21  22
ATOM     22  O   UNL     1       0.937  -7.055  -3.057  0.00  0.00    -0.393 OA
ATOM     23  H   UNL     1       1.745  -7.075  -3.588  0.00  0.00    +0.210 HD
ENDBRANCH  21  22
BRANCH  21  24
ATOM     24  C   UNL     1      -0.275  -8.455  -4.610  0.00  0.00    +0.064 C 
BRANCH  24  25
ATOM     25  C   UNL     1      -0.330  -9.615  -3.649  0.00  0.00    -0.045 A 
ATOM     26  C   UNL     1       0.841 -10.172  -3.170  0.00  0.00    +0.004 A 
ATOM     27  C   UNL     1       0.790 -11.235  -2.289  0.00  0.00    +0.000 A 
ATOM     28  C   UNL     1      -0.431 -11.742  -1.885  0.00  0.00    +0.000 A 
ATOM     29  C   UNL     1      -1.602 -11.184  -2.363  0.00  0.00    +0.000 A 
ATOM     30  C   UNL     1      -1.552 -10.118  -3.241  0.00  0.00    +0.004 A 
ENDBRANCH  24  25
ENDBRANCH  21  24
ENDBRANCH  20  21
ENDBRANCH  18  20
BRANCH  18  31
ATOM     31  C   UNL     1       0.641  -4.425  -3.240  0.00  0.00    -0.075 C 
BRANCH  31  32
ATOM     32  C   UNL     1       0.399  -3.157  -2.419  0.00  0.00    -0.034 C 
ATOM     33  C   UNL     1      -0.817  -3.362  -1.512  0.00  0.00    +0.005 C 
ATOM     34  C   UNL     1       1.631  -2.861  -1.561  0.00  0.00    +0.005 C 
ENDBRANCH  31  32
ENDBRANCH  18  31
ENDBRANCH   1  18
TORSDOF 11
