REMARK  Name = ZINC64188189
REMARK  4 active torsions:
REMARK  status: ('A' for Active; 'I' for Inactive)
REMARK    1  A    between atoms: C_4  and  C_7
REMARK    2  A    between atoms: C_7  and  C_9
REMARK    3  A    between atoms: C_7  and  N_19
REMARK    4  A    between atoms: C_20  and  C_22
REMARK                            x       y       z     vdW  Elec       q    Type
REMARK                         _______ _______ _______ _____ _____    ______ ____
ROOT
ATOM      1  C   UNL     1       3.711  -0.707  -0.038  0.00  0.00    +0.134 C 
ENDROOT
BRANCH   1   2
ATOM      2  C   UNL     1       4.044  -1.175   1.356  0.00  0.00    -0.021 A 
ATOM      3  C   UNL     1       3.449  -2.325   1.855  0.00  0.00    +0.008 A 
ATOM      4  C   UNL     1       3.742  -2.768   3.127  0.00  0.00    +0.028 A 
ATOM      5  C   UNL     1       4.638  -2.056   3.913  0.00  0.00    +0.066 A 
ATOM      6  C   UNL     1       5.240  -0.892   3.408  0.00  0.00    +0.089 A 
ATOM      7  C   UNL     1       4.932  -0.465   2.113  0.00  0.00    +0.035 A 
ATOM      8  N   UNL     1       6.057  -0.414   4.382  0.00  0.00    -0.236 NA
ATOM      9  C   UNL     1       5.995  -1.190   5.424  0.00  0.00    +0.197 A 
ATOM     10  N   UNL     1       5.136  -2.219   5.191  0.00  0.00    -0.344 N 
ATOM     11  H   UNL     1       4.914  -2.934   5.808  0.00  0.00    +0.167 HD
ENDBRANCH   1   2
BRANCH   1  15
ATOM     12  C   UNL     1      -0.017   1.378   0.010  0.00  0.00    +0.000 A 
ATOM     13  C   UNL     1       1.171   2.086   0.002  0.00  0.00    +0.000 A 
ATOM     14  C   UNL     1       2.377   1.411  -0.013  0.00  0.00    +0.006 A 
ATOM     15  C   UNL     1       2.396   0.029  -0.020  0.00  0.00    -0.023 A 
ATOM     16  C   UNL     1       1.208  -0.679  -0.012  0.00  0.00    +0.006 A 
ATOM     17  C   UNL     1       0.002  -0.004   0.002  0.00  0.00    +0.000 A 
ENDBRANCH   1  15
BRANCH   1  18
ATOM     18  N   UNL     1       3.611  -1.865  -0.930  0.00  0.00    -0.301 N 
ATOM     19  C   UNL     1       3.825  -1.716  -2.253  0.00  0.00    +0.239 C 
ATOM     20  O   UNL     1       4.100  -0.620  -2.706  0.00  0.00    -0.271 OA
ATOM     21  H   UNL     1       3.392  -2.738  -0.569  0.00  0.00    +0.150 HD
BRANCH  19  22
ATOM     22  C   UNL     1       3.728  -2.833  -3.114  0.00  0.00    +0.087 C 
ATOM     23  C   UNL     1       3.942  -2.684  -4.438  0.00  0.00    +0.028 C 
ATOM     24  N   UNL     1       4.265  -1.512  -5.085  0.00  0.00    -0.319 N 
ATOM     25  C   UNL     1       3.789  -1.674  -6.459  0.00  0.00    +0.223 C 
ATOM     26  N   UNL     1       4.086  -3.103  -6.783  0.00  0.00    -0.303 N 
ATOM     27  C   UNL     1       3.876  -3.777  -5.485  0.00  0.00    +0.157 C 
ATOM     28  C   UNL     1       4.528  -3.281  -8.082  0.00  0.00    +0.080 C 
ATOM     29  C   UNL     1       5.031  -2.274  -8.791  0.00  0.00    +0.059 C 
ATOM     30  S   UNL     1       4.917  -0.861  -7.660  0.00  0.00    -0.090 S 
ATOM     31  H   UNL     1       4.714  -0.739  -4.708  0.00  0.00    +0.148 HD
ENDBRANCH  19  22
ENDBRANCH   1  18
TORSDOF 4
