REMARK  Name = ZINC16038960
REMARK  11 active torsions:
REMARK  status: ('A' for Active; 'I' for Inactive)
REMARK    1  A    between atoms: C_1  and  C_2
REMARK    2  A    between atoms: C_2  and  C_3
REMARK    3  A    between atoms: C_2  and  C_4
REMARK    4  A    between atoms: C_4  and  C_5
REMARK    5  A    between atoms: C_8  and  C_11
REMARK    6  A    between atoms: C_11  and  C_13
REMARK    7  A    between atoms: C_15  and  C_37
REMARK    8  A    between atoms: C_37  and  C_39
REMARK    9  A    between atoms: C_39  and  C_40
REMARK   10  A    between atoms: C_39  and  C_41
REMARK   11  A    between atoms: C_39  and  C_42
REMARK                            x       y       z     vdW  Elec       q    Type
REMARK                         _______ _______ _______ _____ _____    ______ ____
ROOT
ATOM      1  C   UNL     1       4.098   0.620   1.053  0.00  0.00    +0.108 C 
ATOM      2  C   UNL     1       3.771   2.083   0.636  0.00  0.00    +0.136 C 
ATOM      3  C   UNL     1       1.367   2.949   0.490  0.00  0.00    +0.054 C 
ATOM      4  C   UNL     1       0.103   2.504   0.607  0.00  0.00    +0.022 C 
ATOM      5  C   UNL     1      -0.180   1.062   0.469  0.00  0.00    -0.019 A 
ATOM      6  C   UNL     1      -1.422   0.571   0.881  0.00  0.00    +0.008 A 
ATOM      7  C   UNL     1      -1.719  -0.766   0.728  0.00  0.00    +0.001 A 
ATOM      8  C   UNL     1      -0.794  -1.615   0.149  0.00  0.00    +0.000 A 
ATOM      9  C   UNL     1       0.439  -1.134  -0.255  0.00  0.00    +0.006 A 
ATOM     10  C   UNL     1       0.779   0.187  -0.058  0.00  0.00    -0.020 A 
ATOM     11  C   UNL     1       2.139   0.707  -0.407  0.00  0.00    +0.107 C 
ATOM     12  C   UNL     1       3.307  -0.184  -0.002  0.00  0.00    +0.107 C 
ATOM     13  C   UNL     1       2.952  -1.548   0.464  0.00  0.00    -0.008 A 
ATOM     14  C   UNL     1       2.131  -2.022   1.468  0.00  0.00    +0.006 A 
ATOM     15  C   UNL     1       2.051  -3.398   1.645  0.00  0.00    +0.000 A 
ATOM     16  C   UNL     1       2.745  -4.273   0.835  0.00  0.00    +0.002 A 
ATOM     17  C   UNL     1       3.554  -3.817  -0.193  0.00  0.00    +0.023 A 
ATOM     18  C   UNL     1       3.651  -2.438  -0.372  0.00  0.00    +0.038 A 
ATOM     19  N   UNL     1       4.374  -1.740  -1.325  0.00  0.00    -0.284 N 
ATOM     20  C   UNL     1       4.213  -0.409  -1.201  0.00  0.00    +0.231 C 
ATOM     21  O   UNL     1       4.693   0.457  -1.900  0.00  0.00    -0.274 OA
ATOM     22  H   UNL     1       4.928  -2.164  -2.000  0.00  0.00    +0.155 HD
ATOM     23  N   UNL     1       2.320   1.764   0.553  0.00  0.00    -0.384 NA
ATOM     24  H   UNL     1       2.095   1.327   1.454  0.00  0.00    +0.127 HD
ENDROOT
BRANCH   1  25
ATOM     25  C   UNL     1       3.639   0.355   2.459  0.00  0.00    +0.170 C 
ATOM     26  O   UNL     1       2.670   0.935   2.900  0.00  0.00    -0.292 OA
BRANCH  25  30
ATOM     27  C   UNL     1       5.734  -2.422   4.886  0.00  0.00    -0.047 A 
ATOM     28  C   UNL     1       4.583  -1.822   5.364  0.00  0.00    +0.004 A 
ATOM     29  C   UNL     1       3.896  -0.918   4.582  0.00  0.00    +0.011 A 
ATOM     30  C   UNL     1       4.366  -0.608   3.301  0.00  0.00    +0.018 A 
ATOM     31  C   UNL     1       5.527  -1.224   2.823  0.00  0.00    +0.011 A 
ATOM     32  C   UNL     1       6.206  -2.121   3.620  0.00  0.00    +0.004 A 
BRANCH  27  33
ATOM     33  C   UNL     1       6.478  -3.409   5.748  0.00  0.00    +0.038 C 
BRANCH  33  35
ATOM     34  C   UNL     1       6.778  -5.834   6.271  0.00  0.00    +0.007 C 
ATOM     35  C   UNL     1       5.941  -4.818   5.490  0.00  0.00    -0.013 C 
ATOM     36  C   UNL     1       4.483  -4.900   5.948  0.00  0.00    +0.007 C 
ENDBRANCH  33  35
ENDBRANCH  27  33
ENDBRANCH  25  30
ENDBRANCH   1  25
BRANCH   2  37
ATOM     37  C   UNL     1       3.972   3.020   1.797  0.00  0.00    +0.158 C 
ATOM     38  O   UNL     1       3.030   3.354   2.474  0.00  0.00    -0.295 OA
BRANCH  37  39
ATOM     39  C   UNL     1       5.350   3.541   2.115  0.00  0.00    +0.022 C 
ATOM     40  C   UNL     1       5.259   4.568   3.246  0.00  0.00    +0.018 C 
ATOM     41  C   UNL     1       6.246   2.380   2.552  0.00  0.00    +0.018 C 
ATOM     42  C   UNL     1       5.945   4.204   0.871  0.00  0.00    +0.018 C 
ENDBRANCH  37  39
ENDBRANCH   2  37
TORSDOF 6
