REMARK  Name = ZINC16284264
REMARK  5 active torsions:
REMARK  status: ('A' for Active; 'I' for Inactive)
REMARK    1  A    between atoms: C_1  and  C_2
REMARK    2  A    between atoms: N_12  and  C_13
REMARK    3  A    between atoms: C_13  and  N_15
REMARK    4  A    between atoms: C_16  and  C_18
REMARK    5  A    between atoms: C_20  and  N_25
REMARK                            x       y       z     vdW  Elec       q    Type
REMARK                         _______ _______ _______ _____ _____    ______ ____
ROOT
ATOM      1  C   UNL     1      -0.021   1.708   0.011  0.00  0.00    +0.163 C 
ATOM      2  S   UNL     1       0.002  -0.004   0.002  0.00  0.00    -0.016 S 
ENDROOT
BRANCH   1  14
ATOM      3  C   UNL     1      -7.918  -1.528   0.032  0.00  0.00    +0.045 C 
ATOM      4  C   UNL     1      -6.486  -1.058   0.028  0.00  0.00    -0.031 A 
ATOM      5  C   UNL     1      -6.194   0.294   0.033  0.00  0.00    +0.022 A 
ATOM      6  C   UNL     1      -4.885   0.705   0.029  0.00  0.00    +0.039 A 
ATOM      7  C   UNL     1      -3.800  -0.202   0.019  0.00  0.00    +0.056 A 
ATOM      8  C   UNL     1      -4.135  -1.575   0.014  0.00  0.00    +0.047 A 
ATOM      9  C   UNL     1      -5.446  -1.977   0.018  0.00  0.00    +0.046 A 
ATOM     10 CL   UNL     1      -5.814  -3.674   0.011  0.00  0.00    -0.083 Cl
ATOM     11  N   UNL     1      -2.571   0.357   0.017  0.00  0.00    -0.335 N 
ATOM     12  C   UNL     1      -2.387   1.657   0.022  0.00  0.00    +0.163 A 
ATOM     13  S   UNL     1      -4.062   2.280   0.041  0.00  0.00    -0.052 S 
ATOM     14  N   UNL     1      -1.197   2.366   0.021  0.00  0.00    -0.169 NA
ATOM     15  H   UNL     1      -1.676  -0.282   0.009  0.00  0.00    +0.168 HD
ENDBRANCH   1  14
BRANCH   1  16
ATOM     16  N   UNL     1       1.137   2.397   0.004  0.00  0.00    -0.262 N 
ATOM     17  C   UNL     1       2.313   1.740  -0.011  0.00  0.00    +0.251 C 
ATOM     18  O   UNL     1       2.329   0.524  -0.017  0.00  0.00    -0.270 OA
ATOM     19  H   UNL     1       1.122   3.497   0.010  0.00  0.00    +0.157 HD
BRANCH  17  20
ATOM     20  C   UNL     1       3.582   2.495  -0.019  0.00  0.00    +0.053 A 
ATOM     21  C   UNL     1       3.567   3.892  -0.017  0.00  0.00    +0.047 A 
ATOM     22  C   UNL     1       4.755   4.591  -0.021  0.00  0.00    +0.127 A 
ATOM     23  C   UNL     1       5.962   3.913  -0.035  0.00  0.00    +0.034 A 
ATOM     24  C   UNL     1       5.985   2.530  -0.042  0.00  0.00    +0.018 A 
ATOM     25  C   UNL     1       4.803   1.817  -0.034  0.00  0.00    +0.030 A 
ATOM     26 BR   UNL     1       4.837  -0.074  -0.043  0.00  0.00    -0.050 Br
BRANCH  22  27
ATOM     27  N   UNL     1       4.740   6.072  -0.014  0.00  0.00    +0.056 N 
ATOM     28  O   UNL     1       5.789   6.691  -0.021  0.00  0.00    -0.126 OA
ATOM     29  O   UNL     1       3.680   6.670  -0.001  0.00  0.00    -0.126 OA
ENDBRANCH  22  27
ENDBRANCH  17  20
ENDBRANCH   1  16
TORSDOF 4
