REMARK  Name = ZINC27129894
REMARK  10 active torsions:
REMARK  status: ('A' for Active; 'I' for Inactive)
REMARK    1  A    between atoms: C_1  and  O_2
REMARK    2  A    between atoms: O_2  and  C_3
REMARK    3  A    between atoms: C_3  and  C_5
REMARK    4  A    between atoms: C_8  and  C_11
REMARK    5  A    between atoms: N_16  and  C_30
REMARK    6  A    between atoms: C_20  and  C_28
REMARK    7  A    between atoms: C_21  and  N_27
REMARK    8  A    between atoms: C_22  and  C_23
REMARK    9  A    between atoms: C_22  and  C_25
REMARK   10  A    between atoms: C_30  and  C_31
REMARK                            x       y       z     vdW  Elec       q    Type
REMARK                         _______ _______ _______ _____ _____    ______ ____
ROOT
ATOM      1  C   UNL     1       2.190   3.722   0.999  0.00  0.00    +0.067 C 
ATOM      2  C   UNL     1       1.129   3.331  -0.030  0.00  0.00    +0.044 C 
ATOM      3  C   UNL     1      -0.170   4.076   0.179  0.00  0.00    +0.094 C 
ATOM      4  N   UNL     1      -1.172   3.254   0.863  0.00  0.00    -0.294 NA
ATOM      5  C   UNL     1      -1.457   2.041   0.070  0.00  0.00    +0.112 C 
ATOM      6  C   UNL     1      -0.187   1.228   0.017  0.00  0.00    -0.006 C 
ATOM      7  C   UNL     1       0.984   1.836  -0.006  0.00  0.00    -0.026 C 
ATOM      8  C   UNL     1       2.235   1.038  -0.004  0.00  0.00    +0.074 C 
ATOM      9  C   UNL     1       3.411   1.652   0.285  0.00  0.00    +0.054 C 
ATOM     10  C   UNL     1       3.530   3.116   0.582  0.00  0.00    +0.188 C 
ENDROOT
BRANCH   1  14
ATOM     11  C   UNL     1       1.075   2.226   4.846  0.00  0.00    +0.059 A 
ATOM     12  C   UNL     1       0.693   3.511   4.456  0.00  0.00    +0.015 A 
ATOM     13  C   UNL     1       1.057   3.987   3.214  0.00  0.00    +0.005 A 
ATOM     14  C   UNL     1       1.797   3.195   2.355  0.00  0.00    -0.041 A 
ATOM     15  C   UNL     1       2.173   1.918   2.733  0.00  0.00    +0.005 A 
ATOM     16  C   UNL     1       1.822   1.431   3.975  0.00  0.00    +0.015 A 
BRANCH  11  17
ATOM     17  C   UNL     1       0.690   1.709   6.176  0.00  0.00    +0.339 C 
ATOM     18  O   UNL     1       0.040   2.403   6.932  0.00  0.00    -0.245 OA
BRANCH  17  20
ATOM     19  C   UNL     1       0.646   0.027   7.869  0.00  0.00    +0.280 C 
ATOM     20  O   UNL     1       1.059   0.469   6.549  0.00  0.00    -0.464 OA
ENDBRANCH  17  20
ENDBRANCH  11  17
ENDBRANCH   1  14
BRANCH   9  21
ATOM     21  N   UNL     1       4.548   0.893   0.305  0.00  0.00    -0.358 N 
ATOM     22  H   UNL     1       5.517   1.361   0.536  0.00  0.00    +0.142 HD
ATOM     23  H   UNL     1       4.495  -0.184   0.091  0.00  0.00    +0.142 HD
ENDBRANCH   9  21
BRANCH  10  24
ATOM     24  C   UNL     1       4.502   3.306   1.672  0.00  0.00    +0.091 C 
ATOM     25  N   UNL     1       5.252   3.452   2.513  0.00  0.00    -0.194 NA
ENDBRANCH  10  24
BRANCH  10  26
ATOM     26  C   UNL     1       4.017   3.811  -0.620  0.00  0.00    +0.091 C 
ATOM     27  N   UNL     1       4.392   4.348  -1.548  0.00  0.00    -0.194 NA
ENDBRANCH  10  26
BRANCH   8  28
ATOM     28  C   UNL     1       2.203  -0.362  -0.304  0.00  0.00    +0.101 C 
ATOM     29  N   UNL     1       2.177  -1.473  -0.541  0.00  0.00    -0.191 NA
ENDBRANCH   8  28
BRANCH   4  30
ATOM     30  C   UNL     1      -2.401   4.021   1.111  0.00  0.00    +0.120 C 
BRANCH  30  31
ATOM     31  C   UNL     1      -3.308   3.235   2.022  0.00  0.00    -0.033 A 
ATOM     32  C   UNL     1      -4.240   2.366   1.487  0.00  0.00    +0.005 A 
ATOM     33  C   UNL     1      -5.070   1.642   2.322  0.00  0.00    +0.000 A 
ATOM     34  C   UNL     1      -4.973   1.793   3.693  0.00  0.00    +0.000 A 
ATOM     35  C   UNL     1      -4.044   2.666   4.228  0.00  0.00    +0.000 A 
ATOM     36  C   UNL     1      -3.212   3.387   3.392  0.00  0.00    +0.005 A 
ENDBRANCH  30  31
ENDBRANCH   4  30
TORSDOF 9
