REMARK  Name = ZINC65190097
REMARK  7 active torsions:
REMARK  status: ('A' for Active; 'I' for Inactive)
REMARK    1  A    between atoms: C_1  and  C_2
REMARK    2  A    between atoms: C_2  and  N_3
REMARK    3  A    between atoms: N_6  and  N_7
REMARK    4  A    between atoms: C_8  and  C_10
REMARK    5  A    between atoms: C_10  and  C_11
REMARK    6  A    between atoms: C_12  and  C_22
REMARK    7  A    between atoms: C_14  and  C_16
REMARK                            x       y       z     vdW  Elec       q    Type
REMARK                         _______ _______ _______ _____ _____    ______ ____
ROOT
ATOM      1  C   UNL     1       3.801  -1.492  -6.697  0.00  0.00    +0.027 A 
ATOM      2  C   UNL     1       3.262  -1.926  -7.883  0.00  0.00    +0.089 A 
ATOM      3  N   UNL     1       4.030  -2.561  -8.749  0.00  0.00    -0.238 NA
ATOM      4  C   UNL     1       5.309  -2.788  -8.496  0.00  0.00    +0.109 A 
ATOM      5  S   UNL     1       5.494  -2.038  -6.885  0.00  0.00    -0.071 S 
ENDROOT
BRANCH   4   6
ATOM      6  C   UNL     1       6.319  -3.474  -9.330  0.00  0.00    +0.007 A 
ATOM      7  C   UNL     1       7.630  -3.614  -8.870  0.00  0.00    +0.010 A 
ATOM      8  C   UNL     1       8.567  -4.255  -9.653  0.00  0.00    +0.001 A 
ATOM      9  C   UNL     1       8.212  -4.758 -10.892  0.00  0.00    +0.000 A 
ATOM     10  C   UNL     1       6.915  -4.622 -11.354  0.00  0.00    +0.001 A 
ATOM     11  C   UNL     1       5.965  -3.989 -10.578  0.00  0.00    +0.010 A 
ENDBRANCH   4   6
BRANCH   2  12
ATOM     12  C   UNL     1       1.834  -1.684  -8.186  0.00  0.00    +0.038 A 
ATOM     13  C   UNL     1       1.242  -1.420  -9.391  0.00  0.00    +0.018 A 
ATOM     14  C   UNL     1      -0.123  -1.227  -9.430  0.00  0.00    +0.008 A 
ATOM     15  C   UNL     1      -0.835  -1.306  -8.278  0.00  0.00    +0.046 A 
ATOM     16  S   UNL     1       0.435  -1.670  -7.077  0.00  0.00    -0.095 S 
ENDBRANCH   2  12
BRANCH   1  17
ATOM     17  C   UNL     1       3.150  -0.753  -5.557  0.00  0.00    +0.142 C 
BRANCH  17  19
ATOM     18  N   UNL     1       1.969  -1.311  -3.456  0.00  0.00    -0.233 N 
ATOM     19  C   UNL     1       2.600  -1.745  -4.565  0.00  0.00    +0.234 C 
ATOM     20  O   UNL     1       2.725  -2.935  -4.764  0.00  0.00    -0.274 OA
ATOM     21  H   UNL     1       1.869  -0.359  -3.296  0.00  0.00    +0.173 HD
BRANCH  18  25
ATOM     22  N   UNL     1       0.688  -0.476  -1.203  0.00  0.00    -0.298 N 
ATOM     23  C   UNL     1       0.827  -1.799  -1.425  0.00  0.00    +0.316 C 
ATOM     24  O   UNL     1       0.383  -2.599  -0.625  0.00  0.00    -0.251 OA
ATOM     25  N   UNL     1       1.458  -2.233  -2.534  0.00  0.00    -0.218 N 
ATOM     26  H   UNL     1       1.042   0.162  -1.842  0.00  0.00    +0.150 HD
ATOM     27  H   UNL     1       1.558  -3.185  -2.693  0.00  0.00    +0.174 HD
BRANCH  22  29
ATOM     28  C   UNL     1      -0.019   1.526   0.010  0.00  0.00    +0.024 C 
ATOM     29  C   UNL     1       0.002  -0.004   0.002  0.00  0.00    +0.102 C 
ENDBRANCH  22  29
ENDBRANCH  18  25
ENDBRANCH  17  19
ENDBRANCH   1  17
TORSDOF 6
