REMARK  Name = ZINC37230466
REMARK  4 active torsions:
REMARK  status: ('A' for Active; 'I' for Inactive)
REMARK    1  A    between atoms: C_1  and  C_2
REMARK    2  A    between atoms: N_6  and  N_7
REMARK    3  A    between atoms: C_18  and  C_26
REMARK    4  A    between atoms: N_24  and  N_25
REMARK                            x       y       z     vdW  Elec       q    Type
REMARK                         _______ _______ _______ _____ _____    ______ ____
ROOT
ATOM      1  C   UNL     1      -0.019   1.529   0.010  0.00  0.00    +0.016 C 
ATOM      2  C   UNL     1       0.002  -0.004   0.002  0.00  0.00    -0.007 C 
ATOM      3  C   UNL     1       0.721  -0.409  -1.276  0.00  0.00    +0.017 C 
ATOM      4  C   UNL     1       2.214  -0.092  -1.212  0.00  0.00    +0.058 C 
ATOM      5  C   UNL     1       2.799  -0.793  -0.006  0.00  0.00    +0.059 C 
ATOM      6  N   UNL     1       3.966  -1.370  -0.064  0.00  0.00    -0.194 NA
ATOM      7  C   UNL     1       2.009  -0.802   1.232  0.00  0.00    +0.024 C 
ATOM      8  C   UNL     1       0.736  -0.416   1.234  0.00  0.00    -0.062 C 
ATOM      9  C   UNL     1       0.009  -0.379   2.564  0.00  0.00    +0.031 C 
ATOM     10  C   UNL     1      -1.299  -1.141   2.418  0.00  0.00    +0.008 C 
ATOM     11  C   UNL     1      -2.161  -0.605   1.287  0.00  0.00    -0.003 C 
ATOM     12  C   UNL     1      -1.444  -0.427  -0.030  0.00  0.00    +0.002 C 
ATOM     13  C   UNL     1      -1.716  -1.580  -0.987  0.00  0.00    +0.005 C 
ATOM     14  C   UNL     1      -3.191  -1.583  -1.418  0.00  0.00    +0.013 C 
ATOM     15  C   UNL     1      -4.066  -1.247  -0.232  0.00  0.00    +0.011 C 
ATOM     16  C   UNL     1      -3.316  -1.578   1.076  0.00  0.00    +0.004 C 
ATOM     17  C   UNL     1      -4.440  -1.458   2.118  0.00  0.00    +0.010 C 
ATOM     18  C   UNL     1      -5.668  -2.052   1.379  0.00  0.00    +0.053 C 
ATOM     19  C   UNL     1      -5.311  -2.099  -0.101  0.00  0.00    +0.042 C 
ATOM     20  N   UNL     1      -5.923  -2.718  -1.033  0.00  0.00    -0.198 NA
ATOM     21  C   UNL     1      -4.499   0.218  -0.281  0.00  0.00    +0.018 C 
ENDROOT
BRANCH   6  22
ATOM     22  N   UNL     1       4.487  -2.013   1.066  0.00  0.00    -0.282 N 
ATOM     23  H   UNL     1       5.355  -2.442   1.023  0.00  0.00    +0.164 HD
ATOM     24  H   UNL     1       3.979  -2.028   1.893  0.00  0.00    +0.164 HD
ENDBRANCH   6  22
BRANCH  20  25
ATOM     25  N   UNL     1      -7.069  -3.468  -0.740  0.00  0.00    -0.283 N 
ATOM     26  H   UNL     1      -7.397  -3.517   0.171  0.00  0.00    +0.164 HD
ATOM     27  H   UNL     1      -7.535  -3.939  -1.449  0.00  0.00    +0.164 HD
ENDBRANCH  20  25
TORSDOF 2
