REMARK  Name = ZINC06076555
REMARK  10 active torsions:
REMARK  status: ('A' for Active; 'I' for Inactive)
REMARK    1  A    between atoms: C_1  and  O_2
REMARK    2  A    between atoms: O_2  and  C_3
REMARK    3  A    between atoms: C_3  and  C_5
REMARK    4  A    between atoms: C_5  and  N_50
REMARK    5  A    between atoms: C_6  and  C_8
REMARK    6  A    between atoms: C_6  and  C_14
REMARK    7  A    between atoms: C_6  and  N_50
REMARK    8  A    between atoms: C_19  and  N_20
REMARK    9  A    between atoms: N_20  and  S_21
REMARK   10  A    between atoms: S_21  and  C_24
REMARK                            x       y       z     vdW  Elec       q    Type
REMARK                         _______ _______ _______ _____ _____    ______ ____
ROOT
ATOM      1  C   UNL     1      -2.444  -2.335  -0.753  0.00  0.00    -0.034 A 
ATOM      2  C   UNL     1      -3.420  -1.369  -0.906  0.00  0.00    +0.019 A 
ATOM      3  C   UNL     1      -4.630  -1.694  -1.492  0.00  0.00    +0.018 A 
ATOM      4  C   UNL     1      -4.867  -2.987  -1.926  0.00  0.00    +0.017 A 
ATOM      5  C   UNL     1      -3.895  -3.956  -1.776  0.00  0.00    +0.026 A 
ATOM      6  C   UNL     1      -2.676  -3.631  -1.194  0.00  0.00    +0.050 A 
ATOM      7 BR   UNL     1      -5.964  -0.370  -1.700  0.00  0.00    -0.050 Br
ENDROOT
BRANCH   6   8
ATOM      8  N   UNL     1      -1.689  -4.609  -1.046  0.00  0.00    -0.216 N 
ATOM      9  H   UNL     1      -1.112  -4.601  -0.266  0.00  0.00    +0.174 HD
BRANCH   8  10
ATOM     10  S   UNL     1      -1.502  -5.779  -2.203  0.00  0.00    +0.072 S 
ATOM     11  O   UNL     1      -0.351  -6.529  -1.840  0.00  0.00    -0.150 OA
ATOM     12  O   UNL     1      -2.778  -6.380  -2.382  0.00  0.00    -0.150 OA
BRANCH  10  13
ATOM     13  C   UNL     1      -1.114  -4.960  -3.714  0.00  0.00    +0.108 A 
ATOM     14  C   UNL     1      -2.128  -4.573  -4.570  0.00  0.00    +0.029 A 
ATOM     15  C   UNL     1      -1.824  -3.926  -5.753  0.00  0.00    +0.002 A 
ATOM     16  C   UNL     1      -0.505  -3.677  -6.086  0.00  0.00    +0.000 A 
ATOM     17  C   UNL     1       0.509  -4.069  -5.232  0.00  0.00    +0.002 A 
ATOM     18  C   UNL     1       0.204  -4.711  -4.046  0.00  0.00    +0.029 A 
ENDBRANCH  10  13
ENDBRANCH   8  10
ENDBRANCH   6   8
BRANCH   1  19
ATOM     19  C   UNL     1      -1.125  -1.980  -0.115  0.00  0.00    -0.007 C 
BRANCH  19  20
ATOM     20  C   UNL     1      -1.130  -2.422   1.326  0.00  0.00    -0.057 A 
ATOM     21  C   UNL     1      -1.757  -1.648   2.284  0.00  0.00    +0.002 A 
ATOM     22  C   UNL     1      -1.765  -2.055   3.605  0.00  0.00    +0.000 A 
ATOM     23  C   UNL     1      -1.138  -3.232   3.969  0.00  0.00    +0.000 A 
ATOM     24  C   UNL     1      -0.507  -4.004   3.012  0.00  0.00    +0.000 A 
ATOM     25  C   UNL     1      -0.503  -3.599   1.690  0.00  0.00    +0.002 A 
ENDBRANCH  19  20
BRANCH  19  26
ATOM     26  N   UNL     1      -0.933  -0.519  -0.181  0.00  0.00    +0.393 N 
ATOM     27  H   UNL     1      -1.336  -0.164  -1.056  0.00  0.00    -0.084 HD
ATOM     28  H   UNL     1      -1.405  -0.079   0.617  0.00  0.00    -0.084 HD
BRANCH  26  29
ATOM     29  C   UNL     1       0.504  -0.190  -0.138  0.00  0.00    +0.041 C 
BRANCH  29  30
ATOM     30  C   UNL     1       0.670   1.306  -0.208  0.00  0.00    +0.290 C 
ATOM     31  O   UNL     1      -0.302   2.019  -0.289  0.00  0.00    -0.253 OA
BRANCH  30  33
ATOM     32  C   UNL     1       1.982   3.295  -0.255  0.00  0.00    +0.280 C 
ATOM     33  O   UNL     1       1.898   1.847  -0.184  0.00  0.00    -0.469 OA
ENDBRANCH  30  33
ENDBRANCH  29  30
ENDBRANCH  26  29
ENDBRANCH  19  26
ENDBRANCH   1  19
TORSDOF 9
