REMARK  Name = ZINC11839410
REMARK  11 active torsions:
REMARK  status: ('A' for Active; 'I' for Inactive)
REMARK    1  A    between atoms: C_1  and  O_2
REMARK    2  A    between atoms: O_2  and  C_3
REMARK    3  A    between atoms: C_3  and  C_5
REMARK    4  A    between atoms: C_6  and  C_35
REMARK    5  A    between atoms: N_7  and  C_10
REMARK    6  A    between atoms: C_13  and  C_21
REMARK    7  A    between atoms: C_16  and  N_67
REMARK    8  A    between atoms: N_23  and  C_24
REMARK    9  A    between atoms: C_24  and  C_25
REMARK   10  A    between atoms: C_35  and  O_37
REMARK   11  A    between atoms: O_37  and  C_38
REMARK                            x       y       z     vdW  Elec       q    Type
REMARK                         _______ _______ _______ _____ _____    ______ ____
ROOT
ATOM      1  C   UNL     1       2.471  -5.596   4.746  0.00  0.00    +0.092 C 
ATOM      2  C   UNL     1       2.019  -4.237   4.173  0.00  0.00    +0.019 C 
ATOM      3  C   UNL     1       0.732  -4.546   3.377  0.00  0.00    +0.022 C 
ATOM      4  C   UNL     1       1.420  -6.611   4.249  0.00  0.00    -0.050 C 
ATOM      5  N   UNL     1       0.861  -5.973   3.060  0.00  0.00    +0.391 N 
ATOM      6  H   UNL     1       1.495  -6.099   2.262  0.00  0.00    -0.080 HD
ENDROOT
BRANCH   1   9
ATOM      7  C   UNL     1       5.926  -6.460   4.086  0.00  0.00    +0.203 A 
ATOM      8  C   UNL     1       4.914  -6.158   4.994  0.00  0.00    +0.180 A 
ATOM      9  N   UNL     1       3.800  -5.945   4.237  0.00  0.00    -0.236 N 
ATOM     10  N   UNL     1       4.113  -6.109   3.001  0.00  0.00    -0.064 NA
ATOM     11  N   UNL     1       5.356  -6.407   2.871  0.00  0.00    -0.122 NA
BRANCH   7  12
ATOM     12  C   UNL     1       7.337  -6.774   4.396  0.00  0.00    +0.362 C 
ATOM     13  O   UNL     1       7.718  -6.786   5.549  0.00  0.00    -0.243 OA
BRANCH  12  15
ATOM     14  C   UNL     1       9.571  -7.346   3.777  0.00  0.00    +0.280 C 
ATOM     15  O   UNL     1       8.201  -7.046   3.399  0.00  0.00    -0.463 OA
ENDBRANCH  12  15
ENDBRANCH   7  12
BRANCH   8  16
ATOM     16  C   UNL     1       5.023  -6.083   6.463  0.00  0.00    +0.360 C 
ATOM     17  O   UNL     1       6.089  -6.299   7.004  0.00  0.00    -0.243 OA
BRANCH  16  18
ATOM     18  O   UNL     1       3.941  -5.775   7.205  0.00  0.00    -0.463 OA
ATOM     19  C   UNL     1       4.123  -5.720   8.645  0.00  0.00    +0.280 C 
ENDBRANCH  16  18
ENDBRANCH   8  16
ENDBRANCH   1   9
BRANCH   5  20
ATOM     20  C   UNL     1      -0.476  -6.556   2.722  0.00  0.00    -0.067 C 
ATOM     21  C   UNL     1      -1.432  -6.354   3.915  0.00  0.00    -0.015 C 
ATOM     22  C   UNL     1      -2.278  -7.652   3.948  0.00  0.00    -0.002 C 
ATOM     23  C   UNL     1      -1.244  -8.743   3.576  0.00  0.00    -0.002 C 
ATOM     24  C   UNL     1      -0.356  -8.075   2.506  0.00  0.00    -0.015 C 
ENDBRANCH   5  20
BRANCH   3  25
ATOM     25  C   UNL     1       0.673  -3.708   2.126  0.00  0.00    +0.200 C 
ATOM     26  O   UNL     1       0.656  -4.242   1.038  0.00  0.00    -0.278 OA
ATOM     27  N   UNL     1       0.639  -2.363   2.217  0.00  0.00    -0.311 N 
ATOM     28  H   UNL     1       0.653  -1.935   3.087  0.00  0.00    +0.149 HD
BRANCH  27  29
ATOM     29  C   UNL     1       0.582  -1.548   1.001  0.00  0.00    +0.159 C 
BRANCH  29  30
ATOM     30  C   UNL     1       0.554  -0.089   1.375  0.00  0.00    +0.059 A 
ATOM     31  C   UNL     1       1.749   0.627   1.405  0.00  0.00    +0.025 A 
ATOM     32  C   UNL     1       1.742   1.950   1.742  0.00  0.00    +0.012 A 
ATOM     33  C   UNL     1       0.507   2.551   2.051  0.00  0.00    +0.000 A 
ATOM     34  C   UNL     1       0.422   3.907   2.406  0.00  0.00    +0.010 A 
ATOM     35  C   UNL     1      -0.791   4.451   2.697  0.00  0.00    +0.001 A 
ATOM     36  C   UNL     1      -1.951   3.680   2.649  0.00  0.00    +0.002 A 
ATOM     37  C   UNL     1      -1.904   2.362   2.315  0.00  0.00    +0.028 A 
ATOM     38  C   UNL     1      -0.670   1.765   2.001  0.00  0.00    +0.071 A 
ATOM     39  N   UNL     1      -0.594   0.474   1.663  0.00  0.00    -0.250 NA
ENDBRANCH  29  30
ENDBRANCH  27  29
ENDBRANCH   3  25
TORSDOF 9
