REMARK  Name = ZINC05438846
REMARK  6 active torsions:
REMARK  status: ('A' for Active; 'I' for Inactive)
REMARK    1  A    between atoms: C_4  and  C_7
REMARK    2  A    between atoms: C_10  and  C_13
REMARK    3  A    between atoms: N_19  and  C_20
REMARK    4  A    between atoms: C_30  and  N_32
REMARK    5  A    between atoms: N_32  and  C_33
REMARK    6  A    between atoms: C_33  and  C_34
REMARK                            x       y       z     vdW  Elec       q    Type
REMARK                         _______ _______ _______ _____ _____    ______ ____
ROOT
ATOM      1  C   UNL     1       7.415  -2.757  -0.087  0.00  0.00    +0.076 A 
ATOM      2  C   UNL     1       7.450  -4.154  -0.105  0.00  0.00    +0.048 A 
ATOM      3  C   UNL     1       8.682  -4.783  -0.121  0.00  0.00    +0.116 A 
ATOM      4  N   UNL     1       9.784  -4.049  -0.118  0.00  0.00    -0.223 NA
ATOM      5  C   UNL     1       9.722  -2.725  -0.099  0.00  0.00    +0.216 A 
ATOM      6  N   UNL     1       8.564  -2.083  -0.090  0.00  0.00    -0.214 NA
ATOM      7  N   UNL     1      10.897  -1.995  -0.096  0.00  0.00    -0.306 N 
ATOM      8  H   UNL     1      10.866  -1.025  -0.083  0.00  0.00    +0.149 HD
ENDROOT
BRANCH   7   9
ATOM      9  C   UNL     1      12.189  -2.686  -0.113  0.00  0.00    +0.130 C 
ATOM     10  C   UNL     1      12.635  -2.959  -1.559  0.00  0.00    +0.185 C 
ATOM     11  O   UNL     1      13.638  -2.003  -1.903  0.00  0.00    -0.374 OA
ATOM     12  C   UNL     1      13.899  -1.116  -0.813  0.00  0.00    +0.137 C 
ATOM     13  C   UNL     1      13.295  -1.778   0.459  0.00  0.00    +0.168 C 
ATOM     14  O   UNL     1      14.359  -2.593   0.988  0.00  0.00    -0.374 OA
ATOM     15  C   UNL     1      15.552  -1.788   0.857  0.00  0.00    +0.147 C 
ATOM     16  C   UNL     1      15.422  -1.101  -0.542  0.00  0.00    -0.013 C 
BRANCH  16  17
ATOM     17  N   UNL     1      15.922   0.280  -0.494  0.00  0.00    +0.389 N 
ATOM     18  H   UNL     1      15.669   0.759  -1.345  0.00  0.00    -0.085 HD
ATOM     19  H   UNL     1      15.514   0.758   0.295  0.00  0.00    -0.085 HD
BRANCH  17  20
ATOM     20  C   UNL     1      17.384   0.266  -0.355  0.00  0.00    -0.006 C 
BRANCH  20  21
ATOM     21  C   UNL     1      17.897   1.682  -0.306  0.00  0.00    +0.088 A 
ATOM     22  C   UNL     1      18.067   2.419   0.806  0.00  0.00    +0.042 A 
ATOM     23  C   UNL     1      18.564   3.677   0.392  0.00  0.00    +0.041 A 
ATOM     24  C   UNL     1      18.667   3.633  -0.948  0.00  0.00    +0.195 A 
ATOM     25  O   UNL     1      18.268   2.421  -1.365  0.00  0.00    -0.470 OA
ENDBRANCH  20  21
ENDBRANCH  17  20
ENDBRANCH  16  17
ENDBRANCH   7   9
BRANCH   1  29
ATOM     26  C   UNL     1       3.698  -0.688  -0.038  0.00  0.00    -0.018 A 
ATOM     27  C   UNL     1       4.895   0.028  -0.041  0.00  0.00    +0.009 A 
ATOM     28  C   UNL     1       6.098  -0.641  -0.056  0.00  0.00    +0.010 A 
ATOM     29  C   UNL     1       6.120  -2.036  -0.069  0.00  0.00    +0.001 A 
ATOM     30  C   UNL     1       4.923  -2.752  -0.067  0.00  0.00    +0.010 A 
ATOM     31  C   UNL     1       3.720  -2.083  -0.046  0.00  0.00    +0.009 A 
BRANCH  26  35
ATOM     32  C   UNL     1      -0.017   1.379   0.010  0.00  0.00    +0.000 A 
ATOM     33  C   UNL     1       1.169   2.092   0.002  0.00  0.00    +0.001 A 
ATOM     34  C   UNL     1       2.377   1.427  -0.013  0.00  0.00    +0.008 A 
ATOM     35  C   UNL     1       2.402   0.033  -0.021  0.00  0.00    -0.018 A 
ATOM     36  C   UNL     1       1.205  -0.680  -0.013  0.00  0.00    +0.008 A 
ATOM     37  C   UNL     1       0.002  -0.004   0.002  0.00  0.00    +0.001 A 
ENDBRANCH  26  35
ENDBRANCH   1  29
TORSDOF 6
