REMARK  Name = ZINC39491767
REMARK  14 active torsions:
REMARK  status: ('A' for Active; 'I' for Inactive)
REMARK    1  A    between atoms: C_1  and  C_2
REMARK    2  A    between atoms: C_2  and  C_3
REMARK    3  A    between atoms: C_2  and  S_4
REMARK    4  A    between atoms: S_4  and  C_7
REMARK    5  A    between atoms: C_7  and  C_9
REMARK    6  A    between atoms: C_7  and  S_26
REMARK    7  A    between atoms: C_9  and  N_10
REMARK    8  A    between atoms: C_12  and  C_23
REMARK    9  A    between atoms: C_17  and  C_19
REMARK   10  A    between atoms: C_19  and  O_21
REMARK   11  A    between atoms: O_21  and  C_22
REMARK   12  A    between atoms: C_23  and  N_24
REMARK   13  A    between atoms: N_24  and  C_25
REMARK   14  A    between atoms: S_26  and  C_29
REMARK                            x       y       z     vdW  Elec       q    Type
REMARK                         _______ _______ _______ _____ _____    ______ ____
ROOT
ATOM      1  N   UNL     1      -3.707  -2.782   0.964  0.00  0.00    -0.343 N 
ATOM      2  C   UNL     1      -3.895  -3.676   1.983  0.00  0.00    +0.088 A 
ATOM      3  C   UNL     1      -4.698  -3.144   2.917  0.00  0.00    -0.039 A 
ATOM      4  C   UNL     1      -5.054  -1.798   2.457  0.00  0.00    +0.002 A 
ATOM      5  C   UNL     1      -4.396  -1.622   1.224  0.00  0.00    +0.049 A 
ATOM      6  C   UNL     1      -4.537  -0.421   0.532  0.00  0.00    +0.027 A 
ATOM      7  C   UNL     1      -5.305   0.581   1.047  0.00  0.00    +0.017 A 
ATOM      8  C   UNL     1      -5.962   0.420   2.275  0.00  0.00    +0.060 A 
ATOM      9  C   UNL     1      -5.841  -0.775   2.979  0.00  0.00    +0.025 A 
ENDROOT
BRANCH   8  10
ATOM     10  C   UNL     1      -6.788   1.515   2.819  0.00  0.00    +0.339 C 
ATOM     11  O   UNL     1      -7.357   1.376   3.883  0.00  0.00    -0.245 OA
BRANCH  10  12
ATOM     12  O   UNL     1      -6.911   2.669   2.135  0.00  0.00    -0.464 OA
ATOM     13  C   UNL     1      -7.727   3.686   2.720  0.00  0.00    +0.280 C 
ENDBRANCH  10  12
ENDBRANCH   8  10
BRANCH   1  14
ATOM     14  C   UNL     1      -2.888  -3.025  -0.226  0.00  0.00    +0.171 C 
BRANCH  14  15
ATOM     15  C   UNL     1      -1.482  -2.466   0.001  0.00  0.00    +0.295 C 
BRANCH  15  16
ATOM     16  S   UNL     1      -1.568  -0.661   0.165  0.00  0.00    -0.004 S 
ATOM     17  O   UNL     1      -2.223  -0.352   1.387  0.00  0.00    -0.172 OA
ATOM     18  O   UNL     1      -2.077  -0.123  -1.048  0.00  0.00    -0.172 OA
BRANCH  16  20
ATOM     19  C   UNL     1       0.285   1.332   0.442  0.00  0.00    +0.031 C 
ATOM     20  C   UNL     1       0.177  -0.189   0.314  0.00  0.00    +0.127 C 
ATOM     21  C   UNL     1       0.780  -0.849   1.556  0.00  0.00    +0.031 C 
ENDBRANCH  16  20
ENDBRANCH  15  16
BRANCH  15  22
ATOM     22  S   UNL     1      -0.425  -2.895  -1.411  0.00  0.00    +0.021 S 
ATOM     23  O   UNL     1      -1.043  -3.906  -2.195  0.00  0.00    -0.167 OA
ATOM     24  O   UNL     1       0.082  -1.715  -2.019  0.00  0.00    -0.167 OA
BRANCH  22  25
ATOM     25  C   UNL     1       0.985  -3.676  -0.700  0.00  0.00    +0.090 A 
ATOM     26  C   UNL     1       2.129  -2.942  -0.450  0.00  0.00    +0.027 A 
ATOM     27  C   UNL     1       3.236  -3.555   0.107  0.00  0.00    +0.002 A 
ATOM     28  C   UNL     1       3.197  -4.902   0.417  0.00  0.00    +0.000 A 
ATOM     29  C   UNL     1       2.052  -5.635   0.168  0.00  0.00    +0.002 A 
ATOM     30  C   UNL     1       0.945  -5.021  -0.386  0.00  0.00    +0.027 A 
ENDBRANCH  22  25
ENDBRANCH  15  22
ENDBRANCH  14  15
ENDBRANCH   1  14
BRANCH   3  31
ATOM     31  C   UNL     1      -5.149  -3.804   4.194  0.00  0.00    -0.045 C 
BRANCH  31  32
ATOM     32  N   UNL     1      -6.510  -4.330   4.020  0.00  0.00    +0.380 N 
ATOM     33  C   UNL     1      -6.950  -4.974   5.265  0.00  0.00    -0.100 C 
ATOM     34  H   UNL     1      -7.137  -3.572   3.793  0.00  0.00    -0.086 HD
ATOM     35  H   UNL     1      -6.516  -5.007   3.271  0.00  0.00    -0.086 HD
ENDBRANCH  31  32
ENDBRANCH   3  31
TORSDOF 10
