REMARK  Name = ZINC58949999
REMARK  7 active torsions:
REMARK  status: ('A' for Active; 'I' for Inactive)
REMARK    1  A    between atoms: C_1  and  C_2
REMARK    2  A    between atoms: C_2  and  C_30
REMARK    3  A    between atoms: C_6  and  C_15
REMARK    4  A    between atoms: C_8  and  C_12
REMARK    5  A    between atoms: C_9  and  N_11
REMARK    6  A    between atoms: C_24  and  O_25
REMARK    7  A    between atoms: O_25  and  C_26
REMARK                            x       y       z     vdW  Elec       q    Type
REMARK                         _______ _______ _______ _____ _____    ______ ____
ROOT
ATOM      1  C   UNL     1       0.474   1.422   0.317  0.00  0.00    +0.012 C 
ATOM      2  C   UNL     1       0.352  -0.103   0.280  0.00  0.00    -0.021 C 
ATOM      3  C   UNL     1      -1.118  -0.497   0.117  0.00  0.00    +0.081 C 
ATOM      4  C   UNL     1      -1.244  -2.002   0.123  0.00  0.00    +0.115 C 
ATOM      5  C   UNL     1      -0.388  -2.761   0.831  0.00  0.00    +0.045 C 
ATOM      6  C   UNL     1      -0.521  -4.264   0.840  0.00  0.00    +0.100 C 
ATOM      7  C   UNL     1      -1.359  -4.720  -0.321  0.00  0.00    +0.083 C 
ATOM      8  C   UNL     1      -2.165  -3.845  -0.974  0.00  0.00    +0.193 C 
ATOM      9  O   UNL     1      -2.237  -2.557  -0.599  0.00  0.00    -0.446 OA
ATOM     10  C   UNL     1       0.656  -2.182   1.579  0.00  0.00    +0.164 C 
ATOM     11  O   UNL     1       1.398  -2.899   2.221  0.00  0.00    -0.292 OA
ATOM     12  C   UNL     1       0.869  -0.693   1.596  0.00  0.00    +0.086 C 
ATOM     13  C   UNL     1       1.170  -0.656  -0.889  0.00  0.00    +0.012 C 
ENDROOT
BRANCH   6  14
ATOM     14  C   UNL     1      -1.177  -4.699   2.125  0.00  0.00    +0.014 A 
ATOM     15  C   UNL     1      -0.520  -5.596   2.984  0.00  0.00    -0.010 A 
ATOM     16  C   UNL     1       0.751  -6.107   2.672  0.00  0.00    +0.009 A 
ATOM     17  C   UNL     1       1.358  -6.974   3.528  0.00  0.00    +0.001 A 
ATOM     18  C   UNL     1       0.737  -7.365   4.712  0.00  0.00    +0.001 A 
ATOM     19  C   UNL     1      -0.494  -6.892   5.048  0.00  0.00    +0.008 A 
ATOM     20  C   UNL     1      -1.152  -5.994   4.189  0.00  0.00    -0.017 A 
ATOM     21  C   UNL     1      -2.424  -5.484   4.504  0.00  0.00    +0.012 A 
ATOM     22  C   UNL     1      -3.033  -4.617   3.651  0.00  0.00    +0.046 A 
ATOM     23  C   UNL     1      -2.409  -4.220   2.464  0.00  0.00    +0.125 A 
BRANCH  23  24
ATOM     24  O   UNL     1      -3.041  -3.347   1.635  0.00  0.00    -0.495 OA
ATOM     25  C   UNL     1      -4.328  -2.880   2.043  0.00  0.00    +0.277 C 
ENDBRANCH  23  24
ENDBRANCH   6  14
BRANCH   7  26
ATOM     26  C   UNL     1      -1.307  -6.063  -0.736  0.00  0.00    +0.243 C 
ATOM     27  O   UNL     1      -0.374  -6.455  -1.416  0.00  0.00    -0.271 OA
ATOM     28  N   UNL     1      -2.287  -6.916  -0.381  0.00  0.00    -0.325 N 
ATOM     29  H   UNL     1      -3.029  -6.604   0.161  0.00  0.00    +0.145 HD
ATOM     30  H   UNL     1      -2.251  -7.843  -0.666  0.00  0.00    +0.145 HD
ENDBRANCH   7  26
BRANCH   8  31
ATOM     31  N   UNL     1      -2.918  -4.281  -2.031  0.00  0.00    -0.329 N 
ATOM     32  H   UNL     1      -2.930  -5.224  -2.262  0.00  0.00    +0.145 HD
ATOM     33  H   UNL     1      -3.439  -3.648  -2.550  0.00  0.00    +0.145 HD
ENDBRANCH   8  31
TORSDOF 4
