REMARK  Name = ZINC63374660
REMARK  11 active torsions:
REMARK  status: ('A' for Active; 'I' for Inactive)
REMARK    1  A    between atoms: C_1  and  C_2
REMARK    2  A    between atoms: C_2  and  C_3
REMARK    3  A    between atoms: C_2  and  C_4
REMARK    4  A    between atoms: C_4  and  C_5
REMARK    5  A    between atoms: C_5  and  C_7
REMARK    6  A    between atoms: C_5  and  N_19
REMARK    7  A    between atoms: N_9  and  C_10
REMARK    8  A    between atoms: C_10  and  C_11
REMARK    9  A    between atoms: C_14  and  O_17
REMARK   10  A    between atoms: O_17  and  C_18
REMARK   11  A    between atoms: C_22  and  C_38
REMARK                            x       y       z     vdW  Elec       q    Type
REMARK                         _______ _______ _______ _____ _____    ______ ____
ROOT
ATOM      1  N   UNL     1      -2.173   1.101  -1.559  0.00  0.00    -0.212 N 
ATOM      2  C   UNL     1      -1.534   1.803  -2.517  0.00  0.00    +0.249 C 
ATOM      3  O   UNL     1      -0.757   1.374  -3.343  0.00  0.00    -0.273 OA
ATOM      4  C   UNL     1      -1.988   3.236  -2.348  0.00  0.00    +0.136 C 
ATOM      5  C   UNL     1      -0.790   4.133  -2.014  0.00  0.00    +0.139 C 
ATOM      6  C   UNL     1      -1.356   5.376  -1.337  0.00  0.00    -0.034 C 
ATOM      7  C   UNL     1      -0.948   6.413  -2.062  0.00  0.00    -0.001 A 
ATOM      8  C   UNL     1      -1.125   7.863  -1.877  0.00  0.00    +0.010 A 
ATOM      9  C   UNL     1      -0.575   8.659  -2.832  0.00  0.00    +0.001 A 
ATOM     10  C   UNL     1       0.123   8.165  -3.938  0.00  0.00    +0.002 A 
ATOM     11  C   UNL     1       0.337   6.847  -4.184  0.00  0.00    +0.026 A 
ATOM     12  C   UNL     1      -0.190   5.911  -3.247  0.00  0.00    +0.043 A 
ATOM     13  N   UNL     1      -0.118   4.601  -3.228  0.00  0.00    -0.375 N 
ATOM     14  C   UNL     1      -2.253   5.323  -0.125  0.00  0.00    +0.052 C 
ATOM     15  C   UNL     1      -3.402   4.348  -0.452  0.00  0.00    +0.115 C 
ATOM     16  N   UNL     1      -2.834   3.182  -1.135  0.00  0.00    -0.269 N 
ATOM     17  C   UNL     1      -2.939   1.891  -0.794  0.00  0.00    +0.313 C 
ATOM     18  O   UNL     1      -3.644   1.482   0.107  0.00  0.00    -0.252 OA
ATOM     19  C   UNL     1      -2.765   3.737  -3.567  0.00  0.00    +0.044 C 
ATOM     20  H   UNL     1       0.302   4.037  -3.897  0.00  0.00    +0.160 HD
ENDROOT
BRANCH   1  21
ATOM     21  C   UNL     1      -2.050  -0.348  -1.381  0.00  0.00    +0.171 C 
BRANCH  21  22
ATOM     22  C   UNL     1      -3.381  -1.002  -1.651  0.00  0.00    +0.234 C 
ATOM     23  O   UNL     1      -4.338  -0.325  -1.962  0.00  0.00    -0.274 OA
ATOM     24  N   UNL     1      -3.508  -2.340  -1.547  0.00  0.00    -0.310 N 
ATOM     25  H   UNL     1      -2.743  -2.882  -1.298  0.00  0.00    +0.149 HD
BRANCH  24  26
ATOM     26  C   UNL     1      -4.801  -2.976  -1.810  0.00  0.00    +0.139 C 
BRANCH  26  27
ATOM     27  C   UNL     1      -4.675  -4.466  -1.626  0.00  0.00    -0.030 A 
ATOM     28  C   UNL     1      -4.319  -5.266  -2.697  0.00  0.00    +0.009 A 
ATOM     29  C   UNL     1      -4.203  -6.632  -2.531  0.00  0.00    +0.046 A 
ATOM     30  C   UNL     1      -4.443  -7.202  -1.289  0.00  0.00    +0.120 A 
ATOM     31  C   UNL     1      -4.800  -6.398  -0.217  0.00  0.00    +0.046 A 
ATOM     32  C   UNL     1      -4.910  -5.031  -0.386  0.00  0.00    +0.009 A 
BRANCH  30  33
ATOM     33  O   UNL     1      -4.330  -8.546  -1.124  0.00  0.00    -0.495 OA
ATOM     34  C   UNL     1      -4.593  -9.064   0.182  0.00  0.00    +0.277 C 
ENDBRANCH  30  33
ENDBRANCH  26  27
ENDBRANCH  24  26
ENDBRANCH  21  22
BRANCH  21  35
ATOM     35  C   UNL     1      -1.616  -0.650   0.055  0.00  0.00    +0.035 C 
BRANCH  35  37
ATOM     36  C   UNL     1       0.153  -0.247   1.773  0.00  0.00    +0.007 C 
ATOM     37  C   UNL     1      -0.227  -0.058   0.303  0.00  0.00    -0.015 C 
ATOM     38  C   UNL     1       0.796  -0.770  -0.584  0.00  0.00    +0.007 C 
ENDBRANCH  35  37
ENDBRANCH  21  35
ENDBRANCH   1  21
TORSDOF 7
