REMARK  Name = ZINC39665582
REMARK  9 active torsions:
REMARK  status: ('A' for Active; 'I' for Inactive)
REMARK    1  A    between atoms: C_1  and  C_2
REMARK    2  A    between atoms: C_2  and  C_4
REMARK    3  A    between atoms: C_2  and  O_28
REMARK    4  A    between atoms: C_4  and  N_5
REMARK    5  A    between atoms: C_6  and  C_8
REMARK    6  A    between atoms: C_19  and  C_21
REMARK    7  A    between atoms: O_28  and  C_29
REMARK    8  A    between atoms: C_32  and  O_35
REMARK    9  A    between atoms: O_35  and  C_36
REMARK                            x       y       z     vdW  Elec       q    Type
REMARK                         _______ _______ _______ _____ _____    ______ ____
ROOT
ATOM      1  C   UNL     1       0.988  -4.175  -2.552  0.00  0.00    +0.100 C 
ATOM      2  C   UNL     1      -0.456  -4.624  -2.869  0.00  0.00    +0.121 C 
ATOM      3  N   UNL     1      -0.478  -4.801  -4.340  0.00  0.00    -0.296 N 
ATOM      4  C   UNL     1       0.834  -5.415  -4.657  0.00  0.00    +0.115 C 
ATOM      5  C   UNL     1       1.832  -4.699  -3.726  0.00  0.00    -0.004 C 
ATOM      6  C   UNL     1       2.884  -5.683  -3.223  0.00  0.00    -0.010 C 
ATOM      7  C   UNL     1       3.748  -6.145  -4.399  0.00  0.00    -0.082 C 
ATOM      8  N   UNL     1       4.393  -4.983  -5.021  0.00  0.00    +0.379 N 
ATOM      9  C   UNL     1       3.376  -4.087  -5.585  0.00  0.00    -0.082 C 
ATOM     10  C   UNL     1       2.496  -3.538  -4.459  0.00  0.00    -0.010 C 
ATOM     11  C   UNL     1      -1.468  -4.478  -5.196  0.00  0.00    +0.247 C 
ATOM     12  O   UNL     1      -2.446  -3.879  -4.796  0.00  0.00    -0.270 OA
ATOM     13  H   UNL     1       4.930  -4.485  -4.326  0.00  0.00    -0.086 HD
ATOM     14  H   UNL     1       5.009  -5.295  -5.757  0.00  0.00    -0.086 HD
ENDROOT
BRANCH  11  15
ATOM     15  C   UNL     1      -1.363  -4.853  -6.622  0.00  0.00    +0.038 A 
ATOM     16  C   UNL     1      -0.568  -5.935  -7.006  0.00  0.00    +0.013 A 
ATOM     17  C   UNL     1      -0.474  -6.279  -8.339  0.00  0.00    +0.002 A 
ATOM     18  C   UNL     1      -1.165  -5.556  -9.294  0.00  0.00    +0.015 A 
ATOM     19  C   UNL     1      -1.954  -4.481  -8.921  0.00  0.00    +0.019 A 
ATOM     20  C   UNL     1      -2.062  -4.130  -7.590  0.00  0.00    +0.028 A 
ATOM     21 BR   UNL     1      -2.893  -3.498 -10.235  0.00  0.00    -0.050 Br
ENDBRANCH  11  15
BRANCH   1  23
ATOM     22  N   UNL     1       2.085  -2.080  -1.826  0.00  0.00    -0.312 N 
ATOM     23  C   UNL     1       1.066  -2.671  -2.480  0.00  0.00    +0.218 C 
ATOM     24  O   UNL     1       0.211  -1.994  -3.010  0.00  0.00    -0.275 OA
ATOM     25  H   UNL     1       2.768  -2.622  -1.401  0.00  0.00    +0.149 HD
BRANCH  22  26
ATOM     26  C   UNL     1       2.160  -0.618  -1.756  0.00  0.00    +0.148 C 
BRANCH  26  28
ATOM     27  C   UNL     1       3.416   1.310  -0.783  0.00  0.00    +0.053 C 
ATOM     28  C   UNL     1       3.403  -0.209  -0.963  0.00  0.00    +0.187 C 
BRANCH  28  29
ATOM     29  O   UNL     1       4.576  -0.615  -1.672  0.00  0.00    -0.488 OA
BRANCH  29  30
ATOM     30  C   UNL     1       5.704  -0.812  -0.939  0.00  0.00    +0.121 A 
ATOM     31  C   UNL     1       6.902  -1.104  -1.574  0.00  0.00    +0.049 A 
ATOM     32  C   UNL     1       8.048  -1.304  -0.829  0.00  0.00    +0.049 A 
ATOM     33  C   UNL     1       8.000  -1.214   0.554  0.00  0.00    +0.120 A 
ATOM     34  C   UNL     1       6.802  -0.921   1.190  0.00  0.00    +0.049 A 
ATOM     35  C   UNL     1       5.657  -0.717   0.444  0.00  0.00    +0.049 A 
BRANCH  33  36
ATOM     36  O   UNL     1       9.128  -1.412   1.288  0.00  0.00    -0.495 OA
ATOM     37  C   UNL     1       9.006  -1.303   2.708  0.00  0.00    +0.277 C 
ENDBRANCH  33  36
ENDBRANCH  29  30
ENDBRANCH  28  29
ENDBRANCH  26  28
ENDBRANCH  22  26
ENDBRANCH   1  23
TORSDOF 7
