REMARK  Name = ZINC39938798
REMARK  6 active torsions:
REMARK  status: ('A' for Active; 'I' for Inactive)
REMARK    1  A    between atoms: C_1  and  C_2
REMARK    2  A    between atoms: C_2  and  C_4
REMARK    3  A    between atoms: C_2  and  S_12
REMARK    4  A    between atoms: S_12  and  C_13
REMARK    5  A    between atoms: C_17  and  C_26
REMARK    6  A    between atoms: N_18  and  C_19
REMARK                            x       y       z     vdW  Elec       q    Type
REMARK                         _______ _______ _______ _____ _____    ______ ____
ROOT
ATOM      1  C   UNL     1      -2.021   0.036  -1.335  0.00  0.00    +0.242 C 
ATOM      2  N   UNL     1      -2.044   1.470  -1.668  0.00  0.00    -0.237 N 
ATOM      3  N   UNL     1      -1.680   1.571  -3.016  0.00  0.00    -0.169 NA
ATOM      4  C   UNL     1      -1.443   0.394  -3.533  0.00  0.00    +0.151 C 
ATOM      5  N   UNL     1      -1.623  -0.624  -2.589  0.00  0.00    -0.254 N 
ATOM      6  H   UNL     1      -2.268   2.200  -1.071  0.00  0.00    +0.171 HD
ENDROOT
BRANCH   4   7
ATOM      7  C   UNL     1      -1.058   0.179  -4.865  0.00  0.00    +0.022 C 
ATOM      8  C   UNL     1      -0.959   1.132  -5.880  0.00  0.00    +0.006 A 
ATOM      9  C   UNL     1      -1.193   2.523  -5.906  0.00  0.00    +0.010 A 
ATOM     10  C   UNL     1      -1.012   3.215  -7.061  0.00  0.00    +0.001 A 
ATOM     11  C   UNL     1      -0.596   2.583  -8.234  0.00  0.00    +0.002 A 
ATOM     12  C   UNL     1      -0.352   1.250  -8.281  0.00  0.00    +0.026 A 
ATOM     13  C   UNL     1      -0.519   0.461  -7.114  0.00  0.00    +0.043 A 
ATOM     14  N   UNL     1      -0.350  -0.830  -6.902  0.00  0.00    -0.380 N 
ATOM     15  C   UNL     1      -0.658  -1.134  -5.501  0.00  0.00    +0.152 C 
ATOM     16  H   UNL     1      -0.065  -1.475  -7.567  0.00  0.00    +0.160 HD
ENDBRANCH   4   7
BRANCH   5  17
ATOM     17  C   UNL     1      -1.459  -1.997  -2.795  0.00  0.00    +0.038 A 
ATOM     18  C   UNL     1      -0.203  -2.575  -2.660  0.00  0.00    +0.025 A 
ATOM     19  C   UNL     1      -0.043  -3.931  -2.865  0.00  0.00    +0.022 A 
ATOM     20  C   UNL     1      -1.132  -4.715  -3.204  0.00  0.00    +0.041 A 
ATOM     21  C   UNL     1      -2.385  -4.141  -3.340  0.00  0.00    +0.022 A 
ATOM     22  C   UNL     1      -2.551  -2.787  -3.130  0.00  0.00    +0.025 A 
ATOM     23 CL   UNL     1      -0.927  -6.419  -3.460  0.00  0.00    -0.084 Cl
ENDBRANCH   5  17
BRANCH   1  24
ATOM     24  S   UNL     1      -0.803  -0.293  -0.031  0.00  0.00    -0.105 S 
BRANCH  24  26
ATOM     25  C   UNL     1       0.651   1.860  -0.886  0.00  0.00    +0.029 C 
ATOM     26  C   UNL     1       0.753   0.343  -0.713  0.00  0.00    +0.133 C 
BRANCH  26  27
ATOM     27  C   UNL     1       1.883   0.020   0.229  0.00  0.00    +0.236 C 
ATOM     28  O   UNL     1       1.649  -0.241   1.390  0.00  0.00    -0.274 OA
ATOM     29  N   UNL     1       3.155   0.020  -0.218  0.00  0.00    -0.224 N 
ATOM     30  C   UNL     1       4.343  -0.283   0.592  0.00  0.00    +0.136 C 
ATOM     31  C   UNL     1       5.514  -0.139  -0.400  0.00  0.00    +0.125 C 
ATOM     32  N   UNL     1       4.860   0.229  -1.665  0.00  0.00    -0.297 N 
ATOM     33  C   UNL     1       3.535   0.290  -1.474  0.00  0.00    +0.309 C 
ATOM     34  O   UNL     1       2.750   0.570  -2.359  0.00  0.00    -0.252 OA
ATOM     35  H   UNL     1       5.315   0.396  -2.505  0.00  0.00    +0.150 HD
ENDBRANCH  26  27
ENDBRANCH  24  26
ENDBRANCH   1  24
TORSDOF 5
