REMARK  Name = ZINC43223230
REMARK  12 active torsions:
REMARK  status: ('A' for Active; 'I' for Inactive)
REMARK    1  A    between atoms: C_1  and  C_2
REMARK    2  A    between atoms: C_2  and  C_3
REMARK    3  A    between atoms: C_2  and  N_4
REMARK    4  A    between atoms: N_4  and  C_5
REMARK    5  A    between atoms: N_4  and  C_30
REMARK    6  A    between atoms: C_5  and  C_6
REMARK    7  A    between atoms: C_6  and  N_7
REMARK    8  A    between atoms: C_8  and  C_10
REMARK    9  A    between atoms: C_15  and  C_17
REMARK   10  A    between atoms: N_19  and  C_20
REMARK   11  A    between atoms: C_30  and  C_31
REMARK   12  A    between atoms: C_30  and  C_32
REMARK                            x       y       z     vdW  Elec       q    Type
REMARK                         _______ _______ _______ _____ _____    ______ ____
ROOT
ATOM      1  C   UNL     1      -6.549   1.793  -2.933  0.00  0.00    +0.068 C 
ATOM      2  C   UNL     1      -6.931   0.541  -3.752  0.00  0.00    -0.069 C 
ATOM      3  N   UNL     1      -8.281   0.168  -3.256  0.00  0.00    +0.380 N 
ATOM      4  C   UNL     1      -8.973   1.468  -3.067  0.00  0.00    -0.069 C 
ATOM      5  C   UNL     1      -7.891   2.406  -2.483  0.00  0.00    +0.068 C 
ATOM      6  H   UNL     1      -8.765  -0.394  -3.941  0.00  0.00    -0.086 HD
ATOM      7  H   UNL     1      -8.210  -0.326  -2.379  0.00  0.00    -0.086 HD
ENDROOT
BRANCH   1   9
ATOM      8  N   UNL     1      -4.520   0.820  -1.906  0.00  0.00    -0.317 N 
ATOM      9  C   UNL     1      -5.723   1.403  -1.734  0.00  0.00    +0.215 C 
ATOM     10  O   UNL     1      -6.142   1.614  -0.616  0.00  0.00    -0.276 OA
ATOM     11  H   UNL     1      -4.186   0.652  -2.800  0.00  0.00    +0.149 HD
BRANCH   8  12
ATOM     12  C   UNL     1      -3.718   0.441  -0.740  0.00  0.00    +0.085 C 
BRANCH  12  13
ATOM     13  C   UNL     1      -2.408  -0.196  -1.208  0.00  0.00    -0.059 C 
BRANCH  13  14
ATOM     14  N   UNL     1      -1.616  -0.603  -0.040  0.00  0.00    +0.384 N 
ATOM     15  H   UNL     1      -1.479   0.191   0.567  0.00  0.00    -0.081 HD
BRANCH  14  17
ATOM     16  C   UNL     1       0.420  -0.018  -1.267  0.00  0.00    -0.014 C 
ATOM     17  C   UNL     1      -0.311  -1.110  -0.485  0.00  0.00    -0.074 C 
ATOM     18  C   UNL     1       0.523  -1.511   0.733  0.00  0.00    -0.014 C 
ENDBRANCH  14  17
BRANCH  14  19
ATOM     19  C   UNL     1      -2.329  -1.660   0.690  0.00  0.00    -0.074 C 
ATOM     20  C   UNL     1      -2.028  -3.016   0.048  0.00  0.00    -0.014 C 
ATOM     21  C   UNL     1      -1.868  -1.673   2.148  0.00  0.00    -0.014 C 
ENDBRANCH  14  19
ENDBRANCH  13  14
ENDBRANCH  12  13
ENDBRANCH   8  12
ENDBRANCH   1   9
BRANCH   5  22
ATOM     22  C   UNL     1      -8.045   3.797  -3.041  0.00  0.00    +0.215 C 
ATOM     23  O   UNL     1      -7.172   4.272  -3.736  0.00  0.00    -0.276 OA
ATOM     24  N   UNL     1      -9.153   4.514  -2.767  0.00  0.00    -0.308 N 
ATOM     25  H   UNL     1      -9.851   4.135  -2.211  0.00  0.00    +0.149 HD
BRANCH  24  26
ATOM     26  C   UNL     1      -9.303   5.867  -3.309  0.00  0.00    +0.104 C 
ATOM     27  C   UNL     1     -10.796   6.252  -3.385  0.00  0.00    +0.032 C 
ATOM     28  C   UNL     1     -10.765   7.763  -3.073  0.00  0.00    +0.037 C 
ATOM     29  C   UNL     1      -9.520   7.970  -2.237  0.00  0.00    -0.042 A 
ATOM     30  C   UNL     1      -8.677   6.880  -2.374  0.00  0.00    -0.024 A 
ATOM     31  C   UNL     1      -7.470   6.850  -1.697  0.00  0.00    +0.006 A 
ATOM     32  C   UNL     1      -7.102   7.906  -0.885  0.00  0.00    +0.000 A 
ATOM     33  C   UNL     1      -7.941   8.996  -0.748  0.00  0.00    +0.000 A 
ATOM     34  C   UNL     1      -9.152   9.027  -1.422  0.00  0.00    +0.004 A 
ENDBRANCH  24  26
ENDBRANCH   5  22
TORSDOF 8
