REMARK  Name = ZINC51359180
REMARK  3 active torsions:
REMARK  status: ('A' for Active; 'I' for Inactive)
REMARK    1  A    between atoms: C_2  and  S_8
REMARK    2  A    between atoms: S_8  and  N_11
REMARK    3  A    between atoms: C_15  and  C_17
REMARK                            x       y       z     vdW  Elec       q    Type
REMARK                         _______ _______ _______ _____ _____    ______ ____
ROOT
ATOM      1  N   UNL     1       1.870   4.441   1.615  0.00  0.00    -0.175 NA
ATOM      2  C   UNL     1       1.332   4.772   2.946  0.00  0.00    +0.110 C 
ATOM      3  C   UNL     1       2.440   4.342   3.940  0.00  0.00    +0.019 C 
ATOM      4  C   UNL     1       3.725   4.717   3.155  0.00  0.00    +0.020 C 
ATOM      5  C   UNL     1       3.338   4.407   1.694  0.00  0.00    +0.066 C 
ENDROOT
BRANCH   5   6
ATOM      6  C   UNL     1       3.934   5.467   0.765  0.00  0.00    -0.053 C 
ATOM      7  C   UNL     1       5.472   5.468   0.889  0.00  0.00    -0.016 C 
ATOM      8  C   UNL     1       5.829   6.976   0.804  0.00  0.00    -0.021 C 
ATOM      9  C   UNL     1       4.634   7.622   1.549  0.00  0.00    -0.082 C 
ATOM     10  N   UNL     1       3.460   6.806   1.161  0.00  0.00    +0.382 N 
ATOM     11  H   UNL     1       2.982   7.240   0.385  0.00  0.00    -0.085 HD
ATOM     12  H   UNL     1       2.828   6.724   1.944  0.00  0.00    -0.085 HD
ENDBRANCH   5   6
BRANCH   1  13
ATOM     13  S   UNL     1       0.971   4.149   0.256  0.00  0.00    +0.063 S 
ATOM     14  O   UNL     1       1.857   4.259  -0.850  0.00  0.00    -0.153 OA
ATOM     15  O   UNL     1      -0.206   4.937   0.370  0.00  0.00    -0.153 OA
BRANCH  13  17
ATOM     16  C   UNL     1      -0.883   2.143   0.441  0.00  0.00    +0.057 A 
ATOM     17  C   UNL     1       0.457   2.465   0.323  0.00  0.00    +0.132 A 
ATOM     18  C   UNL     1       1.370   1.464   0.261  0.00  0.00    +0.106 A 
ATOM     19  S   UNL     1       0.335   0.013   0.368  0.00  0.00    -0.063 S 
ATOM     20  C   UNL     1      -1.244   0.837   0.489  0.00  0.00    +0.081 A 
ATOM     21 CL   UNL     1      -2.829   0.145   0.634  0.00  0.00    -0.076 Cl
ATOM     22 CL   UNL     1       3.096   1.566   0.113  0.00  0.00    -0.074 Cl
ENDBRANCH  13  17
ENDBRANCH   1  13
TORSDOF 3
