REMARK  Name = ZINC25394432
REMARK  7 active torsions:
REMARK  status: ('A' for Active; 'I' for Inactive)
REMARK    1  A    between atoms: C_1  and  C_2
REMARK    2  A    between atoms: C_2  and  C_4
REMARK    3  A    between atoms: C_2  and  N_14
REMARK    4  A    between atoms: C_15  and  C_17
REMARK    5  A    between atoms: C_23  and  O_25
REMARK    6  A    between atoms: O_25  and  C_26
REMARK    7  A    between atoms: C_26  and  C_27
REMARK                            x       y       z     vdW  Elec       q    Type
REMARK                         _______ _______ _______ _____ _____    ______ ____
ROOT
ATOM      1  N   UNL     1      -4.647  -0.149   0.915  0.00  0.00    -0.309 N 
ATOM      2  C   UNL     1      -5.643  -0.864   1.476  0.00  0.00    +0.217 C 
ATOM      3  O   UNL     1      -5.749  -2.048   1.237  0.00  0.00    -0.275 OA
ATOM      4  H   UNL     1      -4.552   0.925   1.132  0.00  0.00    +0.149 HD
ENDROOT
BRANCH   2   5
ATOM      5  C   UNL     1      -6.626  -0.191   2.399  0.00  0.00    +0.078 C 
ATOM      6  C   UNL     1      -5.878   0.403   3.595  0.00  0.00    +0.032 C 
ATOM      7  C   UNL     1      -6.875   1.116   4.513  0.00  0.00    +0.112 C 
ATOM      8  N   UNL     1      -7.941   0.172   4.877  0.00  0.00    -0.267 N 
ATOM      9  C   UNL     1      -8.664  -0.525   3.805  0.00  0.00    +0.112 C 
ATOM     10  C   UNL     1      -7.646  -1.219   2.894  0.00  0.00    +0.032 C 
ATOM     11  C   UNL     1      -8.248  -0.051   6.170  0.00  0.00    +0.403 C 
ATOM     12  O   UNL     1      -9.131  -0.835   6.458  0.00  0.00    -0.226 OA
BRANCH  11  13
ATOM     13  O   UNL     1      -7.577   0.594   7.143  0.00  0.00    -0.441 OA
BRANCH  13  14
ATOM     14  C   UNL     1      -7.962   0.304   8.513  0.00  0.00    +0.346 C 
BRANCH  14  15
ATOM     15  C   UNL     1      -7.096   1.125   9.470  0.00  0.00    +0.424 C 
ATOM     16  F   UNL     1      -7.278   2.488   9.213  0.00  0.00    -0.167 F 
ATOM     17  F   UNL     1      -7.466   0.846  10.790  0.00  0.00    -0.167 F 
ATOM     18  F   UNL     1      -5.750   0.791   9.284  0.00  0.00    -0.167 F 
ENDBRANCH  14  15
ENDBRANCH  13  14
ENDBRANCH  11  13
ENDBRANCH   2   5
BRANCH   1  20
ATOM     19  C   UNL     1      -4.266  -0.838  -1.400  0.00  0.00    +0.033 C 
ATOM     20  C   UNL     1      -3.692  -0.803   0.018  0.00  0.00    +0.100 C 
BRANCH  20  21
ATOM     21  C   UNL     1      -2.397  -0.033   0.016  0.00  0.00    -0.024 A 
ATOM     22  C   UNL     1      -2.415   1.349   0.025  0.00  0.00    +0.009 A 
ATOM     23  C   UNL     1      -1.229   2.059   0.019  0.00  0.00    +0.050 A 
ATOM     24  C   UNL     1      -0.017   1.385   0.010  0.00  0.00    +0.162 A 
ATOM     25  C   UNL     1       0.002  -0.004   0.002  0.00  0.00    +0.162 A 
ATOM     26  C   UNL     1      -1.192  -0.710   0.004  0.00  0.00    +0.055 A 
ATOM     27  O   UNL     1       1.181  -0.685  -0.007  0.00  0.00    -0.485 OA
ATOM     28  C   UNL     1       2.347   0.053  -0.387  0.00  0.00    +0.270 C 
ATOM     29  C   UNL     1       2.334   1.392   0.364  0.00  0.00    +0.270 C 
ATOM     30  O   UNL     1       1.143   2.098   0.002  0.00  0.00    -0.485 OA
ENDBRANCH  20  21
ENDBRANCH   1  20
TORSDOF 6
