REMARK  Name = ZINC12430861
REMARK  3 active torsions:
REMARK  status: ('A' for Active; 'I' for Inactive)
REMARK    1  A    between atoms: C_12  and  N_42
REMARK    2  A    between atoms: C_17  and  C_18
REMARK    3  A    between atoms: C_17  and  N_42
REMARK                            x       y       z     vdW  Elec       q    Type
REMARK                         _______ _______ _______ _____ _____    ______ ____
ROOT
ATOM      1  C   UNL     1      -5.463   6.940   0.237  0.00  0.00    +0.005 A 
ATOM      2  C   UNL     1      -6.357   6.641  -0.782  0.00  0.00    +0.020 A 
ATOM      3  C   UNL     1      -6.050   5.633  -1.676  0.00  0.00    +0.113 A 
ATOM      4  N   UNL     1      -4.920   4.960  -1.574  0.00  0.00    -0.236 NA
ATOM      5  C   UNL     1      -4.046   5.213  -0.614  0.00  0.00    +0.154 A 
ATOM      6  C   UNL     1      -4.289   6.212   0.320  0.00  0.00    +0.048 A 
ATOM      7  N   UNL     1      -2.863   4.470  -0.541  0.00  0.00    -0.218 N 
ATOM      8  C   UNL     1      -2.676   3.220  -1.021  0.00  0.00    +0.048 A 
ATOM      9  C   UNL     1      -1.397   2.859  -0.747  0.00  0.00    -0.020 A 
ATOM     10  C   UNL     1      -0.783   3.920  -0.083  0.00  0.00    +0.137 A 
ATOM     11  N   UNL     1      -1.658   4.887   0.043  0.00  0.00    -0.173 NA
ATOM     12  C   UNL     1      -0.795   1.527  -1.120  0.00  0.00    -0.037 C 
ATOM     13  C   UNL     1      -1.937   0.556  -1.449  0.00  0.00    -0.011 C 
ATOM     14  C   UNL     1      -2.898   1.216  -2.442  0.00  0.00    +0.005 C 
ATOM     15  C   UNL     1      -3.668   2.340  -1.739  0.00  0.00    +0.056 C 
ENDROOT
BRANCH  12  16
ATOM     16  N   UNL     1      -0.015   0.998   0.015  0.00  0.00    +0.386 N 
ATOM     17  H   UNL     1       0.032  -0.025  -0.054  0.00  0.00    -0.085 HD
ATOM     18  H   UNL     1      -0.475   1.261   0.894  0.00  0.00    -0.085 HD
BRANCH  16  19
ATOM     19  C   UNL     1       1.353   1.550  -0.003  0.00  0.00    -0.046 C 
BRANCH  19  20
ATOM     20  C   UNL     1       2.125   0.993   1.166  0.00  0.00    -0.064 A 
ATOM     21  C   UNL     1       2.121   1.659   2.377  0.00  0.00    +0.003 A 
ATOM     22  C   UNL     1       2.825   1.146   3.450  0.00  0.00    +0.020 A 
ATOM     23  C   UNL     1       3.541  -0.029   3.309  0.00  0.00    +0.041 A 
ATOM     24  C   UNL     1       3.549  -0.692   2.095  0.00  0.00    +0.020 A 
ATOM     25  C   UNL     1       2.841  -0.181   1.024  0.00  0.00    +0.003 A 
ATOM     26 CL   UNL     1       4.431  -0.670   4.655  0.00  0.00    -0.084 Cl
ENDBRANCH  19  20
ENDBRANCH  16  19
ENDBRANCH  12  16
TORSDOF 3
