REMARK  Name = ZINC64147830
REMARK  6 active torsions:
REMARK  status: ('A' for Active; 'I' for Inactive)
REMARK    1  A    between atoms: C_1  and  C_2
REMARK    2  A    between atoms: C_9  and  N_14
REMARK    3  A    between atoms: C_15  and  C_17
REMARK    4  A    between atoms: C_17  and  C_18
REMARK    5  A    between atoms: C_18  and  C_19
REMARK    6  A    between atoms: C_19  and  C_20
REMARK                            x       y       z     vdW  Elec       q    Type
REMARK                         _______ _______ _______ _____ _____    ______ ____
ROOT
ATOM      1  N   UNL     1       0.119  -5.854   2.336  0.00  0.00    -0.285 N 
ATOM      2  C   UNL     1       1.167  -6.555   2.812  0.00  0.00    +0.217 C 
ATOM      3  O   UNL     1       2.208  -5.989   3.070  0.00  0.00    -0.275 OA
ATOM      4  H   UNL     1      -0.737  -6.290   2.203  0.00  0.00    +0.155 HD
ENDROOT
BRANCH   1  12
ATOM      5  C   UNL     1       2.082   1.446   0.679  0.00  0.00    +0.062 C 
ATOM      6  C   UNL     1       1.997   0.080   1.363  0.00  0.00    +0.256 C 
ATOM      7  C   UNL     1       3.046  -0.837   0.785  0.00  0.00    +0.258 C 
ATOM      8  O   UNL     1       4.077  -0.378   0.341  0.00  0.00    -0.271 OA
ATOM      9  N   UNL     1       2.833  -2.170   0.766  0.00  0.00    -0.279 N 
ATOM     10  C   UNL     1       1.618  -2.672   1.255  0.00  0.00    +0.077 A 
ATOM     11  C   UNL     1       1.478  -4.017   1.552  0.00  0.00    +0.050 A 
ATOM     12  C   UNL     1       0.266  -4.493   2.034  0.00  0.00    +0.035 A 
ATOM     13  C   UNL     1      -0.801  -3.623   2.217  0.00  0.00    +0.027 A 
ATOM     14  C   UNL     1      -0.661  -2.280   1.920  0.00  0.00    +0.049 A 
ATOM     15  C   UNL     1       0.546  -1.800   1.440  0.00  0.00    +0.143 A 
ATOM     16  O   UNL     1       0.699  -0.480   1.147  0.00  0.00    -0.478 OA
ATOM     17  H   UNL     1       3.510  -2.772   0.420  0.00  0.00    +0.155 HD
ENDBRANCH   1  12
BRANCH   2  18
ATOM     18  C   UNL     1       1.044  -8.042   3.025  0.00  0.00    +0.096 C 
BRANCH  18  19
ATOM     19  C   UNL     1       2.365  -8.590   3.568  0.00  0.00    +0.014 C 
BRANCH  19  20
ATOM     20  C   UNL     1       2.240 -10.100   3.784  0.00  0.00    +0.033 C 
BRANCH  20  21
ATOM     21  C   UNL     1       3.541 -10.640   4.319  0.00  0.00    -0.042 C 
ATOM     22  C   UNL     1       3.862 -10.850   5.616  0.00  0.00    -0.001 A 
ATOM     23  C   UNL     1       3.125 -10.647   6.869  0.00  0.00    +0.010 A 
ATOM     24  C   UNL     1       3.725 -10.957   8.041  0.00  0.00    +0.001 A 
ATOM     25  C   UNL     1       5.030 -11.466   8.089  0.00  0.00    +0.002 A 
ATOM     26  C   UNL     1       5.770 -11.680   6.981  0.00  0.00    +0.026 A 
ATOM     27  C   UNL     1       5.239 -11.390   5.694  0.00  0.00    +0.043 A 
ATOM     28  N   UNL     1       5.749 -11.508   4.492  0.00  0.00    -0.380 N 
ATOM     29  C   UNL     1       4.750 -11.062   3.514  0.00  0.00    +0.144 C 
ATOM     30  H   UNL     1       6.637 -11.838   4.284  0.00  0.00    +0.160 HD
ENDBRANCH  20  21
ENDBRANCH  19  20
ENDBRANCH  18  19
ENDBRANCH   2  18
TORSDOF 5
