REMARK  Name = ZINC29860867
REMARK  4 active torsions:
REMARK  status: ('A' for Active; 'I' for Inactive)
REMARK    1  A    between atoms: C_1  and  C_2
REMARK    2  A    between atoms: C_2  and  N_3
REMARK    3  A    between atoms: N_14  and  N_15
REMARK    4  A    between atoms: C_16  and  C_18
REMARK                            x       y       z     vdW  Elec       q    Type
REMARK                         _______ _______ _______ _____ _____    ______ ____
ROOT
ATOM      1  N   UNL     1       0.035  -2.766  -0.012  0.00  0.00    -0.280 N 
ATOM      2  C   UNL     1       1.238  -2.146  -0.021  0.00  0.00    +0.263 A 
ATOM      3  O   UNL     1       2.275  -2.782  -0.034  0.00  0.00    -0.267 OA
ATOM      4  C   UNL     1       1.245  -0.677  -0.013  0.00  0.00    +0.065 A 
ATOM      5  C   UNL     1       2.432   0.054  -0.021  0.00  0.00    +0.015 A 
ATOM      6  C   UNL     1       2.381   1.421  -0.013  0.00  0.00    +0.001 A 
ATOM      7  C   UNL     1       1.161   2.086   0.002  0.00  0.00    +0.002 A 
ATOM      8  C   UNL     1      -0.017   1.394   0.010  0.00  0.00    +0.028 A 
ATOM      9  C   UNL     1       0.002  -0.004   0.002  0.00  0.00    +0.080 A 
ATOM     10  N   UNL     1      -1.141  -0.730   0.009  0.00  0.00    -0.214 NA
ATOM     11  C   UNL     1      -1.120  -2.039   0.003  0.00  0.00    +0.216 A 
ATOM     12  N   UNL     1      -2.316  -2.712   0.012  0.00  0.00    -0.234 N 
ATOM     13  H   UNL     1      -2.328  -3.812   0.007  0.00  0.00    +0.173 HD
ENDROOT
BRANCH  12  14
ATOM     14  N   UNL     1      -3.521  -1.998   0.028  0.00  0.00    -0.230 N 
ATOM     15  C   UNL     1      -4.696  -2.659   0.037  0.00  0.00    +0.262 C 
ATOM     16  O   UNL     1      -4.710  -3.875   0.032  0.00  0.00    -0.269 OA
ATOM     17  H   UNL     1      -3.509  -0.898   0.033  0.00  0.00    +0.173 HD
BRANCH  15  18
ATOM     18  C   UNL     1      -5.963  -1.908   0.054  0.00  0.00    +0.064 A 
ATOM     19  C   UNL     1      -5.956  -0.520   0.060  0.00  0.00    +0.016 A 
ATOM     20  C   UNL     1      -7.144   0.196   0.075  0.00  0.00    +0.021 A 
ATOM     21  C   UNL     1      -8.351  -0.442   0.084  0.00  0.00    +0.050 A 
ATOM     22  C   UNL     1      -8.404  -1.847   0.078  0.00  0.00    +0.019 A 
ATOM     23  C   UNL     1      -7.203  -2.596   0.057  0.00  0.00    +0.084 A 
ATOM     24  N   UNL     1      -7.250  -3.929   0.056  0.00  0.00    -0.254 NA
ATOM     25  C   UNL     1      -8.394  -4.572   0.064  0.00  0.00    +0.111 A 
ATOM     26  C   UNL     1      -9.612  -3.898   0.079  0.00  0.00    +0.020 A 
ATOM     27  C   UNL     1      -9.634  -2.531   0.086  0.00  0.00    +0.013 A 
ATOM     28 CL   UNL     1      -9.821   0.481   0.103  0.00  0.00    -0.083 Cl
ENDBRANCH  15  18
ENDBRANCH  12  14
BRANCH   1  30
ATOM     29  C   UNL     1      -0.036  -4.747   1.421  0.00  0.00    +0.027 C 
ATOM     30  C   UNL     1      -0.028  -4.230  -0.019  0.00  0.00    +0.125 C 
ENDBRANCH   1  30
TORSDOF 3
