REMARK  Name = ZINC39928395
REMARK  16 active torsions:
REMARK  status: ('A' for Active; 'I' for Inactive)
REMARK    1  A    between atoms: C_1  and  C_2
REMARK    2  A    between atoms: C_2  and  O_3
REMARK    3  A    between atoms: O_3  and  C_4
REMARK    4  A    between atoms: C_6  and  C_16
REMARK    5  A    between atoms: C_8  and  O_13
REMARK    6  A    between atoms: C_9  and  O_10
REMARK    7  A    between atoms: O_10  and  C_11
REMARK    8  A    between atoms: C_11  and  C_12
REMARK    9  A    between atoms: O_13  and  C_14
REMARK   10  A    between atoms: C_14  and  C_15
REMARK   11  A    between atoms: N_18  and  C_19
REMARK   12  A    between atoms: N_18  and  C_33
REMARK   13  A    between atoms: C_19  and  C_20
REMARK   14  A    between atoms: C_25  and  C_32
REMARK   15  A    between atoms: C_38  and  O_39
REMARK   16  A    between atoms: O_39  and  C_40
REMARK                            x       y       z     vdW  Elec       q    Type
REMARK                         _______ _______ _______ _____ _____    ______ ____
ROOT
ATOM      1  C   UNL     1      -0.289  -5.216  -0.661  0.00  0.00    +0.251 C 
ATOM      2  O   UNL     1      -1.006  -4.805  -1.553  0.00  0.00    -0.270 OA
ATOM      3  N   UNL     1      -0.158  -6.542  -0.459  0.00  0.00    -0.263 N 
ENDROOT
BRANCH   1   6
ATOM      4  C   UNL     1       1.734  -2.251   0.448  0.00  0.00    +0.166 A 
ATOM      5  C   UNL     1       1.055  -3.142  -0.361  0.00  0.00    +0.062 A 
ATOM      6  C   UNL     1       0.437  -4.263   0.201  0.00  0.00    +0.044 A 
ATOM      7  C   UNL     1       0.507  -4.479   1.579  0.00  0.00    +0.062 A 
ATOM      8  C   UNL     1       1.187  -3.584   2.384  0.00  0.00    +0.166 A 
ATOM      9  C   UNL     1       1.807  -2.471   1.821  0.00  0.00    +0.204 A 
BRANCH   4  10
ATOM     10  O   UNL     1       2.336  -1.161  -0.098  0.00  0.00    -0.488 OA
BRANCH  10  12
ATOM     11  C   UNL     1       2.956   0.276  -1.940  0.00  0.00    +0.048 C 
ATOM     12  C   UNL     1       2.221  -0.996  -1.513  0.00  0.00    +0.226 C 
ENDBRANCH  10  12
ENDBRANCH   4  10
BRANCH   9  13
ATOM     13  O   UNL     1       2.480  -1.596   2.614  0.00  0.00    -0.485 OA
BRANCH  13  14
ATOM     14  C   UNL     1       1.732  -0.506   3.157  0.00  0.00    +0.226 C 
ATOM     15  C   UNL     1       2.652   0.365   4.016  0.00  0.00    +0.048 C 
ENDBRANCH  13  14
ENDBRANCH   9  13
BRANCH   8  16
ATOM     16  O   UNL     1       1.255  -3.793   3.726  0.00  0.00    -0.488 OA
BRANCH  16  17
ATOM     17  C   UNL     1       0.699  -5.013   4.221  0.00  0.00    +0.226 C 
ATOM     18  C   UNL     1       0.749  -5.012   5.751  0.00  0.00    +0.048 C 
ENDBRANCH  16  17
ENDBRANCH   8  16
ENDBRANCH   1   6
BRANCH   3  19
ATOM     19  C   UNL     1       0.738  -7.018   0.507  0.00  0.00    +0.078 A 
ATOM     20  C   UNL     1       0.266  -7.464   1.733  0.00  0.00    +0.027 A 
ATOM     21  C   UNL     1       1.152  -7.933   2.684  0.00  0.00    +0.002 A 
ATOM     22  C   UNL     1       2.509  -7.960   2.418  0.00  0.00    +0.004 A 
ATOM     23  C   UNL     1       2.986  -7.517   1.198  0.00  0.00    +0.047 A 
ATOM     24  C   UNL     1       2.104  -7.050   0.237  0.00  0.00    +0.141 A 
BRANCH  24  25
ATOM     25  O   UNL     1       2.572  -6.619  -0.965  0.00  0.00    -0.493 OA
ATOM     26  C   UNL     1       3.985  -6.681  -1.171  0.00  0.00    +0.277 C 
ENDBRANCH  24  25
ENDBRANCH   3  19
BRANCH   3  27
ATOM     27  C   UNL     1      -0.951  -7.486  -1.250  0.00  0.00    +0.131 C 
BRANCH  27  28
ATOM     28  C   UNL     1      -0.182  -7.861  -2.518  0.00  0.00    +0.116 C 
ATOM     29  C   UNL     1      -0.927  -8.995  -3.195  0.00  0.00    -0.003 C 
ATOM     30  C   UNL     1      -1.344  -8.792  -4.477  0.00  0.00    -0.007 A 
ATOM     31  C   UNL     1      -2.069  -9.834  -5.205  0.00  0.00    +0.012 A 
ATOM     32  C   UNL     1      -2.465  -9.587  -6.480  0.00  0.00    -0.050 A 
ATOM     33  C   UNL     1      -2.193  -8.368  -7.102  0.00  0.00    +0.005 A 
ATOM     34  C   UNL     1      -1.524  -7.361  -6.481  0.00  0.00    +0.024 A 
ATOM     35  C   UNL     1      -1.071  -7.514  -5.158  0.00  0.00    +0.040 A 
ATOM     36  N   UNL     1      -0.417  -6.520  -4.559  0.00  0.00    -0.284 N 
ATOM     37  C   UNL     1       0.036  -6.598  -3.320  0.00  0.00    +0.226 C 
ATOM     38  O   UNL     1       0.627  -5.656  -2.826  0.00  0.00    -0.275 OA
ATOM     39  C   UNL     1      -3.213 -10.652  -7.240  0.00  0.00    +0.044 C 
ATOM     40  H   UNL     1      -0.266  -5.700  -5.055  0.00  0.00    +0.155 HD
ENDBRANCH  27  28
ENDBRANCH   3  27
TORSDOF 11
