REMARK  Name = ZINC39707688
REMARK  5 active torsions:
REMARK  status: ('A' for Active; 'I' for Inactive)
REMARK    1  A    between atoms: C_13  and  S_15
REMARK    2  A    between atoms: S_15  and  C_16
REMARK    3  A    between atoms: C_16  and  C_17
REMARK    4  A    between atoms: N_19  and  C_20
REMARK    5  A    between atoms: C_22  and  C_31
REMARK                            x       y       z     vdW  Elec       q    Type
REMARK                         _______ _______ _______ _____ _____    ______ ____
ROOT
ATOM      1  C   UNL     1       5.084  -4.623   2.688  0.00  0.00    +0.173 C 
ENDROOT
BRANCH   1   2
ATOM      2  C   UNL     1       5.737  -5.560   3.671  0.00  0.00    +0.224 C 
ATOM      3  O   UNL     1       5.111  -6.492   4.129  0.00  0.00    -0.275 OA
ATOM      4  N   UNL     1       7.018  -5.362   4.041  0.00  0.00    -0.301 N 
ATOM      5  H   UNL     1       7.519  -4.617   3.674  0.00  0.00    +0.150 HD
BRANCH   4   6
ATOM      6  C   UNL     1       7.654  -6.273   4.996  0.00  0.00    +0.156 C 
ATOM      7  C   UNL     1       9.027  -6.767   4.483  0.00  0.00    +0.149 C 
ATOM      8  C   UNL     1       9.265  -8.214   4.836  0.00  0.00    -0.041 C 
ATOM      9  C   UNL     1       8.208  -8.951   5.155  0.00  0.00    -0.012 C 
ATOM     10  S   UNL     1       6.781  -7.894   5.068  0.00  0.00    -0.106 S 
ATOM     11  C   UNL     1       8.201 -10.408   5.527  0.00  0.00    +0.042 C 
ATOM     12  C   UNL     1       9.549 -11.025   5.134  0.00  0.00    +0.005 C 
ATOM     13  C   UNL     1      10.668 -10.108   5.639  0.00  0.00    +0.005 C 
ATOM     14  C   UNL     1      10.670  -8.813   4.828  0.00  0.00    +0.033 C 
BRANCH   7  15
ATOM     15  C   UNL     1       9.075  -6.619   3.019  0.00  0.00    +0.073 C 
ATOM     16  N   UNL     1       9.112  -6.504   1.889  0.00  0.00    -0.196 NA
ENDBRANCH   7  15
ENDBRANCH   4   6
ENDBRANCH   1   2
BRANCH   1  17
ATOM     17  S   UNL     1       3.373  -5.150   2.396  0.00  0.00    -0.075 S 
BRANCH  17  29
ATOM     18  C   UNL     1      -0.016   1.348   0.009  0.00  0.00    +0.001 A 
ATOM     19  C   UNL     1       1.156   2.116   0.002  0.00  0.00    +0.002 A 
ATOM     20  C   UNL     1       2.382   1.544  -0.019  0.00  0.00    +0.026 A 
ATOM     21  C   UNL     1       2.490   0.081  -0.035  0.00  0.00    +0.046 A 
ATOM     22  N   UNL     1       3.530  -0.719  -0.024  0.00  0.00    -0.358 N 
ATOM     23  C   UNL     1       3.070  -2.089  -0.174  0.00  0.00    +0.252 C 
ATOM     24  C   UNL     1       1.561  -2.038  -0.014  0.00  0.00    +0.117 C 
ATOM     25  C   UNL     1       1.230  -0.705  -0.014  0.00  0.00    +0.025 A 
ATOM     26  C   UNL     1       0.002  -0.004   0.002  0.00  0.00    +0.012 A 
ATOM     27  N   UNL     1       0.842  -3.139   0.220  0.00  0.00    -0.147 NA
ATOM     28  N   UNL     1       1.473  -4.102   0.821  0.00  0.00    -0.122 NA
ATOM     29  C   UNL     1       2.755  -3.971   1.242  0.00  0.00    +0.208 C 
ATOM     30  N   UNL     1       3.565  -3.019   0.839  0.00  0.00    -0.227 NA
ATOM     31  H   UNL     1       4.455  -0.441   0.070  0.00  0.00    +0.162 HD
ENDBRANCH  17  29
ENDBRANCH   1  17
TORSDOF 5
