REMARK  Name = ZINC34746636
REMARK  9 active torsions:
REMARK  status: ('A' for Active; 'I' for Inactive)
REMARK    1  A    between atoms: C_1  and  C_2
REMARK    2  A    between atoms: C_2  and  C_31
REMARK    3  A    between atoms: C_5  and  C_27
REMARK    4  A    between atoms: C_6  and  N_13
REMARK    5  A    between atoms: C_9  and  C_11
REMARK    6  A    between atoms: C_9  and  C_12
REMARK    7  A    between atoms: C_14  and  C_16
REMARK    8  A    between atoms: C_27  and  O_29
REMARK    9  A    between atoms: O_29  and  C_30
REMARK                            x       y       z     vdW  Elec       q    Type
REMARK                         _______ _______ _______ _____ _____    ______ ____
ROOT
ATOM      1  C   UNL     1      -0.019   1.526   0.010  0.00  0.00    -0.010 C 
ATOM      2  C   UNL     1       0.002  -0.004   0.002  0.00  0.00    -0.069 C 
ATOM      3  C   UNL     1      -1.434  -0.532  -0.093  0.00  0.00    +0.024 C 
ATOM      4  C   UNL     1      -2.139  -0.134   1.195  0.00  0.00    -0.024 A 
ATOM      5  C   UNL     1      -3.544   0.171   1.359  0.00  0.00    +0.091 A 
ATOM      6  C   UNL     1      -3.967   0.516   2.637  0.00  0.00    +0.087 A 
ATOM      7  S   UNL     1      -2.572   0.437   3.567  0.00  0.00    -0.079 S 
ATOM      8  C   UNL     1      -1.408  -0.052   2.329  0.00  0.00    -0.016 A 
ATOM      9  C   UNL     1       0.051  -0.329   2.464  0.00  0.00    -0.041 C 
ATOM     10  N   UNL     1       0.699  -0.527   1.168  0.00  0.00    +0.389 N 
ATOM     11  C   UNL     1       0.726   0.823   3.222  0.00  0.00    -0.005 C 
ATOM     12  C   UNL     1       0.224  -1.610   3.303  0.00  0.00    -0.005 C 
ATOM     13  C   UNL     1       0.758  -0.459  -1.260  0.00  0.00    -0.010 C 
ATOM     14  H   UNL     1       0.851  -1.529   1.031  0.00  0.00    -0.084 HD
ATOM     15  H   UNL     1       1.632  -0.111   1.205  0.00  0.00    -0.084 HD
ENDROOT
BRANCH   6  16
ATOM     16  N   UNL     1      -5.249   0.847   3.046  0.00  0.00    -0.275 N 
ATOM     17  C   UNL     1      -5.486   1.159   4.335  0.00  0.00    +0.256 C 
ATOM     18  O   UNL     1      -4.574   1.149   5.141  0.00  0.00    -0.270 OA
ATOM     19  H   UNL     1      -5.976   0.855   2.404  0.00  0.00    +0.156 HD
BRANCH  17  20
ATOM     20  C   UNL     1      -6.848   1.511   4.769  0.00  0.00    +0.122 A 
ATOM     21  C   UNL     1      -7.121   1.842   6.090  0.00  0.00    +0.031 A 
ATOM     22  C   UNL     1      -8.464   2.139   6.439  0.00  0.00    +0.018 A 
ATOM     23  C   UNL     1      -8.771   2.671   7.700  0.00  0.00    +0.011 A 
ATOM     24  C   UNL     1     -10.062   2.990   8.005  0.00  0.00    +0.001 A 
ATOM     25  C   UNL     1     -11.078   2.786   7.081  0.00  0.00    +0.004 A 
ATOM     26  C   UNL     1     -10.802   2.245   5.842  0.00  0.00    +0.047 A 
ATOM     27  C   UNL     1      -9.497   1.906   5.512  0.00  0.00    +0.139 A 
ATOM     28  O   UNL     1      -9.219   1.335   4.315  0.00  0.00    -0.422 OA
ATOM     29  C   UNL     1      -7.974   1.532   3.818  0.00  0.00    +0.350 A 
ATOM     30  O   UNL     1      -7.790   1.714   2.630  0.00  0.00    -0.244 OA
ENDBRANCH  17  20
ENDBRANCH   6  16
BRANCH   5  31
ATOM     31  C   UNL     1      -4.487   0.121   0.239  0.00  0.00    +0.342 C 
ATOM     32  O   UNL     1      -5.075  -0.913  -0.017  0.00  0.00    -0.245 OA
BRANCH  31  33
ATOM     33  O   UNL     1      -4.705   1.223  -0.509  0.00  0.00    -0.464 OA
ATOM     34  C   UNL     1      -5.638   1.103  -1.585  0.00  0.00    +0.280 C 
ENDBRANCH  31  33
ENDBRANCH   5  31
TORSDOF 4
