REMARK  Name = ZINC08636304
REMARK  10 active torsions:
REMARK  status: ('A' for Active; 'I' for Inactive)
REMARK    1  A    between atoms: C_1  and  C_2
REMARK    2  A    between atoms: C_2  and  C_3
REMARK    3  A    between atoms: C_2  and  N_4
REMARK    4  A    between atoms: C_5  and  C_7
REMARK    5  A    between atoms: C_10  and  O_32
REMARK    6  A    between atoms: C_12  and  O_31
REMARK    7  A    between atoms: N_21  and  C_22
REMARK    8  A    between atoms: C_25  and  N_28
REMARK    9  A    between atoms: N_28  and  C_29
REMARK   10  A    between atoms: N_28  and  C_30
REMARK                            x       y       z     vdW  Elec       q    Type
REMARK                         _______ _______ _______ _____ _____    ______ ____
ROOT
ATOM      1  C   UNL     1      -6.891   2.733  -1.548  0.00  0.00    +0.093 C 
ATOM      2  C   UNL     1      -7.094   4.155  -2.054  0.00  0.00    +0.048 C 
ATOM      3  C   UNL     1      -5.723   4.828  -2.183  0.00  0.00    +0.146 C 
ATOM      4  C   UNL     1      -5.134   4.980  -0.784  0.00  0.00    +0.168 C 
ATOM      5  C   UNL     1      -5.051   3.681  -0.046  0.00  0.00    +0.153 C 
ATOM      6  C   UNL     1      -6.191   2.693  -0.203  0.00  0.00    +0.093 C 
ATOM      7  S   UNL     1      -5.248   1.115  -0.101  0.00  0.00    -0.084 S 
ATOM      8  C   UNL     1      -3.603   1.789   0.022  0.00  0.00    +0.154 C 
ATOM      9  N   UNL     1      -3.744   3.083   0.020  0.00  0.00    -0.256 NA
ATOM     10  N   UNL     1      -2.422   1.085   0.106  0.00  0.00    -0.294 N 
ATOM     11  H   UNL     1      -2.426   0.119   0.016  0.00  0.00    +0.154 HD
ENDROOT
BRANCH  10  12
ATOM     12  C   UNL     1      -1.216   1.764   0.324  0.00  0.00    +0.033 A 
ATOM     13  C   UNL     1      -0.029   1.249  -0.181  0.00  0.00    +0.025 A 
ATOM     14  C   UNL     1       1.159   1.920   0.028  0.00  0.00    +0.025 A 
ATOM     15  C   UNL     1       1.168   3.108   0.747  0.00  0.00    +0.029 A 
ATOM     16  C   UNL     1      -0.018   3.620   1.257  0.00  0.00    +0.025 A 
ATOM     17  C   UNL     1      -1.206   2.948   1.048  0.00  0.00    +0.025 A 
BRANCH  15  18
ATOM     18  N   UNL     1       2.373   3.789   0.959  0.00  0.00    -0.336 N 
ATOM     19  C   UNL     1       3.636   3.198   0.512  0.00  0.00    +0.129 C 
ATOM     20  C   UNL     1       2.369   5.093   1.626  0.00  0.00    +0.129 C 
ENDBRANCH  15  18
ENDBRANCH  10  12
BRANCH   1  22
ATOM     21  N   UNL     1      -9.048   1.974  -2.491  0.00  0.00    -0.313 N 
ATOM     22  C   UNL     1      -8.234   2.063  -1.420  0.00  0.00    +0.218 C 
ATOM     23  O   UNL     1      -8.584   1.605  -0.353  0.00  0.00    -0.275 OA
ATOM     24  H   UNL     1      -8.768   2.341  -3.344  0.00  0.00    +0.149 HD
BRANCH  21  26
ATOM     25  C   UNL     1     -11.299   1.867  -3.439  0.00  0.00    +0.027 C 
ATOM     26  C   UNL     1     -10.354   1.323  -2.366  0.00  0.00    +0.067 C 
ATOM     27  C   UNL     1     -10.191  -0.187  -2.548  0.00  0.00    +0.027 C 
ENDBRANCH  21  26
ENDBRANCH   1  22
BRANCH   4  28
ATOM     28  O   UNL     1      -3.821   5.533  -0.894  0.00  0.00    -0.387 OA
ATOM     29  H   UNL     1      -3.789   6.379  -1.362  0.00  0.00    +0.210 HD
ENDBRANCH   4  28
BRANCH   3  30
ATOM     30  O   UNL     1      -5.872   6.115  -2.786  0.00  0.00    -0.389 OA
ATOM     31  H   UNL     1      -6.243   6.091  -3.679  0.00  0.00    +0.210 HD
ENDBRANCH   3  30
TORSDOF 6
