REMARK  Name = ZINC10243587
REMARK  7 active torsions:
REMARK  status: ('A' for Active; 'I' for Inactive)
REMARK    1  A    between atoms: C_4  and  C_7
REMARK    2  A    between atoms: C_7  and  C_9
REMARK    3  A    between atoms: C_9  and  S_10
REMARK    4  A    between atoms: S_10  and  C_11
REMARK    5  A    between atoms: C_16  and  N_20
REMARK    6  A    between atoms: C_17  and  N_19
REMARK    7  A    between atoms: C_21  and  C_23
REMARK                            x       y       z     vdW  Elec       q    Type
REMARK                         _______ _______ _______ _____ _____    ______ ____
ROOT
ATOM      1  C   UNL     1       1.117   2.032   0.012  0.00  0.00    +0.171 A 
ATOM      2  N   UNL     1       2.333   1.418  -0.011  0.00  0.00    -0.300 N 
ATOM      3  H   UNL     1       3.143   1.950  -0.020  0.00  0.00    +0.171 HD
ATOM      4  C   UNL     1       2.412   0.071  -0.023  0.00  0.00    +0.275 A 
ATOM      5  O   UNL     1       3.498  -0.488  -0.043  0.00  0.00    -0.266 OA
ATOM      6  C   UNL     1       1.225  -0.677  -0.010  0.00  0.00    +0.139 A 
ATOM      7  C   UNL     1       0.010   0.001   0.014  0.00  0.00    +0.146 A 
ATOM      8  N   UNL     1      -0.002   1.339   0.024  0.00  0.00    -0.207 NA
ENDROOT
BRANCH   6   9
ATOM      9  N   UNL     1       1.262  -2.085  -0.021  0.00  0.00    -0.272 N 
ATOM     10  C   UNL     1       1.857  -2.735  -1.041  0.00  0.00    +0.284 C 
ATOM     11  O   UNL     1       2.435  -2.107  -1.909  0.00  0.00    -0.266 OA
ATOM     12  H   UNL     1       0.861  -2.586   0.706  0.00  0.00    +0.155 HD
BRANCH  10  13
ATOM     13  C   UNL     1       1.806  -4.199  -1.105  0.00  0.00    +0.191 A 
ATOM     14  C   UNL     1       2.358  -4.979  -2.081  0.00  0.00    +0.056 A 
ATOM     15  C   UNL     1       2.072  -6.310  -1.744  0.00  0.00    +0.058 A 
ATOM     16  C   UNL     1       1.359  -6.285  -0.595  0.00  0.00    +0.171 A 
ATOM     17  O   UNL     1       1.201  -5.011  -0.213  0.00  0.00    -0.444 OA
ATOM     18 BR   UNL     1       0.694  -7.800   0.322  0.00  0.00    -0.008 Br
ENDBRANCH  10  13
ENDBRANCH   6   9
BRANCH   7  19
ATOM     19  N   UNL     1      -1.179  -0.706   0.026  0.00  0.00    -0.341 N 
ATOM     20  H   UNL     1      -2.025  -0.231   0.043  0.00  0.00    +0.144 HD
ATOM     21  H   UNL     1      -1.167  -1.675   0.019  0.00  0.00    +0.144 HD
ENDBRANCH   7  19
BRANCH   1  22
ATOM     22  S   UNL     1       1.040   3.792   0.026  0.00  0.00    -0.080 S 
BRANCH  22  23
ATOM     23  C   UNL     1      -0.754   4.029   0.055  0.00  0.00    +0.156 C 
BRANCH  23  24
ATOM     24  C   UNL     1      -1.066   5.503   0.070  0.00  0.00    +0.173 C 
ATOM     25  O   UNL     1      -0.164   6.314   0.062  0.00  0.00    -0.291 OA
BRANCH  24  29
ATOM     26  C   UNL     1      -5.099   6.816   0.141  0.00  0.00    +0.000 A 
ATOM     27  C   UNL     1      -4.072   7.745   0.132  0.00  0.00    +0.001 A 
ATOM     28  C   UNL     1      -2.759   7.326   0.109  0.00  0.00    +0.011 A 
ATOM     29  C   UNL     1      -2.465   5.958   0.095  0.00  0.00    +0.018 A 
ATOM     30  C   UNL     1      -3.508   5.027   0.098  0.00  0.00    +0.011 A 
ATOM     31  C   UNL     1      -4.816   5.461   0.128  0.00  0.00    +0.001 A 
ENDBRANCH  24  29
ENDBRANCH  23  24
ENDBRANCH  22  23
ENDBRANCH   1  22
TORSDOF 7
