REMARK  Name = ZINC06489236
REMARK  7 active torsions:
REMARK  status: ('A' for Active; 'I' for Inactive)
REMARK    1  A    between atoms: C_1  and  C_2
REMARK    2  A    between atoms: C_2  and  C_3
REMARK    3  A    between atoms: C_3  and  C_5
REMARK    4  A    between atoms: C_3  and  N_18
REMARK    5  A    between atoms: C_19  and  C_21
REMARK    6  A    between atoms: C_23  and  C_27
REMARK    7  A    between atoms: N_24  and  C_26
REMARK                            x       y       z     vdW  Elec       q    Type
REMARK                         _______ _______ _______ _____ _____    ______ ____
ROOT
ATOM      1  C   UNL     1       5.601  -0.769  -0.055  0.00  0.00    +0.079 C 
ENDROOT
BRANCH   1   2
ATOM      2  C   UNL     1       6.036  -2.098  -0.676  0.00  0.00    -0.010 C 
ATOM      3  C   UNL     1       5.472  -3.256   0.150  0.00  0.00    +0.012 C 
ATOM      4  C   UNL     1       5.906  -4.585  -0.471  0.00  0.00    -0.010 C 
ATOM      5  C   UNL     1       5.377  -4.675  -1.903  0.00  0.00    +0.007 C 
ATOM      6  C   UNL     1       5.941  -3.518  -2.730  0.00  0.00    -0.010 C 
ATOM      7  C   UNL     1       5.506  -2.188  -2.108  0.00  0.00    +0.012 C 
ATOM      8  C   UNL     1       7.469  -3.598  -2.744  0.00  0.00    +0.007 C 
ATOM      9  C   UNL     1       7.998  -3.508  -1.312  0.00  0.00    -0.010 C 
ATOM     10  C   UNL     1       7.434  -4.665  -0.485  0.00  0.00    +0.007 C 
ATOM     11  C   UNL     1       7.563  -2.179  -0.690  0.00  0.00    +0.012 C 
ENDBRANCH   1   2
BRANCH   1  12
ATOM     12  N   UNL     1       4.138  -0.692  -0.041  0.00  0.00    -0.307 N 
ATOM     13  C   UNL     1       3.527   0.510  -0.028  0.00  0.00    +0.266 C 
ATOM     14  O   UNL     1       4.190   1.529  -0.029  0.00  0.00    -0.268 OA
ATOM     15  H   UNL     1       3.610  -1.505  -0.040  0.00  0.00    +0.149 HD
BRANCH  13  16
ATOM     16  C   UNL     1       2.052   0.588  -0.014  0.00  0.00    +0.165 A 
ATOM     17  C   UNL     1       1.273   1.769  -0.001  0.00  0.00    +0.094 A 
ATOM     18  C   UNL     1      -0.016   1.352   0.009  0.00  0.00    +0.055 A 
ATOM     19  N   UNL     1       0.002  -0.004   0.002  0.00  0.00    -0.269 N 
ATOM     20  N   UNL     1       1.214  -0.430  -0.012  0.00  0.00    -0.165 NA
ATOM     21  C   UNL     1      -1.187  -0.859   0.008  0.00  0.00    +0.172 C 
ATOM     22  C   UNL     1      -1.241   2.231   0.020  0.00  0.00    +0.067 C 
ATOM     23 CL   UNL     1       1.847   3.407   0.002  0.00  0.00    -0.079 Cl
ENDBRANCH  13  16
ENDBRANCH   1  12
BRANCH   1  25
ATOM     24  C   UNL     1       5.803   0.700   1.956  0.00  0.00    +0.006 C 
ATOM     25  C   UNL     1       6.130  -0.678   1.378  0.00  0.00    +0.019 C 
ENDBRANCH   1  25
TORSDOF 4
