REMARK  Name = ZINC09104324
REMARK  10 active torsions:
REMARK  status: ('A' for Active; 'I' for Inactive)
REMARK    1  A    between atoms: C_1  and  C_2
REMARK    2  A    between atoms: C_5  and  S_9
REMARK    3  A    between atoms: C_7  and  C_8
REMARK    4  A    between atoms: S_9  and  C_12
REMARK    5  A    between atoms: C_12  and  C_14
REMARK    6  A    between atoms: C_12  and  C_29
REMARK    7  A    between atoms: C_14  and  N_15
REMARK    8  A    between atoms: C_16  and  C_18
REMARK    9  A    between atoms: N_20  and  N_21
REMARK   10  A    between atoms: C_22  and  C_24
REMARK                            x       y       z     vdW  Elec       q    Type
REMARK                         _______ _______ _______ _____ _____    ______ ____
ROOT
ATOM      1  C   UNL     1       1.826   3.774   0.005  0.00  0.00    +0.136 C 
ENDROOT
BRANCH   1   2
ATOM      2  N   UNL     1       1.181   4.301   1.210  0.00  0.00    -0.305 N 
ATOM      3  C   UNL     1       1.148   5.630   1.431  0.00  0.00    +0.301 C 
ATOM      4  O   UNL     1       1.653   6.391   0.631  0.00  0.00    -0.265 OA
ATOM      5  H   UNL     1       0.777   3.693   1.849  0.00  0.00    +0.149 HD
BRANCH   3   6
ATOM      6  C   UNL     1       0.490   6.167   2.660  0.00  0.00    +0.315 C 
ATOM      7  O   UNL     1      -0.015   5.407   3.460  0.00  0.00    -0.264 OA
ATOM      8  N   UNL     1       0.457   7.497   2.881  0.00  0.00    -0.226 N 
ATOM      9  H   UNL     1       0.860   8.104   2.242  0.00  0.00    +0.173 HD
BRANCH   8  10
ATOM     10  N   UNL     1      -0.160   8.000   4.034  0.00  0.00    -0.227 N 
ATOM     11  C   UNL     1      -0.193   9.329   4.254  0.00  0.00    +0.295 C 
ATOM     12  O   UNL     1       0.313  10.092   3.453  0.00  0.00    -0.265 OA
ATOM     13  H   UNL     1      -0.564   7.392   4.673  0.00  0.00    +0.173 HD
BRANCH  11  14
ATOM     14  C   UNL     1      -0.839   9.856   5.461  0.00  0.00    +0.190 A 
ATOM     15  C   UNL     1      -0.943  11.174   5.805  0.00  0.00    +0.054 A 
ATOM     16  C   UNL     1      -1.631  11.218   7.028  0.00  0.00    +0.042 A 
ATOM     17  C   UNL     1      -1.914   9.943   7.372  0.00  0.00    +0.196 A 
ATOM     18  O   UNL     1      -1.440   9.125   6.422  0.00  0.00    -0.458 OA
ENDBRANCH  11  14
ENDBRANCH   8  10
ENDBRANCH   3   6
ENDBRANCH   1   2
BRANCH   1  19
ATOM     19  C   UNL     1       1.725   2.248  -0.002  0.00  0.00    +0.189 C 
BRANCH  19  20
ATOM     20  C   UNL     1       2.388   1.706  -1.242  0.00  0.00    +0.016 A 
ATOM     21  C   UNL     1       3.441   0.859  -1.346  0.00  0.00    +0.013 A 
ATOM     22  C   UNL     1       3.884   0.490  -2.602  0.00  0.00    +0.008 A 
ATOM     23  C   UNL     1       3.259   0.995  -3.694  0.00  0.00    +0.045 A 
ATOM     24  S   UNL     1       1.997   2.020  -2.955  0.00  0.00    -0.100 S 
ENDBRANCH  19  20
BRANCH  19  25
ATOM     25  S   UNL     1      -0.022   1.758   0.012  0.00  0.00    +0.006 S 
ATOM     26  O   UNL     1      -0.641   2.119  -1.215  0.00  0.00    -0.169 OA
ATOM     27  O   UNL     1      -0.618   2.106   1.254  0.00  0.00    -0.169 OA
BRANCH  25  32
ATOM     28  C   UNL     1       0.059  -4.275  -0.021  0.00  0.00    +0.044 C 
ATOM     29  C   UNL     1       0.039  -2.768  -0.013  0.00  0.00    -0.047 A 
ATOM     30  C   UNL     1       0.042  -2.084   1.188  0.00  0.00    +0.005 A 
ATOM     31  C   UNL     1       0.023  -0.702   1.196  0.00  0.00    +0.027 A 
ATOM     32  C   UNL     1       0.002  -0.004   0.002  0.00  0.00    +0.089 A 
ATOM     33  C   UNL     1      -0.006  -0.689  -1.199  0.00  0.00    +0.030 A 
ATOM     34  C   UNL     1       0.017  -2.071  -1.206  0.00  0.00    -0.046 A 
ATOM     35  C   UNL     1       0.013  -2.817  -2.515  0.00  0.00    +0.044 C 
ENDBRANCH  25  32
ENDBRANCH  19  25
ENDBRANCH   1  19
TORSDOF 8
