REMARK  Name = ZINC39968175
REMARK  9 active torsions:
REMARK  status: ('A' for Active; 'I' for Inactive)
REMARK    1  A    between atoms: C_1  and  C_2
REMARK    2  A    between atoms: C_4  and  C_20
REMARK    3  A    between atoms: C_5  and  C_19
REMARK    4  A    between atoms: N_6  and  C_7
REMARK    5  A    between atoms: C_9  and  C_16
REMARK    6  A    between atoms: C_10  and  C_15
REMARK    7  A    between atoms: C_11  and  C_14
REMARK    8  A    between atoms: C_21  and  C_22
REMARK    9  A    between atoms: C_21  and  C_24
REMARK                            x       y       z     vdW  Elec       q    Type
REMARK                         _______ _______ _______ _____ _____    ______ ____
ROOT
ATOM      1  C   UNL     1       0.168   1.310  -0.942  0.00  0.00    +0.063 C 
ATOM      2  C   UNL     1       0.087  -0.137  -0.529  0.00  0.00    +0.018 A 
ATOM      3  C   UNL     1      -0.350  -1.145  -1.304  0.00  0.00    +0.030 A 
ATOM      4  C   UNL     1      -0.253  -2.366  -0.496  0.00  0.00    -0.003 A 
ATOM      5  C   UNL     1       0.248  -1.973   0.727  0.00  0.00    +0.024 A 
ATOM      6  N   UNL     1       0.452  -0.634   0.688  0.00  0.00    -0.331 N 
ATOM      7  C   UNL     1       0.527  -2.876   1.901  0.00  0.00    +0.064 C 
ENDROOT
BRANCH   6   8
ATOM      8  C   UNL     1       0.984   0.166   1.794  0.00  0.00    +0.183 C 
ATOM      9  C   UNL     1       2.469  -0.083   1.984  0.00  0.00    +0.073 C 
ATOM     10  C   UNL     1       2.850  -0.848   2.979  0.00  0.00    -0.047 C 
ATOM     11  C   UNL     1       1.782  -1.439   3.882  0.00  0.00    +0.072 C 
ATOM     12  S   UNL     1       0.318  -0.415   3.414  0.00  0.00    -0.123 S 
ATOM     13  C   UNL     1       2.139  -1.249   5.357  0.00  0.00    +0.024 C 
ATOM     14  C   UNL     1       4.310  -1.133   3.220  0.00  0.00    +0.041 C 
BRANCH   9  15
ATOM     15  C   UNL     1       3.455   0.518   1.078  0.00  0.00    +0.385 C 
ATOM     16  O   UNL     1       3.741  -0.042   0.028  0.00  0.00    -0.241 OA
ATOM     17  O   UNL     1       3.990   1.578   1.373  0.00  0.00    -0.241 OA
ENDBRANCH   9  15
ENDBRANCH   6   8
BRANCH   4  18
ATOM     18  C   UNL     1      -0.617  -3.729  -0.906  0.00  0.00    +0.028 C 
ATOM     19  C   UNL     1      -1.407  -3.921  -1.986  0.00  0.00    +0.072 C 
BRANCH  19  20
ATOM     20  C   UNL     1      -1.800  -5.318  -2.392  0.00  0.00    +0.216 C 
ATOM     21  N   UNL     1      -3.263  -5.438  -2.431  0.00  0.00    -0.359 N 
ATOM     22  C   UNL     1      -3.597  -5.749  -3.650  0.00  0.00    +0.060 A 
ATOM     23  C   UNL     1      -4.892  -5.999  -4.299  0.00  0.00    +0.027 A 
ATOM     24  C   UNL     1      -4.930  -6.309  -5.610  0.00  0.00    +0.002 A 
ATOM     25  C   UNL     1      -3.771  -6.405  -6.400  0.00  0.00    +0.002 A 
ATOM     26  C   UNL     1      -2.534  -6.196  -5.905  0.00  0.00    +0.027 A 
ATOM     27  C   UNL     1      -2.370  -5.852  -4.486  0.00  0.00    +0.060 A 
ATOM     28  N   UNL     1      -1.325  -5.601  -3.752  0.00  0.00    -0.359 N 
ATOM     29  H   UNL     1      -3.870  -5.310  -1.685  0.00  0.00    +0.162 HD
ATOM     30  H   UNL     1      -0.402  -5.600  -4.049  0.00  0.00    +0.162 HD
ENDBRANCH  19  20
BRANCH  19  31
ATOM     31  C   UNL     1      -1.869  -2.798  -2.744  0.00  0.00    +0.099 C 
ATOM     32  N   UNL     1      -2.236  -1.907  -3.346  0.00  0.00    -0.191 NA
ENDBRANCH  19  31
ENDBRANCH   4  18
TORSDOF 5
