REMARK  Name = ZINC39609463
REMARK  9 active torsions:
REMARK  status: ('A' for Active; 'I' for Inactive)
REMARK    1  A    between atoms: C_1  and  C_2
REMARK    2  A    between atoms: C_2  and  O_3
REMARK    3  A    between atoms: O_3  and  C_4
REMARK    4  A    between atoms: C_8  and  C_10
REMARK    5  A    between atoms: C_10  and  C_11
REMARK    6  A    between atoms: C_11  and  N_12
REMARK    7  A    between atoms: C_13  and  C_15
REMARK    8  A    between atoms: C_26  and  C_28
REMARK    9  A    between atoms: C_32  and  C_34
REMARK                            x       y       z     vdW  Elec       q    Type
REMARK                         _______ _______ _______ _____ _____    ______ ____
ROOT
ATOM      1  C   UNL     1      -8.715  -6.260   2.370  0.00  0.00    +0.100 C 
ATOM      2  C   UNL     1      -8.370  -7.586   1.655  0.00  0.00    +0.121 C 
ATOM      3  N   UNL     1      -8.150  -8.557   2.752  0.00  0.00    -0.296 N 
ATOM      4  C   UNL     1      -9.190  -8.223   3.754  0.00  0.00    +0.115 C 
ATOM      5  C   UNL     1      -9.255  -6.683   3.746  0.00  0.00    -0.004 C 
ATOM      6  C   UNL     1      -8.378  -6.113   4.856  0.00  0.00    -0.010 C 
ATOM      7  C   UNL     1      -8.967  -6.499   6.216  0.00  0.00    -0.082 C 
ATOM      8  N   UNL     1     -10.333  -5.974   6.326  0.00  0.00    +0.379 N 
ATOM      9  C   UNL     1     -11.193  -6.597   5.312  0.00  0.00    -0.082 C 
ATOM     10  C   UNL     1     -10.697  -6.215   3.915  0.00  0.00    -0.010 C 
ATOM     11  C   UNL     1      -7.215  -9.525   2.822  0.00  0.00    +0.247 C 
ATOM     12  O   UNL     1      -6.347  -9.595   1.974  0.00  0.00    -0.270 OA
ATOM     13  H   UNL     1     -10.697  -6.177   7.245  0.00  0.00    -0.086 HD
ATOM     14  H   UNL     1     -10.320  -4.975   6.186  0.00  0.00    -0.086 HD
ENDROOT
BRANCH  11  15
ATOM     15  C   UNL     1      -7.244 -10.501   3.931  0.00  0.00    +0.038 A 
ATOM     16  C   UNL     1      -8.427 -10.718   4.642  0.00  0.00    +0.016 A 
ATOM     17  C   UNL     1      -8.448 -11.630   5.676  0.00  0.00    +0.039 A 
ATOM     18  C   UNL     1      -7.300 -12.331   6.010  0.00  0.00    +0.135 A 
ATOM     19  C   UNL     1      -6.123 -12.120   5.307  0.00  0.00    +0.091 A 
ATOM     20  C   UNL     1      -6.092 -11.214   4.268  0.00  0.00    +0.028 A 
ATOM     21  F   UNL     1      -7.327 -13.223   7.024  0.00  0.00    -0.205 F 
BRANCH  19  22
ATOM     22  C   UNL     1      -4.879 -12.885   5.676  0.00  0.00    +0.420 C 
ATOM     23  F   UNL     1      -3.830 -12.504   4.832  0.00  0.00    -0.166 F 
ATOM     24  F   UNL     1      -4.535 -12.605   7.003  0.00  0.00    -0.166 F 
ATOM     25  F   UNL     1      -5.116 -14.256   5.535  0.00  0.00    -0.166 F 
ENDBRANCH  19  22
ENDBRANCH  11  15
BRANCH   1  27
ATOM     26  N   UNL     1      -7.590  -4.078   2.672  0.00  0.00    -0.315 N 
ATOM     27  C   UNL     1      -7.479  -5.413   2.529  0.00  0.00    +0.218 C 
ATOM     28  O   UNL     1      -6.383  -5.934   2.529  0.00  0.00    -0.275 OA
ATOM     29  H   UNL     1      -8.466  -3.662   2.673  0.00  0.00    +0.149 HD
BRANCH  26  30
ATOM     30  C   UNL     1      -6.388  -3.255   2.827  0.00  0.00    +0.109 C 
BRANCH  30  31
ATOM     31  C   UNL     1      -6.791  -1.786   2.970  0.00  0.00    +0.054 C 
BRANCH  31  36
ATOM     32  C   UNL     1      -3.913   0.096   4.536  0.00  0.00    +0.121 A 
ATOM     33  C   UNL     1      -3.284   0.618   3.415  0.00  0.00    +0.045 A 
ATOM     34  C   UNL     1      -3.792   0.360   2.157  0.00  0.00    +0.004 A 
ATOM     35  C   UNL     1      -4.926  -0.418   2.014  0.00  0.00    +0.004 A 
ATOM     36  C   UNL     1      -5.555  -0.939   3.129  0.00  0.00    -0.042 A 
ATOM     37  C   UNL     1      -5.048  -0.688   4.390  0.00  0.00    +0.049 A 
BRANCH  32  38
ATOM     38  O   UNL     1      -3.415   0.348   5.775  0.00  0.00    -0.492 OA
BRANCH  38  40
ATOM     39  C   UNL     1      -1.835   1.336   7.314  0.00  0.00    +0.048 C 
ATOM     40  C   UNL     1      -2.244   1.164   5.850  0.00  0.00    +0.225 C 
ENDBRANCH  38  40
ENDBRANCH  32  38
ENDBRANCH  31  36
ENDBRANCH  30  31
ENDBRANCH  26  30
ENDBRANCH   1  27
TORSDOF 8
