REMARK  Name = ZINC39664887
REMARK  12 active torsions:
REMARK  status: ('A' for Active; 'I' for Inactive)
REMARK    1  A    between atoms: C_1  and  N_2
REMARK    2  A    between atoms: N_2  and  C_3
REMARK    3  A    between atoms: N_2  and  C_4
REMARK    4  A    between atoms: C_4  and  C_5
REMARK    5  A    between atoms: C_5  and  C_7
REMARK    6  A    between atoms: C_5  and  N_13
REMARK    7  A    between atoms: C_14  and  C_16
REMARK    8  A    between atoms: C_27  and  C_29
REMARK    9  A    between atoms: C_29  and  C_30
REMARK   10  A    between atoms: C_30  and  C_31
REMARK   11  A    between atoms: C_34  and  O_37
REMARK   12  A    between atoms: O_37  and  C_38
REMARK                            x       y       z     vdW  Elec       q    Type
REMARK                         _______ _______ _______ _____ _____    ______ ____
ROOT
ATOM      1  C   UNL     1      -0.604   3.228  -2.763  0.00  0.00    +0.100 C 
ATOM      2  C   UNL     1      -1.801   3.688  -3.625  0.00  0.00    +0.121 C 
ATOM      3  N   UNL     1      -1.204   4.569  -4.656  0.00  0.00    -0.300 N 
ATOM      4  C   UNL     1       0.069   3.901  -5.019  0.00  0.00    +0.115 C 
ATOM      5  C   UNL     1       0.621   3.370  -3.682  0.00  0.00    -0.004 C 
ATOM      6  C   UNL     1       1.615   4.364  -3.088  0.00  0.00    -0.010 C 
ATOM      7  C   UNL     1       2.849   4.445  -3.990  0.00  0.00    -0.082 C 
ATOM      8  N   UNL     1       3.463   3.116  -4.102  0.00  0.00    +0.379 N 
ATOM      9  C   UNL     1       2.535   2.188  -4.758  0.00  0.00    -0.082 C 
ATOM     10  C   UNL     1       1.286   2.013  -3.889  0.00  0.00    -0.010 C 
ATOM     11  C   UNL     1      -1.705   5.718  -5.152  0.00  0.00    +0.216 C 
ATOM     12  O   UNL     1      -1.093   6.330  -6.000  0.00  0.00    -0.276 OA
ATOM     13  H   UNL     1       4.310   3.184  -4.646  0.00  0.00    -0.086 HD
ATOM     14  H   UNL     1       3.686   2.772  -3.180  0.00  0.00    -0.086 HD
ENDROOT
BRANCH   1  16
ATOM     15  N   UNL     1      -0.263   1.364  -1.174  0.00  0.00    -0.310 N 
ATOM     16  C   UNL     1      -0.781   1.792  -2.342  0.00  0.00    +0.219 C 
ATOM     17  O   UNL     1      -1.390   1.022  -3.054  0.00  0.00    -0.275 OA
ATOM     18  H   UNL     1       0.160   1.994  -0.571  0.00  0.00    +0.149 HD
BRANCH  15  19
ATOM     19  C   UNL     1      -0.339  -0.055  -0.815  0.00  0.00    +0.087 C 
BRANCH  19  20
ATOM     20  C   UNL     1      -0.181  -0.205   0.676  0.00  0.00    -0.029 A 
ATOM     21  C   UNL     1       0.734   0.577   1.356  0.00  0.00    +0.005 A 
ATOM     22  C   UNL     1       0.879   0.439   2.724  0.00  0.00    +0.000 A 
ATOM     23  C   UNL     1       0.109  -0.480   3.412  0.00  0.00    +0.000 A 
ATOM     24  C   UNL     1      -0.806  -1.262   2.731  0.00  0.00    +0.000 A 
ATOM     25  C   UNL     1      -0.954  -1.121   1.364  0.00  0.00    +0.005 A 
ENDBRANCH  19  20
BRANCH  19  26
ATOM     26  C   UNL     1       0.778  -0.821  -1.526  0.00  0.00    -0.052 C 
BRANCH  26  28
ATOM     27  C   UNL     1      -0.608  -2.743  -1.898  0.00  0.00    -0.097 C 
ATOM     28  N   UNL     1       0.627  -2.259  -1.268  0.00  0.00    +0.377 N 
ATOM     29  C   UNL     1       1.778  -2.981  -1.828  0.00  0.00    -0.097 C 
ATOM     30  H   UNL     1       0.582  -2.419  -0.273  0.00  0.00    -0.083 HD
ENDBRANCH  26  28
ENDBRANCH  19  26
ENDBRANCH  15  19
ENDBRANCH   1  16
BRANCH  11  31
ATOM     31  C   UNL     1      -3.027   6.241  -4.652  0.00  0.00    +0.100 C 
BRANCH  31  32
ATOM     32  C   UNL     1      -3.363   7.548  -5.371  0.00  0.00    +0.044 C 
BRANCH  32  33
ATOM     33  C   UNL     1      -4.685   8.072  -4.871  0.00  0.00    -0.047 A 
ATOM     34  C   UNL     1      -5.859   7.690  -5.495  0.00  0.00    +0.007 A 
ATOM     35  C   UNL     1      -7.072   8.168  -5.038  0.00  0.00    +0.046 A 
ATOM     36  C   UNL     1      -7.112   9.032  -3.954  0.00  0.00    +0.120 A 
ATOM     37  C   UNL     1      -5.933   9.413  -3.330  0.00  0.00    +0.046 A 
ATOM     38  C   UNL     1      -4.723   8.928  -3.787  0.00  0.00    +0.007 A 
BRANCH  36  39
ATOM     39  O   UNL     1      -8.304   9.505  -3.503  0.00  0.00    -0.495 OA
ATOM     40  C   UNL     1      -8.269  10.390  -2.382  0.00  0.00    +0.277 C 
ENDBRANCH  36  39
ENDBRANCH  32  33
ENDBRANCH  31  32
ENDBRANCH  11  31
TORSDOF 9
