REMARK  Name = ZINC09615017
REMARK  5 active torsions:
REMARK  status: ('A' for Active; 'I' for Inactive)
REMARK    1  A    between atoms: C_1  and  C_2
REMARK    2  A    between atoms: C_7  and  N_8
REMARK    3  A    between atoms: C_14  and  C_16
REMARK    4  A    between atoms: C_20  and  N_22
REMARK    5  A    between atoms: C_29  and  C_37
REMARK                            x       y       z     vdW  Elec       q    Type
REMARK                         _______ _______ _______ _____ _____    ______ ____
ROOT
ATOM      1  C   UNL     1       1.312  -0.524  -0.616  0.00  0.00    +0.039 A 
ATOM      2  C   UNL     1       2.453   0.104  -0.112  0.00  0.00    +0.013 A 
ATOM      3  C   UNL     1       2.357   1.358   0.455  0.00  0.00    +0.003 A 
ATOM      4  C   UNL     1       1.133   1.998   0.525  0.00  0.00    +0.024 A 
ATOM      5  C   UNL     1      -0.008   1.382   0.026  0.00  0.00    +0.042 A 
ATOM      6  C   UNL     1       0.078   0.121  -0.545  0.00  0.00    +0.036 A 
ENDROOT
BRANCH   5   7
ATOM      7  N   UNL     1      -1.244   2.036   0.095  0.00  0.00    -0.216 N 
ATOM      8  C   UNL     1      -1.545   2.955  -0.835  0.00  0.00    +0.310 C 
ATOM      9  O   UNL     1      -0.706   3.244  -1.666  0.00  0.00    -0.252 OA
ATOM     10  N   UNL     1      -2.740   3.567  -0.881  0.00  0.00    -0.292 N 
ATOM     11  C   UNL     1      -3.798   3.177   0.066  0.00  0.00    +0.114 C 
ATOM     12  C   UNL     1      -3.126   2.892   1.419  0.00  0.00    +0.096 C 
ATOM     13  C   UNL     1      -2.167   1.693   1.173  0.00  0.00    +0.185 C 
ATOM     14  O   UNL     1      -2.931   0.541   0.848  0.00  0.00    -0.468 OA
ATOM     15  C   UNL     1      -3.950   0.663  -0.041  0.00  0.00    +0.128 A 
ATOM     16  C   UNL     1      -4.418   1.899  -0.453  0.00  0.00    +0.015 A 
ATOM     17  C   UNL     1      -5.467   1.980  -1.351  0.00  0.00    +0.009 A 
ATOM     18  C   UNL     1      -6.048   0.827  -1.845  0.00  0.00    +0.001 A 
ATOM     19  C   UNL     1      -5.581  -0.409  -1.440  0.00  0.00    +0.004 A 
ATOM     20  C   UNL     1      -4.536  -0.494  -0.543  0.00  0.00    +0.046 A 
ATOM     21  C   UNL     1      -1.374   1.424   2.454  0.00  0.00    +0.079 C 
ATOM     22  H   UNL     1      -2.906   4.263  -1.536  0.00  0.00    +0.151 HD
ENDBRANCH   5   7
BRANCH   1  29
ATOM     23  N   UNL     1       3.193  -4.923   0.802  0.00  0.00    -0.327 N 
ATOM     24  C   UNL     1       2.312  -5.184  -0.344  0.00  0.00    +0.124 C 
ATOM     25  C   UNL     1       2.484  -4.069  -1.381  0.00  0.00    +0.127 C 
ATOM     26  N   UNL     1       2.271  -2.775  -0.715  0.00  0.00    -0.295 N 
ATOM     27  C   UNL     1       3.024  -2.494   0.517  0.00  0.00    +0.127 C 
ATOM     28  C   UNL     1       2.826  -3.674   1.482  0.00  0.00    +0.124 C 
ATOM     29  C   UNL     1       1.413  -1.868  -1.223  0.00  0.00    +0.247 C 
ATOM     30  O   UNL     1       0.721  -2.156  -2.180  0.00  0.00    -0.270 OA
BRANCH  23  37
ATOM     31  C   UNL     1       5.655  -6.251   1.318  0.00  0.00    +0.045 C 
ATOM     32  C   UNL     1       4.367  -6.676   1.974  0.00  0.00    -0.029 A 
ATOM     33  C   UNL     1       4.359  -7.737   2.859  0.00  0.00    +0.006 A 
ATOM     34  C   UNL     1       3.177  -8.131   3.458  0.00  0.00    +0.020 A 
ATOM     35  C   UNL     1       1.998  -7.461   3.177  0.00  0.00    +0.043 A 
ATOM     36  C   UNL     1       2.000  -6.396   2.296  0.00  0.00    +0.043 A 
ATOM     37  C   UNL     1       3.187  -5.998   1.693  0.00  0.00    +0.034 A 
ATOM     38 CL   UNL     1       0.516  -7.960   3.931  0.00  0.00    -0.083 Cl
ENDBRANCH  23  37
ENDBRANCH   1  29
TORSDOF 3
