REMARK  Name = ZINC01785335
REMARK  12 active torsions:
REMARK  status: ('A' for Active; 'I' for Inactive)
REMARK    1  A    between atoms: C_1  and  C_2
REMARK    2  A    between atoms: C_2  and  C_3
REMARK    3  A    between atoms: C_7  and  C_37
REMARK    4  A    between atoms: C_8  and  N_9
REMARK    5  A    between atoms: C_10  and  C_12
REMARK    6  A    between atoms: C_12  and  C_14
REMARK    7  A    between atoms: C_12  and  O_15
REMARK    8  A    between atoms: O_15  and  C_16
REMARK    9  A    between atoms: C_19  and  C_22
REMARK   10  A    between atoms: N_24  and  C_25
REMARK   11  A    between atoms: C_26  and  C_34
REMARK   12  A    between atoms: C_37  and  C_38
REMARK                            x       y       z     vdW  Elec       q    Type
REMARK                         _______ _______ _______ _____ _____    ______ ____
ROOT
ATOM      1  C   UNL     1       1.743  -0.405   0.162  0.00  0.00    +0.122 A 
ATOM      2  C   UNL     1       0.704  -0.717  -0.707  0.00  0.00    +0.046 A 
ATOM      3  C   UNL     1      -0.336   0.167  -0.884  0.00  0.00    +0.016 A 
ATOM      4  C   UNL     1      -0.346   1.380  -0.190  0.00  0.00    +0.037 A 
ATOM      5  C   UNL     1       0.700   1.690   0.683  0.00  0.00    +0.016 A 
ATOM      6  C   UNL     1       1.737   0.800   0.855  0.00  0.00    +0.046 A 
ENDROOT
BRANCH   4   7
ATOM      7  C   UNL     1      -1.456   2.333  -0.382  0.00  0.00    +0.249 C 
ATOM      8  O   UNL     1      -2.363   2.064  -1.146  0.00  0.00    -0.270 OA
ATOM      9  N   UNL     1      -1.464   3.502   0.289  0.00  0.00    -0.275 N 
ATOM     10  H   UNL     1      -0.741   3.716   0.898  0.00  0.00    +0.156 HD
BRANCH   9  11
ATOM     11  C   UNL     1      -2.506   4.397   0.108  0.00  0.00    +0.085 A 
ATOM     12  C   UNL     1      -2.693   5.635   0.707  0.00  0.00    +0.068 A 
ATOM     13  C   UNL     1      -3.880   6.387   0.338  0.00  0.00    -0.023 A 
ATOM     14  C   UNL     1      -4.691   5.780  -0.555  0.00  0.00    -0.004 A 
ATOM     15  S   UNL     1      -3.896   4.239  -0.914  0.00  0.00    -0.077 S 
ATOM     16  C   UNL     1      -5.978   6.308  -1.111  0.00  0.00    +0.043 C 
ATOM     17  C   UNL     1      -6.438   7.482  -0.236  0.00  0.00    +0.005 C 
ATOM     18  C   UNL     1      -5.252   8.426  -0.013  0.00  0.00    +0.005 C 
ATOM     19  C   UNL     1      -4.223   7.761   0.902  0.00  0.00    +0.037 C 
BRANCH  12  20
ATOM     20  C   UNL     1      -1.726   6.167   1.673  0.00  0.00    +0.244 C 
ATOM     21  O   UNL     1      -0.793   6.847   1.289  0.00  0.00    -0.270 OA
ATOM     22  N   UNL     1      -1.870   5.901   2.986  0.00  0.00    -0.325 N 
ATOM     23  H   UNL     1      -2.614   5.358   3.293  0.00  0.00    +0.145 HD
ATOM     24  H   UNL     1      -1.231   6.252   3.625  0.00  0.00    +0.145 HD
ENDBRANCH  12  20
ENDBRANCH   9  11
ENDBRANCH   4   7
BRANCH   1  25
ATOM     25  O   UNL     1       2.767  -1.279   0.334  0.00  0.00    -0.480 OA
BRANCH  25  26
ATOM     26  C   UNL     1       2.774  -2.442  -0.496  0.00  0.00    +0.256 C 
ATOM     27  C   UNL     1       1.881  -3.518   0.125  0.00  0.00    +0.062 C 
BRANCH  26  29
ATOM     28  N   UNL     1       4.448  -4.002  -1.436  0.00  0.00    -0.282 N 
ATOM     29  C   UNL     1       4.182  -2.965  -0.616  0.00  0.00    +0.258 C 
ATOM     30  O   UNL     1       5.076  -2.454   0.025  0.00  0.00    -0.271 OA
ATOM     31  H   UNL     1       3.751  -4.361  -2.006  0.00  0.00    +0.155 HD
BRANCH  28  37
ATOM     32  C   UNL     1       6.821  -3.778  -1.829  0.00  0.00    -0.026 A 
ATOM     33  C   UNL     1       8.087  -4.329  -1.852  0.00  0.00    +0.005 A 
ATOM     34  C   UNL     1       8.269  -5.660  -1.523  0.00  0.00    +0.001 A 
ATOM     35  C   UNL     1       7.186  -6.442  -1.167  0.00  0.00    +0.005 A 
ATOM     36  C   UNL     1       5.918  -5.895  -1.136  0.00  0.00    -0.026 A 
ATOM     37  C   UNL     1       5.732  -4.559  -1.465  0.00  0.00    +0.040 A 
BRANCH  32  39
ATOM     38  C   UNL     1       7.192  -1.442  -1.083  0.00  0.00    +0.009 C 
ATOM     39  C   UNL     1       6.623  -2.329  -2.192  0.00  0.00    +0.033 C 
ENDBRANCH  32  39
BRANCH  36  40
ATOM     40  C   UNL     1       4.737  -6.747  -0.747  0.00  0.00    +0.033 C 
ATOM     41  C   UNL     1       4.072  -7.303  -2.008  0.00  0.00    +0.009 C 
ENDBRANCH  36  40
ENDBRANCH  28  37
ENDBRANCH  26  29
ENDBRANCH  25  26
ENDBRANCH   1  25
TORSDOF 9
