REMARK  Name = ZINC40823595
REMARK  10 active torsions:
REMARK  status: ('A' for Active; 'I' for Inactive)
REMARK    1  A    between atoms: C_1  and  C_2
REMARK    2  A    between atoms: C_6  and  C_7
REMARK    3  A    between atoms: N_9  and  C_10
REMARK    4  A    between atoms: C_12  and  C_18
REMARK    5  A    between atoms: C_12  and  C_19
REMARK    6  A    between atoms: C_14  and  C_16
REMARK    7  A    between atoms: C_14  and  C_17
REMARK    8  A    between atoms: N_24  and  N_25
REMARK    9  A    between atoms: C_26  and  C_28
REMARK   10  A    between atoms: C_32  and  C_33
REMARK                            x       y       z     vdW  Elec       q    Type
REMARK                         _______ _______ _______ _____ _____    ______ ____
ROOT
ATOM      1  C   UNL     1       0.425   1.686   0.009  0.00  0.00    +0.048 C 
ATOM      2  C   UNL     1       0.339   0.181   0.012  0.00  0.00    +0.009 A 
ATOM      3  C   UNL     1       0.279  -0.659  -1.107  0.00  0.00    +0.042 A 
ATOM      4  C   UNL     1       0.208  -1.953  -0.647  0.00  0.00    +0.115 A 
ATOM      5  O   UNL     1       0.227  -1.919   0.683  0.00  0.00    -0.454 OA
ATOM      6  C   UNL     1       0.310  -0.637   1.107  0.00  0.00    +0.193 A 
ATOM      7  C   UNL     1       0.124  -3.146  -1.565  0.00  0.00    +0.075 C 
ATOM      8  C   UNL     1      -0.379  -2.695  -2.940  0.00  0.00    +0.014 C 
ATOM      9  C   UNL     1       0.473  -1.539  -3.474  0.00  0.00    +0.058 C 
ATOM     10  C   UNL     1       0.284  -0.343  -2.552  0.00  0.00    +0.070 C 
ATOM     11  N   UNL     1       0.139   0.866  -3.001  0.00  0.00    -0.184 NA
ENDROOT
BRANCH   6  12
ATOM     12  C   UNL     1       0.358  -0.198   2.506  0.00  0.00    +0.280 C 
ATOM     13  O   UNL     1       0.430   0.988   2.770  0.00  0.00    -0.267 OA
ATOM     14  N   UNL     1       0.322  -1.109   3.499  0.00  0.00    -0.306 N 
ATOM     15  H   UNL     1       0.265  -2.054   3.289  0.00  0.00    +0.149 HD
BRANCH  14  16
ATOM     16  C   UNL     1       0.370  -0.669   4.900  0.00  0.00    +0.071 C 
ATOM     17  C   UNL     1       1.831  -0.523   5.331  0.00  0.00    +0.009 C 
ATOM     18  C   UNL     1       1.898  -0.078   6.791  0.00  0.00    -0.072 C 
ATOM     19  N   UNL     1       1.143  -0.961   7.668  0.00  0.00    +0.386 N 
ATOM     20  C   UNL     1      -0.199  -1.338   7.254  0.00  0.00    -0.072 C 
ATOM     21  C   UNL     1      -0.287  -1.730   5.783  0.00  0.00    +0.009 C 
ATOM     22  C   UNL     1      -1.218  -0.238   7.564  0.00  0.00    -0.010 C 
ATOM     23  C   UNL     1      -0.609  -2.578   8.084  0.00  0.00    -0.010 C 
ATOM     24  C   UNL     1       1.456   1.379   6.921  0.00  0.00    -0.010 C 
ATOM     25  C   UNL     1       3.381  -0.147   7.224  0.00  0.00    -0.010 C 
ATOM     26  H   UNL     1       1.688  -1.815   7.811  0.00  0.00    -0.084 HD
ATOM     27  H   UNL     1       1.085  -0.523   8.591  0.00  0.00    -0.084 HD
ENDBRANCH  14  16
ENDBRANCH   6  12
BRANCH  11  28
ATOM     28  N   UNL     1       0.152   1.107  -4.381  0.00  0.00    -0.203 N 
ATOM     29  C   UNL     1       0.001   2.362  -4.848  0.00  0.00    +0.267 C 
ATOM     30  O   UNL     1      -0.147   3.286  -4.070  0.00  0.00    -0.268 OA
ATOM     31  H   UNL     1       0.270   0.370  -5.001  0.00  0.00    +0.178 HD
BRANCH  29  32
ATOM     32  C   UNL     1       0.015   2.616  -6.299  0.00  0.00    +0.079 A 
ATOM     33  C   UNL     1       0.175   1.624  -7.373  0.00  0.00    +0.054 A 
ATOM     34  C   UNL     1       0.124   2.314  -8.523  0.00  0.00    +0.196 A 
ATOM     35  O   UNL     1      -0.050   3.616  -8.247  0.00  0.00    -0.467 OA
ATOM     36  C   UNL     1      -0.124   3.818  -6.928  0.00  0.00    +0.114 A 
ATOM     37  C   UNL     1      -0.324   5.149  -6.250  0.00  0.00    +0.087 C 
ENDBRANCH  29  32
ENDBRANCH  11  28
TORSDOF 4
