REMARK  Name = ZINC39680928
REMARK  6 active torsions:
REMARK  status: ('A' for Active; 'I' for Inactive)
REMARK    1  A    between atoms: C_1  and  C_2
REMARK    2  A    between atoms: C_2  and  C_4
REMARK    3  A    between atoms: C_2  and  N_10
REMARK    4  A    between atoms: C_11  and  C_13
REMARK    5  A    between atoms: C_24  and  C_26
REMARK    6  A    between atoms: C_26  and  C_32
REMARK                            x       y       z     vdW  Elec       q    Type
REMARK                         _______ _______ _______ _____ _____    ______ ____
ROOT
ATOM      1  C   UNL     1       2.792  -1.123   2.398  0.00  0.00    +0.100 C 
ATOM      2  C   UNL     1       2.677  -0.092   3.543  0.00  0.00    +0.121 C 
ATOM      3  N   UNL     1       3.999  -0.127   4.212  0.00  0.00    -0.300 N 
ATOM      4  C   UNL     1       4.971  -0.257   3.101  0.00  0.00    +0.115 C 
ATOM      5  C   UNL     1       4.299  -1.228   2.111  0.00  0.00    -0.004 C 
ATOM      6  C   UNL     1       4.594  -0.804   0.675  0.00  0.00    -0.010 C 
ATOM      7  C   UNL     1       6.090  -0.972   0.395  0.00  0.00    -0.082 C 
ATOM      8  N   UNL     1       6.474  -2.374   0.601  0.00  0.00    +0.379 N 
ATOM      9  C   UNL     1       6.275  -2.746   2.007  0.00  0.00    -0.082 C 
ATOM     10  C   UNL     1       4.786  -2.653   2.356  0.00  0.00    -0.010 C 
ATOM     11  C   UNL     1       4.258  -0.057   5.533  0.00  0.00    +0.222 C 
ATOM     12  O   UNL     1       5.405  -0.014   5.925  0.00  0.00    -0.275 OA
ATOM     13  H   UNL     1       5.907  -2.967   0.014  0.00  0.00    -0.086 HD
ATOM     14  H   UNL     1       7.446  -2.494   0.358  0.00  0.00    -0.086 HD
ENDROOT
BRANCH  11  15
ATOM     15  C   UNL     1       3.122  -0.030   6.523  0.00  0.00    +0.044 C 
ATOM     16  C   UNL     1       2.175   1.122   6.183  0.00  0.00    +0.016 C 
ATOM     17  C   UNL     1       2.938   2.446   6.248  0.00  0.00    +0.001 C 
ATOM     18  C   UNL     1       3.496   2.644   7.659  0.00  0.00    +0.000 C 
ATOM     19  C   UNL     1       4.444   1.492   7.999  0.00  0.00    +0.001 C 
ATOM     20  C   UNL     1       3.680   0.168   7.934  0.00  0.00    +0.016 C 
ATOM     21  C   UNL     1       2.358  -1.355   6.458  0.00  0.00    +0.021 C 
ENDBRANCH  11  15
BRANCH   1  23
ATOM     22  N   UNL     1       1.671  -1.512   0.228  0.00  0.00    -0.308 N 
ATOM     23  C   UNL     1       2.057  -0.636   1.176  0.00  0.00    +0.219 C 
ATOM     24  O   UNL     1       1.813   0.545   1.047  0.00  0.00    -0.275 OA
ATOM     25  H   UNL     1       1.866  -2.456   0.331  0.00  0.00    +0.149 HD
BRANCH  22  27
ATOM     26  C   UNL     1      -0.538  -0.938  -0.651  0.00  0.00    +0.033 C 
ATOM     27  C   UNL     1       0.957  -1.037  -0.960  0.00  0.00    +0.100 C 
BRANCH  27  28
ATOM     28  C   UNL     1       1.172  -2.005  -2.095  0.00  0.00    -0.025 A 
ATOM     29  C   UNL     1       1.165  -3.373  -1.873  0.00  0.00    +0.025 A 
ATOM     30  C   UNL     1       1.365  -4.230  -2.938  0.00  0.00    +0.111 A 
ATOM     31  N   UNL     1       1.563  -3.760  -4.154  0.00  0.00    -0.263 NA
ATOM     32  C   UNL     1       1.576  -2.465  -4.403  0.00  0.00    +0.111 A 
ATOM     33  C   UNL     1       1.376  -1.548  -3.389  0.00  0.00    +0.025 A 
ENDBRANCH  27  28
ENDBRANCH  22  27
ENDBRANCH   1  23
TORSDOF 4
