REMARK  Name = ZINC55596490
REMARK  10 active torsions:
REMARK  status: ('A' for Active; 'I' for Inactive)
REMARK    1  A    between atoms: C_1  and  C_2
REMARK    2  A    between atoms: C_5  and  S_22
REMARK    3  A    between atoms: C_7  and  N_8
REMARK    4  A    between atoms: N_8  and  S_9
REMARK    5  A    between atoms: S_9  and  C_12
REMARK    6  A    between atoms: C_15  and  C_18
REMARK    7  A    between atoms: C_18  and  C_19
REMARK    8  A    between atoms: C_19  and  C_20
REMARK    9  A    between atoms: C_19  and  C_21
REMARK   10  A    between atoms: S_22  and  N_25
REMARK                            x       y       z     vdW  Elec       q    Type
REMARK                         _______ _______ _______ _____ _____    ______ ____
ROOT
ATOM      1  N   UNL     1       0.025  -0.016   2.415  0.00  0.00    -0.216 N 
ATOM      2  H   UNL     1      -0.522   0.779   2.511  0.00  0.00    +0.174 HD
ENDROOT
BRANCH   1   9
ATOM      3  C   UNL     1       0.153   1.691   0.143  0.00  0.00    +0.046 C 
ATOM      4  C   UNL     1       0.258   0.193   0.022  0.00  0.00    -0.028 A 
ATOM      5  C   UNL     1       0.426  -0.391  -1.218  0.00  0.00    +0.007 A 
ATOM      6  C   UNL     1       0.522  -1.766  -1.331  0.00  0.00    +0.029 A 
ATOM      7  C   UNL     1       0.450  -2.561  -0.202  0.00  0.00    +0.107 A 
ATOM      8  C   UNL     1       0.281  -1.985   1.042  0.00  0.00    +0.053 A 
ATOM      9  C   UNL     1       0.190  -0.603   1.159  0.00  0.00    +0.053 A 
BRANCH   7  10
ATOM     10  S   UNL     1       0.572  -4.313  -0.350  0.00  0.00    +0.056 S 
ATOM     11  O   UNL     1      -0.072  -4.863   0.791  0.00  0.00    -0.153 OA
ATOM     12  O   UNL     1       0.178  -4.636  -1.677  0.00  0.00    -0.153 OA
BRANCH  10  13
ATOM     13  N   UNL     1       2.176  -4.704  -0.224  0.00  0.00    -0.204 NA
ATOM     14  H   UNL     1       2.837  -4.006  -0.092  0.00  0.00    +0.144 HD
ATOM     15  H   UNL     1       2.455  -5.631  -0.281  0.00  0.00    +0.144 HD
ENDBRANCH  10  13
ENDBRANCH   7  10
ENDBRANCH   1   9
BRANCH   1  16
ATOM     16  S   UNL     1       0.764  -0.678   3.741  0.00  0.00    +0.072 S 
ATOM     17  O   UNL     1       0.519   0.207   4.826  0.00  0.00    -0.150 OA
ATOM     18  O   UNL     1       0.387  -2.047   3.775  0.00  0.00    -0.150 OA
BRANCH  16  19
ATOM     19  C   UNL     1       2.500  -0.640   3.443  0.00  0.00    +0.109 A 
ATOM     20  C   UNL     1       3.117  -1.707   2.816  0.00  0.00    +0.029 A 
ATOM     21  C   UNL     1       4.479  -1.678   2.583  0.00  0.00    +0.005 A 
ATOM     22  C   UNL     1       5.224  -0.582   2.975  0.00  0.00    -0.047 A 
ATOM     23  C   UNL     1       4.607   0.485   3.602  0.00  0.00    +0.005 A 
ATOM     24  C   UNL     1       3.244   0.458   3.832  0.00  0.00    +0.029 A 
BRANCH  22  25
ATOM     25  C   UNL     1       6.709  -0.550   2.722  0.00  0.00    +0.038 C 
BRANCH  25  26
ATOM     26  C   UNL     1       6.979   0.078   1.353  0.00  0.00    -0.013 C 
ATOM     27  C   UNL     1       6.540   1.544   1.369  0.00  0.00    +0.007 C 
ATOM     28  C   UNL     1       8.475  -0.003   1.041  0.00  0.00    +0.007 C 
ENDBRANCH  25  26
ENDBRANCH  22  25
ENDBRANCH  16  19
ENDBRANCH   1  16
TORSDOF 7
