REMARK  Name = ZINC40713719
REMARK  2 active torsions:
REMARK  status: ('A' for Active; 'I' for Inactive)
REMARK    1  A    between atoms: C_4  and  N_8
REMARK    2  A    between atoms: C_10  and  N_16
REMARK                            x       y       z     vdW  Elec       q    Type
REMARK                         _______ _______ _______ _____ _____    ______ ____
ROOT
ATOM      1  N   UNL     1       3.622  -0.653  -0.037  0.00  0.00    -0.296 N 
ATOM      2  C   UNL     1       3.645  -2.043   0.060  0.00  0.00    +0.144 A 
ATOM      3  C   UNL     1       4.869  -2.711   0.155  0.00  0.00    +0.066 A 
ATOM      4  C   UNL     1       4.875  -4.095   0.252  0.00  0.00    +0.043 A 
ATOM      5  C   UNL     1       3.656  -4.763   0.251  0.00  0.00    +0.038 A 
ATOM      6  C   UNL     1       2.486  -4.037   0.154  0.00  0.00    +0.128 A 
ATOM      7  N   UNL     1       2.509  -2.719   0.068  0.00  0.00    -0.237 NA
ATOM      8 BR   UNL     1       3.601  -6.649   0.380  0.00  0.00    -0.049 Br
ATOM      9  H   UNL     1       4.444  -0.146   0.054  0.00  0.00    +0.154 HD
ENDROOT
BRANCH   1  13
ATOM     10  C   UNL     1       0.020   1.329  -0.721  0.00  0.00    +0.023 A 
ATOM     11  C   UNL     1       1.035   1.964  -0.028  0.00  0.00    +0.041 A 
ATOM     12  C   UNL     1       2.231   1.310   0.200  0.00  0.00    +0.145 A 
ATOM     13  C   UNL     1       2.413   0.012  -0.266  0.00  0.00    +0.069 A 
ATOM     14  C   UNL     1       1.391  -0.622  -0.960  0.00  0.00    +0.046 A 
ATOM     15  C   UNL     1       0.197   0.038  -1.186  0.00  0.00    +0.043 A 
ATOM     16 CL   UNL     1      -1.081  -0.754  -2.054  0.00  0.00    -0.083 Cl
ATOM     17  F   UNL     1       3.223   1.931   0.876  0.00  0.00    -0.204 F 
ENDBRANCH   1  13
BRANCH   3  18
ATOM     18  N   UNL     1       6.072  -1.994   0.152  0.00  0.00    -0.355 N 
ATOM     19  H   UNL     1       6.060  -1.026   0.083  0.00  0.00    +0.142 HD
ATOM     20  H   UNL     1       6.917  -2.465   0.218  0.00  0.00    +0.142 HD
ENDBRANCH   3  18
TORSDOF 2
