REMARK  Name = ZINC57005855
REMARK  8 active torsions:
REMARK  status: ('A' for Active; 'I' for Inactive)
REMARK    1  A    between atoms: C_1  and  C_2
REMARK    2  A    between atoms: C_2  and  C_4
REMARK    3  A    between atoms: C_2  and  N_15
REMARK    4  A    between atoms: C_7  and  S_10
REMARK    5  A    between atoms: S_10  and  N_13
REMARK    6  A    between atoms: N_13  and  C_14
REMARK    7  A    between atoms: N_18  and  C_19
REMARK    8  A    between atoms: C_28  and  O_30
REMARK                            x       y       z     vdW  Elec       q    Type
REMARK                         _______ _______ _______ _____ _____    ______ ____
ROOT
ATOM      1  N   UNL     1      -1.372  -0.511   0.012  0.00  0.00    -0.293 N 
ATOM      2  C   UNL     1      -2.051  -0.643  -1.145  0.00  0.00    +0.301 C 
ATOM      3  O   UNL     1      -1.522  -0.341  -2.197  0.00  0.00    -0.253 OA
ATOM      4  N   UNL     1      -3.315  -1.109  -1.135  0.00  0.00    -0.290 N 
ATOM      5  H   UNL     1      -1.794  -0.752   0.852  0.00  0.00    +0.151 HD
ATOM      6  H   UNL     1      -3.737  -1.350  -0.295  0.00  0.00    +0.151 HD
ENDROOT
BRANCH   4   7
ATOM      7  C   UNL     1      -4.053  -1.252  -2.393  0.00  0.00    +0.134 C 
ATOM      8  C   UNL     1      -4.761   0.041  -2.736  0.00  0.00    -0.021 A 
ATOM      9  C   UNL     1      -4.272   1.214  -3.284  0.00  0.00    +0.006 A 
ATOM     10  C   UNL     1      -5.118   2.281  -3.512  0.00  0.00    +0.000 A 
ATOM     11  C   UNL     1      -6.459   2.179  -3.192  0.00  0.00    +0.000 A 
ATOM     12  C   UNL     1      -6.950   1.009  -2.645  0.00  0.00    +0.004 A 
ATOM     13  C   UNL     1      -6.102  -0.062  -2.416  0.00  0.00    -0.040 A 
ATOM     14  C   UNL     1      -6.386  -1.431  -1.836  0.00  0.00    +0.069 C 
ATOM     15  C   UNL     1      -5.174  -2.302  -2.240  0.00  0.00    +0.143 C 
BRANCH  15  16
ATOM     16  O   UNL     1      -4.855  -3.240  -1.210  0.00  0.00    -0.389 OA
ATOM     17  H   UNL     1      -5.528  -3.920  -1.075  0.00  0.00    +0.210 HD
ENDBRANCH  15  16
ENDBRANCH   4   7
BRANCH   1  19
ATOM     18  C   UNL     1      -0.019   1.526   0.010  0.00  0.00    +0.033 C 
ATOM     19  C   UNL     1       0.002  -0.004   0.002  0.00  0.00    +0.102 C 
BRANCH  19  20
ATOM     20  C   UNL     1       0.731  -0.503   1.223  0.00  0.00    -0.027 A 
ATOM     21  C   UNL     1       0.081  -0.558   2.442  0.00  0.00    +0.007 A 
ATOM     22  C   UNL     1       0.749  -1.016   3.562  0.00  0.00    +0.029 A 
ATOM     23  C   UNL     1       2.068  -1.420   3.463  0.00  0.00    +0.105 A 
ATOM     24  C   UNL     1       2.718  -1.365   2.244  0.00  0.00    +0.029 A 
ATOM     25  C   UNL     1       2.048  -0.911   1.123  0.00  0.00    +0.007 A 
BRANCH  23  26
ATOM     26  S   UNL     1       2.921  -2.002   4.890  0.00  0.00    +0.058 S 
ATOM     27  O   UNL     1       4.306  -1.804   4.645  0.00  0.00    -0.153 OA
ATOM     28  O   UNL     1       2.259  -1.441   6.016  0.00  0.00    -0.153 OA
BRANCH  26  29
ATOM     29  N   UNL     1       2.683  -3.639   4.969  0.00  0.00    -0.193 NA
ATOM     30  C   UNL     1       3.227  -4.509   3.924  0.00  0.00    +0.127 C 
ATOM     31  H   UNL     1       2.183  -4.022   5.707  0.00  0.00    +0.148 HD
ENDBRANCH  26  29
ENDBRANCH  23  26
ENDBRANCH  19  20
ENDBRANCH   1  19
TORSDOF 6
