REMARK  Name = ZINC18106694
REMARK  7 active torsions:
REMARK  status: ('A' for Active; 'I' for Inactive)
REMARK    1  A    between atoms: C_1  and  C_2
REMARK    2  A    between atoms: C_2  and  C_3
REMARK    3  A    between atoms: C_10  and  N_24
REMARK    4  A    between atoms: C_11  and  C_22
REMARK    5  A    between atoms: C_12  and  C_14
REMARK    6  A    between atoms: C_17  and  O_21
REMARK    7  A    between atoms: C_18  and  O_20
REMARK                            x       y       z     vdW  Elec       q    Type
REMARK                         _______ _______ _______ _____ _____    ______ ____
ROOT
ATOM      1  C   UNL     1      -1.412  -0.526   0.013  0.00  0.00    +0.070 A 
ATOM      2  C   UNL     1      -2.168  -0.809   1.142  0.00  0.00    +0.049 A 
ATOM      3  C   UNL     1      -3.391  -1.259   0.731  0.00  0.00    +0.222 A 
ATOM      4  N   UNL     1      -3.395  -1.255  -0.611  0.00  0.00    -0.246 N 
ATOM      5  H   UNL     1      -4.132  -1.524  -1.181  0.00  0.00    +0.192 HD
ATOM      6  N   UNL     1      -2.145  -0.786  -1.044  0.00  0.00    -0.176 NA
ATOM      7  O   UNL     1      -4.366  -1.626   1.600  0.00  0.00    -0.423 OA
ATOM      8  C   UNL     1      -4.019  -1.800   2.891  0.00  0.00    +0.200 C 
ATOM      9  C   UNL     1      -2.844  -1.387   3.417  0.00  0.00    +0.098 C 
ATOM     10  C   UNL     1      -1.797  -0.675   2.597  0.00  0.00    +0.101 C 
ENDROOT
BRANCH  10  11
ATOM     11  C   UNL     1      -1.753   0.782   2.979  0.00  0.00    -0.031 A 
ATOM     12  C   UNL     1      -2.889   1.561   2.859  0.00  0.00    +0.008 A 
ATOM     13  C   UNL     1      -2.853   2.898   3.208  0.00  0.00    +0.049 A 
ATOM     14  C   UNL     1      -1.678   3.460   3.680  0.00  0.00    +0.158 A 
ATOM     15  C   UNL     1      -0.535   2.676   3.801  0.00  0.00    +0.159 A 
ATOM     16  C   UNL     1      -0.578   1.335   3.454  0.00  0.00    +0.053 A 
BRANCH  15  17
ATOM     17  O   UNL     1       0.621   3.223   4.264  0.00  0.00    -0.503 OA
ATOM     18  H   UNL     1       0.724   3.171   5.224  0.00  0.00    +0.292 HD
ENDBRANCH  15  17
BRANCH  14  19
ATOM     19  O   UNL     1      -1.641   4.775   4.023  0.00  0.00    -0.503 OA
ATOM     20  H   UNL     1      -1.863   4.946   4.949  0.00  0.00    +0.292 HD
ENDBRANCH  14  19
ENDBRANCH  10  11
BRANCH   8  21
ATOM     21  N   UNL     1      -4.911  -2.434   3.720  0.00  0.00    -0.328 N 
ATOM     22  H   UNL     1      -5.762  -2.742   3.372  0.00  0.00    +0.145 HD
ATOM     23  H   UNL     1      -4.689  -2.573   4.654  0.00  0.00    +0.145 HD
ENDBRANCH   8  21
BRANCH   1  25
ATOM     24  C   UNL     1      -0.019   1.526   0.010  0.00  0.00    +0.010 C 
ATOM     25  C   UNL     1       0.002  -0.004   0.002  0.00  0.00    +0.054 C 
ENDBRANCH   1  25
BRANCH   9  26
ATOM     26  C   UNL     1      -2.585  -1.632   4.803  0.00  0.00    +0.101 C 
ATOM     27  N   UNL     1      -2.379  -1.827   5.904  0.00  0.00    -0.191 NA
ENDBRANCH   9  26
TORSDOF 6
