REMARK  Name = ZINC63694624
REMARK  10 active torsions:
REMARK  status: ('A' for Active; 'I' for Inactive)
REMARK    1  A    between atoms: C_1  and  C_2
REMARK    2  A    between atoms: C_2  and  C_3
REMARK    3  A    between atoms: C_3  and  C_4
REMARK    4  A    between atoms: C_4  and  C_5
REMARK    5  A    between atoms: C_4  and  N_24
REMARK    6  A    between atoms: N_7  and  C_8
REMARK    7  A    between atoms: C_8  and  C_9
REMARK    8  A    between atoms: C_8  and  C_10
REMARK    9  A    between atoms: C_13  and  O_17
REMARK   10  A    between atoms: O_17  and  C_18
REMARK                            x       y       z     vdW  Elec       q    Type
REMARK                         _______ _______ _______ _____ _____    ______ ____
ROOT
ATOM      1  C   UNL     1       0.559  -3.469  -4.368  0.00  0.00    +0.100 C 
ATOM      2  C   UNL     1       1.633  -2.379  -4.363  0.00  0.00    +0.033 C 
ENDROOT
BRANCH   1   3
ATOM      3  C   UNL     1      -0.309  -3.313  -5.590  0.00  0.00    -0.025 A 
ATOM      4  C   UNL     1      -1.314  -2.363  -5.607  0.00  0.00    +0.009 A 
ATOM      5  C   UNL     1      -2.111  -2.217  -6.726  0.00  0.00    +0.049 A 
ATOM      6  C   UNL     1      -1.904  -3.024  -7.834  0.00  0.00    +0.163 A 
ATOM      7  C   UNL     1      -0.895  -3.978  -7.816  0.00  0.00    +0.166 A 
ATOM      8  C   UNL     1      -0.096  -4.116  -6.695  0.00  0.00    +0.047 A 
ATOM      9  F   UNL     1      -0.690  -4.767  -8.894  0.00  0.00    -0.202 F 
BRANCH   6  10
ATOM     10  O   UNL     1      -2.688  -2.883  -8.936  0.00  0.00    -0.453 OA
BRANCH  10  11
ATOM     11  C   UNL     1      -3.658  -1.932  -8.911  0.00  0.00    +0.129 A 
ATOM     12  C   UNL     1      -3.380  -0.644  -9.346  0.00  0.00    +0.046 A 
ATOM     13  C   UNL     1      -4.368   0.321  -9.320  0.00  0.00    +0.004 A 
ATOM     14  C   UNL     1      -5.633   0.005  -8.860  0.00  0.00    +0.000 A 
ATOM     15  C   UNL     1      -5.913  -1.278  -8.425  0.00  0.00    +0.004 A 
ATOM     16  C   UNL     1      -4.930  -2.248  -8.454  0.00  0.00    +0.046 A 
ENDBRANCH  10  11
ENDBRANCH   6  10
ENDBRANCH   1   3
BRANCH   1  19
ATOM     17  C   UNL     1       0.130  -3.924  -2.013  0.00  0.00    +0.234 C 
ATOM     18  O   UNL     1       1.171  -4.545  -1.974  0.00  0.00    -0.274 OA
ATOM     19  N   UNL     1      -0.267  -3.346  -3.164  0.00  0.00    -0.307 N 
ATOM     20  H   UNL     1      -1.100  -2.849  -3.196  0.00  0.00    +0.149 HD
BRANCH  17  21
ATOM     21  C   UNL     1      -0.719  -3.798  -0.775  0.00  0.00    +0.160 C 
BRANCH  21  22
ATOM     22  N   UNL     1      -0.075  -4.508   0.333  0.00  0.00    -0.288 N 
ATOM     23  C   UNL     1      -0.817  -4.971   1.359  0.00  0.00    +0.298 C 
ATOM     24  O   UNL     1      -2.021  -4.801   1.364  0.00  0.00    -0.253 OA
ATOM     25  N   UNL     1      -0.224  -5.624   2.378  0.00  0.00    -0.313 N 
ATOM     26  H   UNL     1       0.885  -4.644   0.329  0.00  0.00    +0.151 HD
ATOM     27  H   UNL     1       0.736  -5.760   2.374  0.00  0.00    +0.146 HD
ATOM     28  H   UNL     1      -0.758  -5.958   3.116  0.00  0.00    +0.146 HD
ENDBRANCH  21  22
BRANCH  21  29
ATOM     29  C   UNL     1      -0.876  -2.320  -0.412  0.00  0.00    +0.031 C 
BRANCH  29  31
ATOM     30  C   UNL     1      -1.995  -0.707   1.133  0.00  0.00    +0.004 C 
ATOM     31  C   UNL     1      -1.838  -2.184   0.770  0.00  0.00    -0.001 C 
ENDBRANCH  29  31
ENDBRANCH  21  29
ENDBRANCH  17  21
ENDBRANCH   1  19
TORSDOF 8
