REMARK  Name = ZINC04545475
REMARK  4 active torsions:
REMARK  status: ('A' for Active; 'I' for Inactive)
REMARK    1  A    between atoms: C_1  and  C_2
REMARK    2  A    between atoms: C_2  and  C_3
REMARK    3  A    between atoms: C_12  and  O_27
REMARK    4  A    between atoms: C_14  and  C_17
REMARK                            x       y       z     vdW  Elec       q    Type
REMARK                         _______ _______ _______ _____ _____    ______ ____
ROOT
ATOM      1  C   UNL     1       0.718  -0.497  -1.257  0.00  0.00    -0.006 C 
ATOM      2  C   UNL     1       0.845  -2.023  -1.210  0.00  0.00    +0.008 C 
ATOM      3  C   UNL     1       1.769  -2.503  -2.332  0.00  0.00    +0.037 C 
ATOM      4  C   UNL     1       1.284  -1.916  -3.650  0.00  0.00    -0.023 A 
ATOM      5  C   UNL     1       0.454  -0.848  -3.676  0.00  0.00    -0.004 A 
ATOM      6  S   UNL     1       0.174  -0.536  -5.398  0.00  0.00    -0.078 S 
ATOM      7  C   UNL     1       1.103  -1.744  -6.050  0.00  0.00    +0.080 A 
ATOM      8  C   UNL     1       1.650  -2.427  -4.958  0.00  0.00    +0.068 A 
ATOM      9  C   UNL     1       2.530  -3.589  -5.247  0.00  0.00    +0.220 C 
ATOM     10  N   UNL     1       2.937  -3.750  -6.477  0.00  0.00    -0.223 NA
ATOM     11  C   UNL     1       2.641  -2.834  -7.571  0.00  0.00    +0.225 C 
ATOM     12  N   UNL     1       1.375  -2.112  -7.349  0.00  0.00    -0.313 N 
ATOM     13  C   UNL     1      -0.094  -0.102  -2.499  0.00  0.00    +0.046 C 
ATOM     14  H   UNL     1       0.768  -1.907  -8.077  0.00  0.00    +0.149 HD
ENDROOT
BRANCH  11  15
ATOM     15  C   UNL     1       3.762  -1.833  -7.691  0.00  0.00    +0.017 A 
ATOM     16  C   UNL     1       5.028  -2.158  -7.241  0.00  0.00    +0.058 A 
ATOM     17  C   UNL     1       6.060  -1.241  -7.350  0.00  0.00    +0.167 A 
ATOM     18  C   UNL     1       5.818   0.010  -7.915  0.00  0.00    +0.168 A 
ATOM     19  C   UNL     1       4.548   0.329  -8.365  0.00  0.00    +0.070 A 
ATOM     20  C   UNL     1       3.523  -0.594  -8.256  0.00  0.00    +0.051 A 
ATOM     21 CL   UNL     1       1.933  -0.194  -8.826  0.00  0.00    -0.083 Cl
ATOM     22  O   UNL     1       6.982   0.723  -7.908  0.00  0.00    -0.453 OA
ATOM     23  C   UNL     1       7.839   0.053  -6.965  0.00  0.00    +0.466 C 
ATOM     24  O   UNL     1       7.375  -1.310  -6.990  0.00  0.00    -0.453 OA
ENDBRANCH  11  15
BRANCH   1  26
ATOM     25  C   UNL     1      -0.019   1.526   0.010  0.00  0.00    +0.004 C 
ATOM     26  C   UNL     1       0.002  -0.004   0.002  0.00  0.00    +0.000 C 
ENDBRANCH   1  26
BRANCH   9  27
ATOM     27  O   UNL     1       2.896  -4.451  -4.270  0.00  0.00    -0.492 OA
ATOM     28  H   UNL     1       3.468  -5.169  -4.572  0.00  0.00    +0.294 HD
ENDBRANCH   9  27
TORSDOF 3
