REMARK  Name = ZINC50132417
REMARK  4 active torsions:
REMARK  status: ('A' for Active; 'I' for Inactive)
REMARK    1  A    between atoms: C_1  and  C_2
REMARK    2  A    between atoms: C_2  and  C_4
REMARK    3  A    between atoms: C_2  and  N_14
REMARK    4  A    between atoms: C_4  and  C_6
REMARK                            x       y       z     vdW  Elec       q    Type
REMARK                         _______ _______ _______ _____ _____    ______ ____
ROOT
ATOM      1  C   UNL     1      -0.019   1.526   0.010  0.00  0.00    +0.032 C 
ATOM      2  C   UNL     1       0.002  -0.004   0.002  0.00  0.00    +0.125 C 
ENDROOT
BRANCH   2   3
ATOM      3  N   UNL     1       0.690  -0.478  -1.207  0.00  0.00    -0.283 NA
ATOM      4  C   UNL     1      -0.010  -0.029  -2.421  0.00  0.00    +0.104 C 
ATOM      5  C   UNL     1       0.896  -0.276  -3.629  0.00  0.00    +0.119 C 
ATOM      6  N   UNL     1       1.392  -1.649  -3.611  0.00  0.00    -0.313 N 
ATOM      7  C   UNL     1       1.376  -2.413  -2.514  0.00  0.00    +0.227 C 
ATOM      8  O   UNL     1       1.837  -3.533  -2.579  0.00  0.00    -0.274 OA
ATOM      9  C   UNL     1       0.812  -1.942  -1.203  0.00  0.00    +0.181 C 
ATOM     10  H   UNL     1       1.749  -2.024  -4.431  0.00  0.00    +0.149 HD
ENDBRANCH   2   3
BRANCH   2  11
ATOM     11  C   UNL     1       0.731  -0.503   1.223  0.00  0.00    +0.181 C 
ATOM     12  O   UNL     1       1.886  -0.861   1.135  0.00  0.00    -0.290 OA
BRANCH  11  13
ATOM     13  C   UNL     1       0.042  -0.556   2.520  0.00  0.00    +0.037 A 
ATOM     14  C   UNL     1      -1.294  -0.149   2.624  0.00  0.00    +0.014 A 
ATOM     15  C   UNL     1      -1.933  -0.202   3.843  0.00  0.00    +0.021 A 
ATOM     16  C   UNL     1      -1.259  -0.656   4.966  0.00  0.00    +0.042 A 
ATOM     17  C   UNL     1       0.062  -1.061   4.872  0.00  0.00    +0.040 A 
ATOM     18  C   UNL     1       0.715  -1.020   3.657  0.00  0.00    +0.053 A 
ATOM     19 CL   UNL     1       2.369  -1.534   3.539  0.00  0.00    -0.083 Cl
ATOM     20 CL   UNL     1      -2.074  -0.718   6.497  0.00  0.00    -0.083 Cl
ENDBRANCH  11  13
ENDBRANCH   2  11
TORSDOF 3
