REMARK  Name = ZINC40728166
REMARK  3 active torsions:
REMARK  status: ('A' for Active; 'I' for Inactive)
REMARK    1  A    between atoms: C_3  and  N_8
REMARK    2  A    between atoms: C_15  and  N_28
REMARK    3  A    between atoms: C_16  and  N_20
REMARK                            x       y       z     vdW  Elec       q    Type
REMARK                         _______ _______ _______ _____ _____    ______ ____
ROOT
ATOM      1  N   UNL     1       3.586   2.115  -0.022  0.00  0.00    -0.327 N 
ATOM      2  C   UNL     1       3.581   3.582  -0.118  0.00  0.00    +0.124 C 
ATOM      3  C   UNL     1       4.369   4.152   1.068  0.00  0.00    +0.125 C 
ATOM      4  N   UNL     1       5.658   3.453   1.155  0.00  0.00    -0.311 N 
ATOM      5  C   UNL     1       5.663   1.986   1.251  0.00  0.00    +0.125 C 
ATOM      6  C   UNL     1       4.875   1.415   0.071  0.00  0.00    +0.124 C 
ATOM      7  C   UNL     1       6.852   4.165   1.147  0.00  0.00    +0.147 A 
ATOM      8  C   UNL     1       7.475   4.518   2.346  0.00  0.00    +0.106 A 
ATOM      9  C   UNL     1       8.672   5.232   2.281  0.00  0.00    +0.150 A 
ATOM     10  N   UNL     1       9.170   5.548   1.088  0.00  0.00    -0.219 NA
ATOM     11  C   UNL     1       8.550   5.196  -0.020  0.00  0.00    +0.225 A 
ATOM     12  N   UNL     1       7.421   4.516  -0.003  0.00  0.00    -0.219 NA
ENDROOT
BRANCH   9  13
ATOM     13  N   UNL     1       9.333   5.609   3.446  0.00  0.00    -0.283 N 
ATOM     14  C   UNL     1      10.578   6.227   3.369  0.00  0.00    +0.124 A 
ATOM     15  C   UNL     1      11.282   6.506   4.537  0.00  0.00    +0.045 A 
ATOM     16  C   UNL     1      12.518   7.120   4.447  0.00  0.00    +0.020 A 
ATOM     17  C   UNL     1      13.011   7.437   3.187  0.00  0.00    +0.036 A 
ATOM     18  C   UNL     1      12.258   7.131   2.070  0.00  0.00    +0.128 A 
ATOM     19  N   UNL     1      11.084   6.540   2.187  0.00  0.00    -0.239 NA
ATOM     20 BR   UNL     1      14.694   8.278   3.004  0.00  0.00    -0.049 Br
ATOM     21  H   UNL     1       8.927   5.441   4.310  0.00  0.00    +0.155 HD
ENDBRANCH   9  13
BRANCH   1  24
ATOM     22  C   UNL     1       1.217  -0.695  -0.031  0.00  0.00    +0.003 A 
ATOM     23  C   UNL     1       2.405   0.011  -0.040  0.00  0.00    +0.023 A 
ATOM     24  C   UNL     1       2.386   1.399  -0.014  0.00  0.00    +0.031 A 
ATOM     25  C   UNL     1       1.173   2.075   0.020  0.00  0.00    +0.043 A 
ATOM     26  C   UNL     1      -0.012   1.363   0.028  0.00  0.00    +0.043 A 
ATOM     27  C   UNL     1       0.011  -0.021   0.003  0.00  0.00    +0.020 A 
ATOM     28 CL   UNL     1      -1.529   2.206   0.071  0.00  0.00    -0.083 Cl
ENDBRANCH   1  24
BRANCH   8  29
ATOM     29  N   UNL     1       6.912   4.164   3.583  0.00  0.00    -0.353 N 
ATOM     30  H   UNL     1       6.120   3.605   3.613  0.00  0.00    +0.143 HD
ATOM     31  H   UNL     1       7.316   4.477   4.407  0.00  0.00    +0.143 HD
ENDBRANCH   8  29
TORSDOF 3
