REMARK  Name = ZINC06198508
REMARK  16 active torsions:
REMARK  status: ('A' for Active; 'I' for Inactive)
REMARK    1  A    between atoms: C_1  and  N_66
REMARK    2  A    between atoms: C_2  and  N_66
REMARK    3  A    between atoms: C_3  and  C_4
REMARK    4  A    between atoms: C_3  and  N_66
REMARK    5  A    between atoms: C_4  and  C_5
REMARK    6  A    between atoms: C_5  and  N_6
REMARK    7  A    between atoms: N_6  and  C_7
REMARK    8  A    between atoms: C_7  and  N_9
REMARK    9  A    between atoms: N_9  and  C_10
REMARK   10  A    between atoms: N_9  and  C_15
REMARK   11  A    between atoms: C_10  and  C_11
REMARK   12  A    between atoms: C_11  and  C_12
REMARK   13  A    between atoms: C_12  and  N_68
REMARK   14  A    between atoms: C_13  and  N_68
REMARK   15  A    between atoms: C_14  and  N_68
REMARK   16  A    between atoms: C_15  and  C_16
REMARK                            x       y       z     vdW  Elec       q    Type
REMARK                         _______ _______ _______ _____ _____    ______ ____
ROOT
ATOM      1  N   UNL     1       0.002  -0.004   0.002  0.00  0.00    -0.308 N 
ENDROOT
BRANCH   1   2
ATOM      2  C   UNL     1       1.028  -0.667   0.572  0.00  0.00    +0.133 C 
ATOM      3  S   UNL     1       1.051  -2.379   0.563  0.00  0.00    -0.019 S 
BRANCH   2   4
ATOM      4  N   UNL     1       2.035   0.017   1.150  0.00  0.00    -0.326 N 
ATOM      5  H   UNL     1       2.021   0.987   1.155  0.00  0.00    +0.148 HD
BRANCH   4   6
ATOM      6  C   UNL     1       3.149  -0.704   1.770  0.00  0.00    +0.101 C 
BRANCH   6   7
ATOM      7  C   UNL     1       4.148   0.301   2.347  0.00  0.00    +0.000 C 
BRANCH   7   8
ATOM      8  C   UNL     1       5.312  -0.452   2.995  0.00  0.00    -0.078 C 
BRANCH   8  11
ATOM      9  C   UNL     1       5.678   1.264   4.663  0.00  0.00    -0.097 C 
ATOM     10  C   UNL     1       7.510  -0.157   3.966  0.00  0.00    -0.097 C 
ATOM     11  N   UNL     1       6.278   0.532   3.528  0.00  0.00    +0.376 N 
ATOM     12  H   UNL     1       6.516   1.201   2.787  0.00  0.00    -0.083 HD
ENDBRANCH   8  11
ENDBRANCH   7   8
ENDBRANCH   6   7
ENDBRANCH   4   6
ENDBRANCH   2   4
ENDBRANCH   1   2
BRANCH   1  13
ATOM     13  C   UNL     1      -0.018   1.461   0.010  0.00  0.00    +0.105 C 
BRANCH  13  14
ATOM     14  C   UNL     1      -0.734   1.954   1.269  0.00  0.00    +0.000 C 
BRANCH  14  15
ATOM     15  C   UNL     1      -0.755   3.484   1.277  0.00  0.00    -0.078 C 
BRANCH  15  18
ATOM     16  C   UNL     1      -1.277   5.408   2.651  0.00  0.00    -0.097 C 
ATOM     17  C   UNL     1      -2.864   3.589   2.461  0.00  0.00    -0.097 C 
ATOM     18  N   UNL     1      -1.430   3.945   2.509  0.00  0.00    +0.376 N 
ATOM     19  H   UNL     1      -0.999   3.484   3.318  0.00  0.00    -0.083 HD
ENDBRANCH  15  18
ENDBRANCH  14  15
ENDBRANCH  13  14
ENDBRANCH   1  13
BRANCH   1  20
ATOM     20  C   UNL     1      -1.093  -0.748  -0.626  0.00  0.00    +0.147 C 
BRANCH  20  21
ATOM     21  C   UNL     1      -0.769  -0.987  -2.078  0.00  0.00    +0.035 A 
ATOM     22  C   UNL     1      -0.184  -2.151  -2.458  0.00  0.00    +0.020 A 
ATOM     23  C   UNL     1       0.112  -2.355  -3.876  0.00  0.00    +0.003 A 
ATOM     24  C   UNL     1       0.711  -3.538  -4.326  0.00  0.00    +0.059 A 
ATOM     25  C   UNL     1       0.983  -3.700  -5.668  0.00  0.00    +0.163 A 
ATOM     26  C   UNL     1       0.662  -2.689  -6.578  0.00  0.00    +0.164 A 
ATOM     27  C   UNL     1       0.070  -1.516  -6.142  0.00  0.00    +0.075 A 
ATOM     28  C   UNL     1      -0.209  -1.337  -4.794  0.00  0.00    +0.053 A 
ATOM     29  N   UNL     1      -0.798  -0.173  -4.341  0.00  0.00    -0.322 N 
ATOM     30  H   UNL     1      -1.025   0.550  -4.993  0.00  0.00    +0.169 HD
ATOM     31  C   UNL     1      -1.071   0.002  -3.036  0.00  0.00    +0.254 A 
ATOM     32  O   UNL     1      -1.591   1.043  -2.673  0.00  0.00    -0.268 OA
ATOM     33  O   UNL     1       0.923  -2.843  -7.905  0.00  0.00    -0.485 OA
ATOM     34  C   UNL     1       1.855  -3.868  -8.263  0.00  0.00    +0.270 C 
ATOM     35  C   UNL     1       1.489  -5.143  -7.490  0.00  0.00    +0.270 C 
ATOM     36  O   UNL     1       1.569  -4.855  -6.090  0.00  0.00    -0.485 OA
ENDBRANCH  20  21
ENDBRANCH   1  20
TORSDOF 12
