REMARK  Name = ZINC02961041
REMARK  8 active torsions:
REMARK  status: ('A' for Active; 'I' for Inactive)
REMARK    1  A    between atoms: C_1  and  C_2
REMARK    2  A    between atoms: C_9  and  C_11
REMARK    3  A    between atoms: C_11  and  N_12
REMARK    4  A    between atoms: N_12  and  S_13
REMARK    5  A    between atoms: S_13  and  C_16
REMARK    6  A    between atoms: C_18  and  C_24
REMARK    7  A    between atoms: C_19  and  C_23
REMARK    8  A    between atoms: C_21  and  C_22
REMARK                            x       y       z     vdW  Elec       q    Type
REMARK                         _______ _______ _______ _____ _____    ______ ____
ROOT
ATOM      1  N   UNL     1      -5.675   3.391  -0.738  0.00  0.00    -0.184 NA
ATOM      2  H   UNL     1      -5.127   4.177  -0.584  0.00  0.00    +0.148 HD
ENDROOT
BRANCH   1   3
ATOM      3  S   UNL     1      -6.721   3.349  -2.021  0.00  0.00    +0.059 S 
ATOM      4  O   UNL     1      -6.620   4.611  -2.668  0.00  0.00    -0.153 OA
ATOM      5  O   UNL     1      -6.481   2.124  -2.700  0.00  0.00    -0.153 OA
BRANCH   3   6
ATOM      6  C   UNL     1      -8.351   3.250  -1.361  0.00  0.00    +0.108 A 
ATOM      7  C   UNL     1      -9.120   2.123  -1.585  0.00  0.00    +0.032 A 
ATOM      8  C   UNL     1     -10.399   2.044  -1.068  0.00  0.00    -0.046 A 
ATOM      9  C   UNL     1     -10.910   3.093  -0.326  0.00  0.00    -0.047 A 
ATOM     10  C   UNL     1     -10.142   4.220  -0.102  0.00  0.00    +0.009 A 
ATOM     11  C   UNL     1      -8.860   4.296  -0.616  0.00  0.00    -0.024 A 
ATOM     12  C   UNL     1      -8.020   5.522  -0.366  0.00  0.00    +0.046 C 
ATOM     13  C   UNL     1     -12.305   3.008   0.238  0.00  0.00    +0.044 C 
ATOM     14  C   UNL     1     -11.237   0.816  -1.312  0.00  0.00    +0.044 C 
ENDBRANCH   3   6
ENDBRANCH   1   3
BRANCH   1  15
ATOM     15  C   UNL     1      -5.578   2.242   0.166  0.00  0.00    +0.162 C 
BRANCH  15  24
ATOM     16  C   UNL     1      -0.087   1.348   0.610  0.00  0.00    +0.047 C 
ATOM     17  C   UNL     1      -0.862   1.995   1.729  0.00  0.00    -0.008 A 
ATOM     18  C   UNL     1      -0.229   2.379   2.871  0.00  0.00    +0.008 A 
ATOM     19  C   UNL     1      -0.964   2.981   3.905  0.00  0.00    +0.018 A 
ATOM     20  C   UNL     1      -2.292   3.179   3.770  0.00  0.00    +0.093 A 
ATOM     21  N   UNL     1      -2.939   2.799   2.630  0.00  0.00    -0.306 N 
ATOM     22  C   UNL     1      -2.248   2.214   1.601  0.00  0.00    +0.141 A 
ATOM     23  N   UNL     1      -3.107   1.954   0.626  0.00  0.00    -0.231 NA
ATOM     24  C   UNL     1      -4.324   2.359   0.994  0.00  0.00    +0.075 A 
ATOM     25  C   UNL     1      -4.248   2.880   2.238  0.00  0.00    +0.117 A 
ENDBRANCH  15  24
ENDBRANCH   1  15
TORSDOF 4
