REMARK  Name = ZINC02219265
REMARK  6 active torsions:
REMARK  status: ('A' for Active; 'I' for Inactive)
REMARK    1  A    between atoms: C_1  and  C_2
REMARK    2  A    between atoms: C_2  and  O_3
REMARK    3  A    between atoms: O_3  and  C_4
REMARK    4  A    between atoms: C_6  and  C_11
REMARK    5  A    between atoms: C_9  and  O_10
REMARK    6  A    between atoms: C_22  and  N_46
REMARK                            x       y       z     vdW  Elec       q    Type
REMARK                         _______ _______ _______ _____ _____    ______ ____
ROOT
ATOM      1  C   UNL     1       1.143   3.595   0.010  0.00  0.00    +0.190 C 
ATOM      2  N   UNL     1      -0.075   4.053   0.703  0.00  0.00    -0.316 N 
ATOM      3  C   UNL     1      -0.022   4.107   2.072  0.00  0.00    +0.080 A 
ATOM      4  C   UNL     1       1.180   4.227   2.785  0.00  0.00    +0.068 A 
ATOM      5  C   UNL     1       1.054   4.279   4.231  0.00  0.00    -0.027 A 
ATOM      6  C   UNL     1      -0.208   4.197   4.713  0.00  0.00    -0.021 A 
ATOM      7  S   UNL     1      -1.237   4.057   3.278  0.00  0.00    -0.080 S 
ATOM      8  C   UNL     1      -0.614   4.222   6.153  0.00  0.00    -0.036 C 
ATOM      9  C   UNL     1       1.685   4.876   6.549  0.00  0.00    -0.074 C 
ATOM     10  C   UNL     1       2.229   4.418   5.193  0.00  0.00    +0.018 C 
ATOM     11  C   UNL     1       0.292   4.178   8.403  0.00  0.00    -0.096 C 
ATOM     12  C   UNL     1       2.437   4.286   2.004  0.00  0.00    +0.248 C 
ATOM     13  O   UNL     1       3.508   4.501   2.541  0.00  0.00    -0.270 OA
ATOM     14  N   UNL     1       2.345   4.091   0.673  0.00  0.00    -0.289 N 
ATOM     15  H   UNL     1      -0.875   4.304   0.214  0.00  0.00    +0.149 HD
ATOM     16  H   UNL     1       3.122   4.290   0.127  0.00  0.00    +0.151 HD
ATOM     17  N   UNL     1       0.597   3.970   6.971  0.00  0.00    +0.381 N 
ATOM     18  H   UNL     1       0.898   2.998   6.832  0.00  0.00    -0.082 HD
ENDROOT
BRANCH   1  21
ATOM     19  C   UNL     1       2.405   0.035  -0.021  0.00  0.00    +0.162 A 
ATOM     20  C   UNL     1       2.379   1.420  -0.013  0.00  0.00    +0.056 A 
ATOM     21  C   UNL     1       1.169   2.089   0.002  0.00  0.00    -0.006 A 
ATOM     22  C   UNL     1      -0.017   1.378   0.010  0.00  0.00    +0.011 A 
ATOM     23  C   UNL     1       0.002  -0.004   0.002  0.00  0.00    +0.049 A 
ATOM     24  C   UNL     1       1.211  -0.680  -0.013  0.00  0.00    +0.158 A 
BRANCH  24  25
ATOM     25  O   UNL     1       1.232  -2.040  -0.021  0.00  0.00    -0.503 OA
ATOM     26  H   UNL     1       1.229  -2.429  -0.907  0.00  0.00    +0.292 HD
ENDBRANCH  24  25
BRANCH  19  27
ATOM     27  O   UNL     1       3.594  -0.625  -0.035  0.00  0.00    -0.489 OA
BRANCH  27  29
ATOM     28  C   UNL     1       6.008  -0.736  -0.058  0.00  0.00    +0.048 C 
ATOM     29  C   UNL     1       4.779   0.174  -0.042  0.00  0.00    +0.226 C 
ENDBRANCH  27  29
ENDBRANCH  19  27
ENDBRANCH   1  21
TORSDOF 4
