REMARK  Name = ZINC39442667
REMARK  4 active torsions:
REMARK  status: ('A' for Active; 'I' for Inactive)
REMARK    1  A    between atoms: C_4  and  C_7
REMARK    2  A    between atoms: C_7  and  C_8
REMARK    3  A    between atoms: N_15  and  C_18
REMARK    4  A    between atoms: N_23  and  C_24
REMARK                            x       y       z     vdW  Elec       q    Type
REMARK                         _______ _______ _______ _____ _____    ______ ____
ROOT
ATOM      1  C   UNL     1       4.164  -0.959   1.377  0.00  0.00    +0.055 C 
ATOM      2  N   UNL     1       3.549  -0.621   2.468  0.00  0.00    -0.158 NA
ATOM      3  N   UNL     1       4.221  -1.052   3.613  0.00  0.00    -0.158 NA
ATOM      4  C   UNL     1       5.258  -1.734   3.332  0.00  0.00    +0.052 C 
ATOM      5  C   UNL     1       5.421  -1.662   1.816  0.00  0.00    +0.096 C 
ATOM      6  C   UNL     1       5.500  -3.113   1.338  0.00  0.00    +0.102 C 
ATOM      7  N   UNL     1       6.583  -3.778   2.080  0.00  0.00    -0.271 NA
ATOM      8  C   UNL     1       6.313  -3.920   3.513  0.00  0.00    +0.093 C 
ATOM      9  C   UNL     1       6.218  -2.530   4.180  0.00  0.00    +0.069 C 
ENDROOT
BRANCH   7  10
ATOM     10  C   UNL     1       6.915  -5.076   1.476  0.00  0.00    +0.217 C 
ATOM     11  N   UNL     1       5.745  -5.986   1.542  0.00  0.00    -0.316 NA
ATOM     12  N   UNL     1       6.362  -7.284   1.862  0.00  0.00    +0.411 N 
ATOM     13  N   UNL     1       7.466  -6.908   2.756  0.00  0.00    -0.265 NA
ATOM     14  N   UNL     1       7.981  -5.737   2.247  0.00  0.00    -0.250 N 
ATOM     15  H   UNL     1       5.105  -5.700   2.268  0.00  0.00    +0.107 HD
ATOM     16  H   UNL     1       5.706  -7.884   2.339  0.00  0.00    -0.031 HD
ATOM     17  H   UNL     1       8.171  -7.630   2.784  0.00  0.00    +0.125 HD
ATOM     18  H   UNL     1       6.714  -7.728   1.027  0.00  0.00    -0.031 HD
BRANCH  14  19
ATOM     19  C   UNL     1       9.281  -5.261   2.428  0.00  0.00    +0.046 A 
ATOM     20  C   UNL     1       9.666  -4.053   1.859  0.00  0.00    +0.024 A 
ATOM     21  C   UNL     1      10.953  -3.585   2.041  0.00  0.00    +0.002 A 
ATOM     22  C   UNL     1      11.857  -4.316   2.788  0.00  0.00    +0.000 A 
ATOM     23  C   UNL     1      11.477  -5.519   3.356  0.00  0.00    +0.002 A 
ATOM     24  C   UNL     1      10.191  -5.990   3.183  0.00  0.00    +0.024 A 
ENDBRANCH  14  19
ENDBRANCH   7  10
BRANCH   1  25
ATOM     25  C   UNL     1       3.711  -0.707  -0.038  0.00  0.00    +0.088 C 
BRANCH  25  29
ATOM     26  C   UNL     1      -0.017   1.378   0.010  0.00  0.00    +0.000 A 
ATOM     27  C   UNL     1       1.171   2.086   0.002  0.00  0.00    +0.000 A 
ATOM     28  C   UNL     1       2.377   1.411  -0.013  0.00  0.00    +0.004 A 
ATOM     29  C   UNL     1       2.396   0.029  -0.020  0.00  0.00    -0.042 A 
ATOM     30  C   UNL     1       1.208  -0.679  -0.012  0.00  0.00    +0.004 A 
ATOM     31  C   UNL     1       0.002  -0.004   0.002  0.00  0.00    +0.000 A 
ENDBRANCH  25  29
ENDBRANCH   1  25
TORSDOF 4
