REMARK  Name = ZINC12498616
REMARK  11 active torsions:
REMARK  status: ('A' for Active; 'I' for Inactive)
REMARK    1  A    between atoms: C_1  and  C_2
REMARK    2  A    between atoms: C_2  and  C_3
REMARK    3  A    between atoms: C_3  and  N_4
REMARK    4  A    between atoms: C_7  and  C_36
REMARK    5  A    between atoms: C_8  and  C_35
REMARK    6  A    between atoms: N_13  and  C_14
REMARK    7  A    between atoms: C_14  and  C_16
REMARK    8  A    between atoms: C_19  and  S_22
REMARK    9  A    between atoms: S_22  and  N_25
REMARK   10  A    between atoms: C_27  and  C_34
REMARK   11  A    between atoms: C_30  and  C_33
REMARK                            x       y       z     vdW  Elec       q    Type
REMARK                         _______ _______ _______ _____ _____    ______ ____
ROOT
ATOM      1  C   UNL     1      -2.262  -2.997  -2.971  0.00  0.00    +0.269 C 
ATOM      2  O   UNL     1      -2.100  -4.203  -2.895  0.00  0.00    -0.268 OA
ENDROOT
BRANCH   1  12
ATOM      3  N   UNL     1       0.738  -1.962  -1.265  0.00  0.00    -0.321 N 
ATOM      4  C   UNL     1       1.786  -2.645  -0.676  0.00  0.00    +0.058 A 
ATOM      5  C   UNL     1       2.918  -2.136  -0.024  0.00  0.00    +0.030 A 
ATOM      6  C   UNL     1       3.863  -2.986   0.504  0.00  0.00    -0.046 A 
ATOM      7  C   UNL     1       3.725  -4.361   0.407  0.00  0.00    -0.046 A 
ATOM      8  C   UNL     1       2.616  -4.888  -0.232  0.00  0.00    +0.020 A 
ATOM      9  C   UNL     1       1.671  -4.040  -0.759  0.00  0.00    +0.039 A 
ATOM     10  S   UNL     1       0.144  -4.268  -1.633  0.00  0.00    -0.052 S 
ATOM     11  C   UNL     1      -0.276  -2.654  -1.846  0.00  0.00    +0.167 A 
ATOM     12  N   UNL     1      -1.355  -2.166  -2.448  0.00  0.00    -0.152 NA
ATOM     13  C   UNL     1       4.771  -5.273   0.992  0.00  0.00    +0.044 C 
ATOM     14  C   UNL     1       5.069  -2.410   1.199  0.00  0.00    +0.044 C 
BRANCH   3  15
ATOM     15  C   UNL     1       0.718  -0.497  -1.257  0.00  0.00    +0.124 C 
BRANCH  15  17
ATOM     16  C   UNL     1      -0.019   1.526   0.010  0.00  0.00    +0.005 C 
ATOM     17  C   UNL     1       0.002  -0.004   0.002  0.00  0.00    +0.018 C 
ENDBRANCH  15  17
ENDBRANCH   3  15
ENDBRANCH   1  12
BRANCH   1  18
ATOM     18  C   UNL     1      -3.465  -2.453  -3.642  0.00  0.00    +0.039 A 
ATOM     19  C   UNL     1      -3.652  -1.074  -3.736  0.00  0.00    +0.015 A 
ATOM     20  C   UNL     1      -4.774  -0.573  -4.363  0.00  0.00    +0.029 A 
ATOM     21  C   UNL     1      -5.714  -1.436  -4.897  0.00  0.00    +0.106 A 
ATOM     22  C   UNL     1      -5.536  -2.805  -4.807  0.00  0.00    +0.029 A 
ATOM     23  C   UNL     1      -4.414  -3.318  -4.189  0.00  0.00    +0.015 A 
BRANCH  21  24
ATOM     24  S   UNL     1      -7.146  -0.789  -5.695  0.00  0.00    +0.061 S 
ATOM     25  O   UNL     1      -8.140  -1.802  -5.630  0.00  0.00    -0.153 OA
ATOM     26  O   UNL     1      -7.350   0.515  -5.168  0.00  0.00    -0.153 OA
BRANCH  24  27
ATOM     27  N   UNL     1      -6.769  -0.598  -7.296  0.00  0.00    -0.172 NA
ATOM     28  C   UNL     1      -6.191   0.660  -7.794  0.00  0.00    +0.140 C 
ATOM     29  C   UNL     1      -7.006   1.120  -9.008  0.00  0.00    +0.131 C 
ATOM     30  O   UNL     1      -7.095   0.047  -9.949  0.00  0.00    -0.371 OA
ATOM     31  C   UNL     1      -7.778  -1.109  -9.455  0.00  0.00    +0.131 C 
ATOM     32  C   UNL     1      -6.997  -1.684  -8.263  0.00  0.00    +0.140 C 
ATOM     33  C   UNL     1      -7.867  -2.161 -10.562  0.00  0.00    +0.039 C 
ATOM     34  C   UNL     1      -6.316   2.318  -9.663  0.00  0.00    +0.039 C 
ENDBRANCH  24  27
ENDBRANCH  21  24
ENDBRANCH   1  18
TORSDOF 6
