REMARK  Name = ZINC59500962
REMARK  6 active torsions:
REMARK  status: ('A' for Active; 'I' for Inactive)
REMARK    1  A    between atoms: C_4  and  C_7
REMARK    2  A    between atoms: C_7  and  C_8
REMARK    3  A    between atoms: C_11  and  C_14
REMARK    4  A    between atoms: C_16  and  C_22
REMARK    5  A    between atoms: C_22  and  C_24
REMARK    6  A    between atoms: C_22  and  O_30
REMARK                            x       y       z     vdW  Elec       q    Type
REMARK                         _______ _______ _______ _____ _____    ______ ____
ROOT
ATOM      1  C   UNL     1       5.494  -1.954   5.442  0.00  0.00    +0.109 C 
ATOM      2  C   UNL     1       4.245  -1.828   6.356  0.00  0.00    +0.131 C 
ATOM      3  N   UNL     1       4.342  -2.717   7.500  0.00  0.00    -0.361 N 
ATOM      4  C   UNL     1       5.166  -3.726   7.503  0.00  0.00    +0.126 C 
ATOM      5  S   UNL     1       6.019  -3.651   5.935  0.00  0.00    -0.083 S 
ATOM      6  N   UNL     1       5.343  -4.653   8.504  0.00  0.00    -0.339 N 
ATOM      7  H   UNL     1       4.820  -4.592   9.319  0.00  0.00    +0.144 HD
ATOM      8  H   UNL     1       5.991  -5.367   8.395  0.00  0.00    +0.144 HD
ATOM      9  H   UNL     1       3.783  -2.556   8.276  0.00  0.00    +0.162 HD
ENDROOT
BRANCH   1  13
ATOM     10  C   UNL     1       4.439  -1.772   1.307  0.00  0.00    -0.043 A 
ATOM     11  C   UNL     1       4.211  -2.929   2.028  0.00  0.00    +0.004 A 
ATOM     12  C   UNL     1       4.553  -2.988   3.366  0.00  0.00    +0.005 A 
ATOM     13  C   UNL     1       5.123  -1.890   3.983  0.00  0.00    -0.032 A 
ATOM     14  C   UNL     1       5.352  -0.733   3.261  0.00  0.00    +0.005 A 
ATOM     15  C   UNL     1       5.014  -0.676   1.922  0.00  0.00    +0.004 A 
BRANCH  10  16
ATOM     16  C   UNL     1       4.066  -1.708  -0.152  0.00  0.00    +0.070 C 
BRANCH  16  20
ATOM     17  C   UNL     1       7.371  -3.007  -2.526  0.00  0.00    +0.000 A 
ATOM     18  C   UNL     1       6.433  -3.922  -2.088  0.00  0.00    +0.000 A 
ATOM     19  C   UNL     1       5.364  -3.502  -1.319  0.00  0.00    +0.004 A 
ATOM     20  C   UNL     1       5.233  -2.166  -0.989  0.00  0.00    -0.043 A 
ATOM     21  C   UNL     1       6.171  -1.250  -1.427  0.00  0.00    +0.004 A 
ATOM     22  C   UNL     1       7.240  -1.671  -2.196  0.00  0.00    +0.000 A 
ENDBRANCH  16  20
ENDBRANCH  10  16
ENDBRANCH   1  13
BRANCH   2  23
ATOM     23  C   UNL     1       2.995  -2.184   5.550  0.00  0.00    +0.168 C 
BRANCH  23  24
ATOM     24  C   UNL     1       1.798  -2.214   6.466  0.00  0.00    -0.017 A 
ATOM     25  C   UNL     1       1.115  -1.046   6.749  0.00  0.00    +0.006 A 
ATOM     26  C   UNL     1       0.018  -1.073   7.589  0.00  0.00    +0.000 A 
ATOM     27  C   UNL     1      -0.397  -2.268   8.146  0.00  0.00    +0.000 A 
ATOM     28  C   UNL     1       0.286  -3.436   7.862  0.00  0.00    +0.000 A 
ATOM     29  C   UNL     1       1.381  -3.410   7.019  0.00  0.00    +0.006 A 
ENDBRANCH  23  24
BRANCH  23  30
ATOM     30  O   UNL     1       2.790  -1.204   4.530  0.00  0.00    -0.385 OA
ATOM     31  H   UNL     1       2.666  -0.306   4.867  0.00  0.00    +0.210 HD
ENDBRANCH  23  30
ENDBRANCH   2  23
TORSDOF 6
