REMARK  Name = ZINC21325422
REMARK  9 active torsions:
REMARK  status: ('A' for Active; 'I' for Inactive)
REMARK    1  A    between atoms: C_1  and  C_2
REMARK    2  A    between atoms: C_7  and  N_8
REMARK    3  A    between atoms: C_9  and  C_11
REMARK    4  A    between atoms: C_11  and  S_12
REMARK    5  A    between atoms: S_12  and  C_13
REMARK    6  A    between atoms: N_17  and  N_18
REMARK    7  A    between atoms: N_19  and  N_20
REMARK    8  A    between atoms: C_21  and  C_22
REMARK    9  A    between atoms: C_21  and  C_23
REMARK                            x       y       z     vdW  Elec       q    Type
REMARK                         _______ _______ _______ _____ _____    ______ ____
ROOT
ATOM      1  C   UNL     1       4.866   8.518  -0.462  0.00  0.00    +0.210 A 
ATOM      2  N   UNL     1       6.016   7.886  -0.471  0.00  0.00    -0.119 NA
ATOM      3  N   UNL     1       7.033   8.841  -0.599  0.00  0.00    -0.109 NA
ATOM      4  C   UNL     1       6.473  10.025  -0.654  0.00  0.00    +0.254 A 
ATOM      5  N   UNL     1       5.119   9.856  -0.571  0.00  0.00    -0.211 N 
ATOM      6  N   UNL     1       7.138  11.236  -0.775  0.00  0.00    -0.204 N 
ATOM      7  H   UNL     1       6.567  12.175  -0.813  0.00  0.00    +0.178 HD
ENDROOT
BRANCH   5   8
ATOM      8  N   UNL     1       4.183  10.851  -0.592  0.00  0.00    -0.294 N 
ATOM      9  H   UNL     1       4.498  11.901  -0.683  0.00  0.00    +0.163 HD
ATOM     10  H   UNL     1       3.114  10.602  -0.517  0.00  0.00    +0.163 HD
ENDBRANCH   5   8
BRANCH   6  11
ATOM     11  N   UNL     1       8.537  11.263  -0.851  0.00  0.00    -0.184 NA
ATOM     12  C   UNL     1       9.160  12.399  -0.965  0.00  0.00    +0.070 C 
ATOM     13  C   UNL     1       8.378  13.686  -1.016  0.00  0.00    +0.068 C 
BRANCH  12  14
ATOM     14  C   UNL     1      10.625  12.428  -1.044  0.00  0.00    +0.035 A 
ATOM     15  C   UNL     1      11.521  11.373  -1.015  0.00  0.00    +0.017 A 
ATOM     16  C   UNL     1      12.865  11.655  -1.105  0.00  0.00    +0.008 A 
ATOM     17  C   UNL     1      13.267  12.947  -1.219  0.00  0.00    +0.046 A 
ATOM     18  S   UNL     1      11.716  13.831  -1.210  0.00  0.00    -0.095 S 
ENDBRANCH  12  14
ENDBRANCH   6  11
BRANCH   1  19
ATOM     19  S   UNL     1       3.276   7.772  -0.325  0.00  0.00    -0.075 S 
BRANCH  19  20
ATOM     20  C   UNL     1       3.631   5.997  -0.218  0.00  0.00    +0.173 C 
BRANCH  20  22
ATOM     21  N   UNL     1       2.357   3.888  -0.001  0.00  0.00    -0.285 N 
ATOM     22  C   UNL     1       2.338   5.232  -0.095  0.00  0.00    +0.227 C 
ATOM     23  O   UNL     1       1.281   5.826  -0.082  0.00  0.00    -0.275 OA
ATOM     24  H   UNL     1       3.316   3.355   0.079  0.00  0.00    +0.155 HD
BRANCH  21  31
ATOM     25  C   UNL     1       2.322   1.324   1.234  0.00  0.00    +0.045 C 
ATOM     26  C   UNL     1       1.095   1.915   0.588  0.00  0.00    -0.029 A 
ATOM     27  C   UNL     1      -0.092   1.207   0.583  0.00  0.00    +0.006 A 
ATOM     28  C   UNL     1      -1.217   1.745  -0.014  0.00  0.00    +0.020 A 
ATOM     29  C   UNL     1      -1.161   2.998  -0.599  0.00  0.00    +0.043 A 
ATOM     30  C   UNL     1       0.024   3.710  -0.598  0.00  0.00    +0.043 A 
ATOM     31  C   UNL     1       1.156   3.170  -0.003  0.00  0.00    +0.038 A 
ATOM     32 CL   UNL     1      -2.577   3.672  -1.343  0.00  0.00    -0.083 Cl
ENDBRANCH  21  31
ENDBRANCH  20  22
ENDBRANCH  19  20
ENDBRANCH   1  19
TORSDOF 7
