REMARK  Name = ZINC09430374
REMARK  11 active torsions:
REMARK  status: ('A' for Active; 'I' for Inactive)
REMARK    1  A    between atoms: C_1  and  C_2
REMARK    2  A    between atoms: C_2  and  O_3
REMARK    3  A    between atoms: O_3  and  C_4
REMARK    4  A    between atoms: C_5  and  O_32
REMARK    5  A    between atoms: C_7  and  C_11
REMARK    6  A    between atoms: C_17  and  C_18
REMARK    7  A    between atoms: C_25  and  O_30
REMARK    8  A    between atoms: C_26  and  O_28
REMARK    9  A    between atoms: O_28  and  C_29
REMARK   10  A    between atoms: O_30  and  C_31
REMARK   11  A    between atoms: O_32  and  C_33
REMARK                            x       y       z     vdW  Elec       q    Type
REMARK                         _______ _______ _______ _____ _____    ______ ____
ROOT
ATOM      1  C   UNL     1       1.451  -6.042   1.794  0.00  0.00    +0.005 A 
ATOM      2  C   UNL     1       1.409  -6.860   0.667  0.00  0.00    +0.036 A 
ATOM      3  C   UNL     1       1.225  -8.231   0.817  0.00  0.00    +0.051 A 
ATOM      4  N   UNL     1       1.125  -8.787   2.023  0.00  0.00    -0.328 N 
ATOM      5  C   UNL     1       1.143  -8.045   3.123  0.00  0.00    +0.115 A 
ATOM      6  N   UNL     1       1.004  -8.657   4.357  0.00  0.00    -0.343 N 
ATOM      7  C   UNL     1       1.305  -6.653   3.059  0.00  0.00    +0.097 A 
ATOM      8  C   UNL     1       1.040 -10.243   2.171  0.00  0.00    +0.128 C 
ATOM      9  C   UNL     1       0.182 -10.864   1.074  0.00  0.00    +0.057 C 
ATOM     10  C   UNL     1       0.657 -10.386  -0.274  0.00  0.00    -0.033 A 
ATOM     11  C   UNL     1       1.158  -9.090  -0.391  0.00  0.00    +0.005 A 
ATOM     12  C   UNL     1       1.589  -8.617  -1.627  0.00  0.00    +0.059 A 
ATOM     13  C   UNL     1       1.526  -9.444  -2.735  0.00  0.00    +0.162 A 
ATOM     14  C   UNL     1       1.034 -10.741  -2.610  0.00  0.00    +0.162 A 
ATOM     15  C   UNL     1       0.600 -11.208  -1.377  0.00  0.00    +0.053 A 
ATOM     16  H   UNL     1       1.036  -9.624   4.425  0.00  0.00    +0.144 HD
ATOM     17  H   UNL     1       0.876  -8.118   5.153  0.00  0.00    +0.144 HD
ENDROOT
BRANCH   1  21
ATOM     18  C   UNL     1       2.025  -1.841   1.435  0.00  0.00    +0.176 A 
ATOM     19  C   UNL     1       0.984  -2.336   2.217  0.00  0.00    +0.163 A 
ATOM     20  C   UNL     1       0.795  -3.700   2.335  0.00  0.00    +0.058 A 
ATOM     21  C   UNL     1       1.649  -4.580   1.669  0.00  0.00    -0.012 A 
ATOM     22  C   UNL     1       2.690  -4.080   0.887  0.00  0.00    +0.027 A 
ATOM     23  C   UNL     1       2.871  -2.717   0.768  0.00  0.00    +0.064 A 
ATOM     24 BR   UNL     1       4.278  -2.040  -0.299  0.00  0.00    -0.046 Br
BRANCH  19  25
ATOM     25  O   UNL     1       0.153  -1.476   2.865  0.00  0.00    -0.491 OA
ATOM     26  C   UNL     1      -0.893  -2.052   3.650  0.00  0.00    +0.277 C 
ENDBRANCH  19  25
BRANCH  18  27
ATOM     27  O   UNL     1       2.209  -0.500   1.319  0.00  0.00    -0.487 OA
BRANCH  27  29
ATOM     28  C   UNL     1       1.849   1.654   0.284  0.00  0.00    +0.048 C 
ATOM     29  C   UNL     1       1.521   0.160   0.254  0.00  0.00    +0.226 C 
ENDBRANCH  27  29
ENDBRANCH  18  27
ENDBRANCH   1  21
BRANCH   7  30
ATOM     30  C   UNL     1       1.317  -5.865   4.254  0.00  0.00    +0.103 C 
ATOM     31  N   UNL     1       1.326  -5.239   5.203  0.00  0.00    -0.191 NA
ENDBRANCH   7  30
BRANCH  14  32
ATOM     32  O   UNL     1       0.978 -11.552  -3.700  0.00  0.00    -0.491 OA
ATOM     33  C   UNL     1       0.463 -12.870  -3.501  0.00  0.00    +0.277 C 
ENDBRANCH  14  32
BRANCH  13  34
ATOM     34  O   UNL     1       1.945  -8.989  -3.947  0.00  0.00    -0.491 OA
ATOM     35  C   UNL     1       2.437  -7.649  -4.002  0.00  0.00    +0.277 C 
ENDBRANCH  13  34
TORSDOF 7
