REMARK  Name = ZINC20429070
REMARK  6 active torsions:
REMARK  status: ('A' for Active; 'I' for Inactive)
REMARK    1  A    between atoms: C_3  and  C_9
REMARK    2  A    between atoms: C_4  and  O_8
REMARK    3  A    between atoms: C_5  and  O_7
REMARK    4  A    between atoms: N_10  and  N_11
REMARK    5  A    between atoms: N_11  and  S_12
REMARK    6  A    between atoms: S_12  and  C_15
REMARK                            x       y       z     vdW  Elec       q    Type
REMARK                         _______ _______ _______ _____ _____    ______ ____
ROOT
ATOM      1  N   UNL     1       0.478   4.565  -1.373  0.00  0.00    -0.137 N 
ATOM      2  H   UNL     1       0.940   5.254  -1.876  0.00  0.00    +0.197 HD
ENDROOT
BRANCH   1   3
ATOM      3  S   UNL     1       1.111   4.021   0.058  0.00  0.00    +0.088 S 
ATOM      4  O   UNL     1       0.070   4.110   1.022  0.00  0.00    -0.149 OA
ATOM      5  O   UNL     1       2.361   4.675   0.224  0.00  0.00    -0.149 OA
BRANCH   3   6
ATOM      6  C   UNL     1       1.462   2.307  -0.146  0.00  0.00    +0.130 A 
ATOM      7  C   UNL     1       2.771   1.880  -0.276  0.00  0.00    +0.050 A 
ATOM      8  C   UNL     1       3.047   0.534  -0.437  0.00  0.00    +0.043 A 
ATOM      9  C   UNL     1       2.014  -0.385  -0.468  0.00  0.00    +0.021 A 
ATOM     10  C   UNL     1       0.706   0.041  -0.339  0.00  0.00    +0.023 A 
ATOM     11  C   UNL     1       0.429   1.387  -0.178  0.00  0.00    +0.068 A 
ATOM     12 CL   UNL     1      -1.215   1.924  -0.023  0.00  0.00    -0.082 Cl
ATOM     13 CL   UNL     1       4.690  -0.001  -0.599  0.00  0.00    -0.083 Cl
ENDBRANCH   3   6
ENDBRANCH   1   3
BRANCH   1  15
ATOM     14  C   UNL     1      -1.136   4.335  -3.048  0.00  0.00    +0.143 C 
ATOM     15  N   UNL     1      -0.723   4.030  -1.856  0.00  0.00    -0.174 NA
BRANCH  14  18
ATOM     16  C   UNL     1      -4.147   3.765  -5.216  0.00  0.00    +0.004 A 
ATOM     17  C   UNL     1      -2.887   4.150  -4.807  0.00  0.00    +0.013 A 
ATOM     18  C   UNL     1      -2.482   3.924  -3.489  0.00  0.00    +0.040 A 
ATOM     19  C   UNL     1      -3.357   3.301  -2.592  0.00  0.00    +0.167 A 
ATOM     20  C   UNL     1      -4.624   2.924  -3.016  0.00  0.00    +0.159 A 
ATOM     21  C   UNL     1      -5.014   3.154  -4.327  0.00  0.00    +0.049 A 
BRANCH  20  22
ATOM     22  O   UNL     1      -5.481   2.323  -2.148  0.00  0.00    -0.503 OA
ATOM     23  H   UNL     1      -6.485   2.024  -2.484  0.00  0.00    +0.292 HD
ENDBRANCH  20  22
BRANCH  19  24
ATOM     24  O   UNL     1      -2.969   3.071  -1.309  0.00  0.00    -0.503 OA
ATOM     25  H   UNL     1      -3.659   2.581  -0.606  0.00  0.00    +0.292 HD
ENDBRANCH  19  24
ENDBRANCH  14  18
ENDBRANCH   1  15
TORSDOF 6
