REMARK  Name = ZINC67584486
REMARK  8 active torsions:
REMARK  status: ('A' for Active; 'I' for Inactive)
REMARK    1  A    between atoms: C_1  and  C_2
REMARK    2  A    between atoms: C_2  and  C_3
REMARK    3  A    between atoms: C_3  and  C_4
REMARK    4  A    between atoms: N_6  and  C_7
REMARK    5  A    between atoms: C_11  and  N_14
REMARK    6  A    between atoms: C_12  and  C_13
REMARK    7  A    between atoms: C_19  and  C_26
REMARK    8  A    between atoms: C_22  and  C_25
REMARK                            x       y       z     vdW  Elec       q    Type
REMARK                         _______ _______ _______ _____ _____    ______ ____
ROOT
ATOM      1  C   UNL     1      -2.449  -4.280   0.485  0.00  0.00    +0.038 A 
ATOM      2  C   UNL     1      -1.265  -4.764  -0.059  0.00  0.00    +0.024 A 
ATOM      3  C   UNL     1      -1.248  -5.987  -0.701  0.00  0.00    +0.004 A 
ATOM      4  C   UNL     1      -2.406  -6.734  -0.803  0.00  0.00    +0.024 A 
ATOM      5  C   UNL     1      -3.592  -6.256  -0.261  0.00  0.00    +0.039 A 
ATOM      6  C   UNL     1      -3.612  -5.030   0.389  0.00  0.00    -0.008 A 
ATOM      7  C   UNL     1      -4.896  -4.511   0.984  0.00  0.00    +0.047 C 
ENDROOT
BRANCH   5   8
ATOM      8  N   UNL     1      -4.765  -7.012  -0.366  0.00  0.00    -0.269 N 
ATOM      9  C   UNL     1      -4.700  -8.358  -0.382  0.00  0.00    +0.306 C 
ATOM     10  O   UNL     1      -3.619  -8.914  -0.401  0.00  0.00    -0.252 OA
ATOM     11  N   UNL     1      -5.833  -9.088  -0.376  0.00  0.00    -0.285 N 
ATOM     12  C   UNL     1      -7.144  -8.435  -0.491  0.00  0.00    +0.112 C 
ATOM     13  C   UNL     1      -7.915  -9.078  -1.648  0.00  0.00    +0.004 C 
ATOM     14  C   UNL     1      -7.983 -10.592  -1.431  0.00  0.00    +0.009 C 
ATOM     15  C   UNL     1      -6.566 -11.171  -1.414  0.00  0.00    +0.004 C 
ATOM     16  C   UNL     1      -5.780 -10.552  -0.261  0.00  0.00    +0.112 C 
ATOM     17  C   UNL     1      -6.637 -12.688  -1.232  0.00  0.00    +0.009 C 
ATOM     18  C   UNL     1      -7.198  -8.782  -2.966  0.00  0.00    +0.009 C 
ATOM     19  H   UNL     1      -5.625  -6.567  -0.428  0.00  0.00    +0.156 HD
ENDBRANCH   5   8
BRANCH   1  22
ATOM     20  C   UNL     1      -1.317  -2.502   1.589  0.00  0.00    +0.217 C 
ATOM     21  O   UNL     1      -0.287  -3.141   1.541  0.00  0.00    -0.275 OA
ATOM     22  N   UNL     1      -2.466  -3.041   1.135  0.00  0.00    -0.285 N 
ATOM     23  H   UNL     1      -3.304  -2.570   1.258  0.00  0.00    +0.155 HD
BRANCH  20  24
ATOM     24  C   UNL     1      -1.312  -1.107   2.156  0.00  0.00    +0.096 C 
BRANCH  24  26
ATOM     25  C   UNL     1       0.112   0.677   3.172  0.00  0.00    +0.004 C 
ATOM     26  C   UNL     1       0.107  -0.740   2.596  0.00  0.00    +0.006 C 
ENDBRANCH  24  26
ENDBRANCH  20  24
ENDBRANCH   1  22
TORSDOF 4
