REMARK  Name = ZINC03356099
REMARK  6 active torsions:
REMARK  status: ('A' for Active; 'I' for Inactive)
REMARK    1  A    between atoms: C_6  and  S_7
REMARK    2  A    between atoms: S_7  and  N_10
REMARK    3  A    between atoms: C_16  and  C_18
REMARK    4  A    between atoms: C_18  and  O_19
REMARK    5  A    between atoms: O_19  and  C_20
REMARK    6  A    between atoms: C_20  and  C_22
REMARK                            x       y       z     vdW  Elec       q    Type
REMARK                         _______ _______ _______ _____ _____    ______ ____
ROOT
ATOM      1  N   UNL     1      -0.997   3.039  -1.073  0.00  0.00    -0.174 NA
ATOM      2  C   UNL     1      -0.761   1.597  -1.229  0.00  0.00    +0.128 C 
ATOM      3  C   UNL     1      -0.013   1.086   0.008  0.00  0.00    +0.125 C 
ATOM      4  N   UNL     1      -0.707   1.563   1.212  0.00  0.00    -0.296 N 
ATOM      5  C   UNL     1      -0.947   3.005   1.367  0.00  0.00    +0.125 C 
ATOM      6  C   UNL     1      -1.695   3.517   0.130  0.00  0.00    +0.128 C 
ATOM      7  C   UNL     1      -1.121   0.694   2.155  0.00  0.00    +0.253 C 
ATOM      8  O   UNL     1      -0.922  -0.494   2.014  0.00  0.00    -0.272 OA
ENDROOT
BRANCH   1   9
ATOM      9  S   UNL     1      -0.485   4.108  -2.230  0.00  0.00    +0.061 S 
ATOM     10  O   UNL     1      -0.336   5.365  -1.585  0.00  0.00    -0.153 OA
ATOM     11  O   UNL     1       0.582   3.475  -2.922  0.00  0.00    -0.153 OA
BRANCH   9  17
ATOM     12  C   UNL     1      -1.871   3.455  -4.489  0.00  0.00    +0.030 A 
ATOM     13  C   UNL     1      -2.905   3.593  -5.396  0.00  0.00    +0.022 A 
ATOM     14  C   UNL     1      -3.863   4.573  -5.208  0.00  0.00    +0.041 A 
ATOM     15  C   UNL     1      -3.789   5.411  -4.109  0.00  0.00    +0.022 A 
ATOM     16  C   UNL     1      -2.757   5.268  -3.200  0.00  0.00    +0.030 A 
ATOM     17  C   UNL     1      -1.800   4.289  -3.389  0.00  0.00    +0.106 A 
ATOM     18 CL   UNL     1      -5.159   4.752  -6.350  0.00  0.00    -0.084 Cl
ENDBRANCH   9  17
ENDBRANCH   1   9
BRANCH   7  19
ATOM     19  C   UNL     1      -1.832   1.198   3.384  0.00  0.00    +0.328 C 
BRANCH  19  20
ATOM     20  O   UNL     1      -2.174   0.076   4.240  0.00  0.00    -0.452 OA
BRANCH  20  21
ATOM     21  C   UNL     1      -2.818   0.357   5.390  0.00  0.00    +0.340 C 
ATOM     22  O   UNL     1      -3.088   1.508   5.669  0.00  0.00    -0.245 OA
BRANCH  21  23
ATOM     23  C   UNL     1      -3.197  -0.733   6.309  0.00  0.00    +0.060 A 
ATOM     24  C   UNL     1      -2.890  -2.063   5.983  0.00  0.00    +0.017 A 
ATOM     25  C   UNL     1      -3.228  -3.079   6.825  0.00  0.00    +0.027 A 
ATOM     26  C   UNL     1      -3.895  -2.811   8.020  0.00  0.00    +0.047 A 
ATOM     27  C   UNL     1      -4.215  -1.480   8.356  0.00  0.00    +0.004 A 
ATOM     28  C   UNL     1      -3.863  -0.442   7.496  0.00  0.00    +0.025 A 
ATOM     29  C   UNL     1      -4.899  -1.548   9.644  0.00  0.00    -0.019 A 
ATOM     30  C   UNL     1      -4.951  -2.844  10.002  0.00  0.00    +0.020 A 
ATOM     31  N   UNL     1      -4.355  -3.610   9.040  0.00  0.00    -0.358 N 
ATOM     32  H   UNL     1      -4.269  -4.576   9.071  0.00  0.00    +0.166 HD
ATOM     33  C   UNL     1      -5.584  -3.335  11.284  0.00  0.00    +0.053 C 
ATOM     34  C   UNL     1      -5.742  -2.144  12.236  0.00  0.00    +0.006 C 
ATOM     35  C   UNL     1      -6.425  -0.988  11.500  0.00  0.00    +0.005 C 
ATOM     36  C   UNL     1      -5.460  -0.410  10.457  0.00  0.00    +0.037 C 
ENDBRANCH  21  23
ENDBRANCH  20  21
ENDBRANCH  19  20
ENDBRANCH   7  19
TORSDOF 6
