REMARK  Name = ZINC39594854
REMARK  9 active torsions:
REMARK  status: ('A' for Active; 'I' for Inactive)
REMARK    1  A    between atoms: C_1  and  C_2
REMARK    2  A    between atoms: C_2  and  S_3
REMARK    3  A    between atoms: S_3  and  C_4
REMARK    4  A    between atoms: C_5  and  C_10
REMARK    5  A    between atoms: C_14  and  C_23
REMARK    6  A    between atoms: N_25  and  C_26
REMARK    7  A    between atoms: C_26  and  C_27
REMARK    8  A    between atoms: C_27  and  C_29
REMARK    9  A    between atoms: C_27  and  N_35
REMARK                            x       y       z     vdW  Elec       q    Type
REMARK                         _______ _______ _______ _____ _____    ______ ____
ROOT
ATOM      1  C   UNL     1       1.757  -2.567  -3.564  0.00  0.00    +0.249 C 
ATOM      2  O   UNL     1       1.865  -1.358  -3.639  0.00  0.00    -0.270 OA
ATOM      3  N   UNL     1       2.482  -3.360  -4.379  0.00  0.00    -0.296 N 
ATOM      4  C   UNL     1       2.414  -4.835  -4.506  0.00  0.00    +0.121 C 
ATOM      5  C   UNL     1       2.564  -5.104  -6.020  0.00  0.00    +0.100 C 
ATOM      6  C   UNL     1       3.296  -3.867  -6.567  0.00  0.00    -0.004 C 
ATOM      7  C   UNL     1       3.522  -2.953  -5.354  0.00  0.00    +0.115 C 
ATOM      8  C   UNL     1       4.632  -4.272  -7.181  0.00  0.00    -0.010 C 
ATOM      9  C   UNL     1       5.314  -3.034  -7.770  0.00  0.00    -0.082 C 
ATOM     10  N   UNL     1       4.447  -2.434  -8.791  0.00  0.00    +0.379 N 
ATOM     11  C   UNL     1       3.201  -1.963  -8.174  0.00  0.00    -0.082 C 
ATOM     12  C   UNL     1       2.429  -3.155  -7.602  0.00  0.00    -0.010 C 
ATOM     13  H   UNL     1       4.924  -1.655  -9.220  0.00  0.00    -0.086 HD
ATOM     14  H   UNL     1       4.232  -3.123  -9.495  0.00  0.00    -0.086 HD
ENDROOT
BRANCH   1  16
ATOM     15  C   UNL     1      -0.393  -2.545  -2.284  0.00  0.00    +0.109 A 
ATOM     16  C   UNL     1       0.833  -3.166  -2.584  0.00  0.00    +0.069 A 
ATOM     17  C   UNL     1       1.160  -4.361  -1.935  0.00  0.00    +0.017 A 
ATOM     18  C   UNL     1       0.258  -4.882  -1.023  0.00  0.00    +0.020 A 
ATOM     19  C   UNL     1      -0.929  -4.214  -0.780  0.00  0.00    +0.112 A 
ATOM     20  N   UNL     1      -1.216  -3.085  -1.398  0.00  0.00    -0.248 NA
BRANCH  15  21
ATOM     21  S   UNL     1      -0.831  -1.038  -3.084  0.00  0.00    -0.105 S 
BRANCH  21  23
ATOM     22  C   UNL     1      -2.959   0.679  -3.003  0.00  0.00    +0.015 C 
ATOM     23  C   UNL     1      -2.454  -0.626  -2.386  0.00  0.00    +0.072 C 
ENDBRANCH  21  23
ENDBRANCH  15  21
ENDBRANCH   1  16
BRANCH   5  24
ATOM     24  C   UNL     1       3.382  -6.347  -6.254  0.00  0.00    +0.218 C 
ATOM     25  O   UNL     1       4.229  -6.676  -5.450  0.00  0.00    -0.275 OA
ATOM     26  N   UNL     1       3.174  -7.094  -7.356  0.00  0.00    -0.316 N 
ATOM     27  H   UNL     1       2.496  -6.831  -7.999  0.00  0.00    +0.149 HD
BRANCH  26  28
ATOM     28  C   UNL     1       3.970  -8.303  -7.584  0.00  0.00    +0.093 C 
BRANCH  28  29
ATOM     29  C   UNL     1       3.473  -9.010  -8.847  0.00  0.00    -0.019 C 
BRANCH  29  30
ATOM     30  C   UNL     1       3.721  -8.131 -10.045  0.00  0.00    -0.041 A 
ATOM     31  C   UNL     1       2.695  -7.370 -10.583  0.00  0.00    +0.005 A 
ATOM     32  C   UNL     1       2.969  -6.576 -11.686  0.00  0.00    +0.020 A 
ATOM     33  C   UNL     1       4.248  -6.570 -12.210  0.00  0.00    +0.111 A 
ATOM     34  N   UNL     1       5.200  -7.308 -11.673  0.00  0.00    -0.263 NA
ATOM     35  C   UNL     1       4.977  -8.070 -10.620  0.00  0.00    +0.112 A 
ENDBRANCH  29  30
BRANCH  29  36
ATOM     36  N   UNL     1       4.194 -10.279  -9.012  0.00  0.00    +0.385 N 
ATOM     37  C   UNL     1       3.921 -11.177  -7.861  0.00  0.00    -0.078 C 
ATOM     38  C   UNL     1       4.244 -12.584  -8.424  0.00  0.00    -0.020 C 
ATOM     39  C   UNL     1       3.732 -12.499  -9.880  0.00  0.00    -0.020 C 
ATOM     40  C   UNL     1       3.698 -10.995 -10.208  0.00  0.00    -0.078 C 
ATOM     41  H   UNL     1       5.185 -10.109  -9.095  0.00  0.00    -0.081 HD
ENDBRANCH  29  36
ENDBRANCH  28  29
ENDBRANCH  26  28
ENDBRANCH   5  24
TORSDOF 8
