REMARK  Name = ZINC15745621
REMARK  7 active torsions:
REMARK  status: ('A' for Active; 'I' for Inactive)
REMARK    1  A    between atoms: C_1  and  C_2
REMARK    2  A    between atoms: C_2  and  O_3
REMARK    3  A    between atoms: O_3  and  C_4
REMARK    4  A    between atoms: C_6  and  C_11
REMARK    5  A    between atoms: C_9  and  O_10
REMARK    6  A    between atoms: N_18  and  C_21
REMARK    7  A    between atoms: C_25  and  C_27
REMARK                            x       y       z     vdW  Elec       q    Type
REMARK                         _______ _______ _______ _____ _____    ______ ____
ROOT
ATOM      1  C   UNL     1      -2.622   3.752   0.776  0.00  0.00    +0.026 C 
ATOM      2  C   UNL     1      -3.752   3.107   0.312  0.00  0.00    +0.100 C 
ATOM      3  C   UNL     1      -3.713   1.695  -0.118  0.00  0.00    +0.257 C 
ATOM      4  O   UNL     1      -2.678   1.057  -0.075  0.00  0.00    -0.270 OA
ATOM      5  N   UNL     1      -4.857   1.132  -0.559  0.00  0.00    -0.235 N 
ATOM      6  C   UNL     1      -6.004   1.823  -0.611  0.00  0.00    +0.320 C 
ATOM      7  O   UNL     1      -6.998   1.256  -1.020  0.00  0.00    -0.251 OA
ATOM      8  N   UNL     1      -6.114   3.106  -0.238  0.00  0.00    -0.190 N 
ATOM      9  C   UNL     1      -5.054   3.798   0.229  0.00  0.00    +0.263 C 
ATOM     10  O   UNL     1      -5.168   4.960   0.570  0.00  0.00    -0.269 OA
ATOM     11  H   UNL     1      -4.849   0.205  -0.845  0.00  0.00    +0.159 HD
ENDROOT
BRANCH   8  12
ATOM     12  C   UNL     1      -7.359   3.741  -0.331  0.00  0.00    +0.046 A 
ATOM     13  C   UNL     1      -8.291   3.597   0.689  0.00  0.00    +0.025 A 
ATOM     14  C   UNL     1      -9.518   4.225   0.596  0.00  0.00    +0.017 A 
ATOM     15  C   UNL     1      -9.819   4.996  -0.513  0.00  0.00    +0.021 A 
ATOM     16  C   UNL     1      -8.893   5.141  -1.531  0.00  0.00    -0.035 A 
ATOM     17  C   UNL     1      -7.662   4.520  -1.439  0.00  0.00    +0.028 A 
ATOM     18  C   UNL     1      -9.225   5.981  -2.736  0.00  0.00    +0.045 C 
ATOM     19 BR   UNL     1     -11.500   5.853  -0.638  0.00  0.00    -0.050 Br
ENDBRANCH   8  12
BRANCH   1  22
ATOM     20  C   UNL     1       0.855   2.566   1.508  0.00  0.00    +0.162 A 
ATOM     21  C   UNL     1      -0.383   3.152   1.669  0.00  0.00    +0.057 A 
ATOM     22  C   UNL     1      -1.307   3.131   0.614  0.00  0.00    -0.020 A 
ATOM     23  C   UNL     1      -0.964   2.517  -0.601  0.00  0.00    +0.012 A 
ATOM     24  C   UNL     1       0.272   1.930  -0.748  0.00  0.00    +0.050 A 
ATOM     25  C   UNL     1       1.186   1.952   0.299  0.00  0.00    +0.158 A 
BRANCH  25  26
ATOM     26  O   UNL     1       2.405   1.376   0.144  0.00  0.00    -0.503 OA
ATOM     27  H   UNL     1       3.082   1.974  -0.200  0.00  0.00    +0.292 HD
ENDBRANCH  25  26
BRANCH  20  28
ATOM     28  O   UNL     1       1.754   2.584   2.529  0.00  0.00    -0.489 OA
BRANCH  28  30
ATOM     29  C   UNL     1       2.482   3.149   4.763  0.00  0.00    +0.048 C 
ATOM     30  C   UNL     1       1.349   3.229   3.738  0.00  0.00    +0.226 C 
ENDBRANCH  28  30
ENDBRANCH  20  28
ENDBRANCH   1  22
TORSDOF 5
