REMARK  Name = ZINC03149547
REMARK  5 active torsions:
REMARK  status: ('A' for Active; 'I' for Inactive)
REMARK    1  A    between atoms: C_9  and  O_23
REMARK    2  A    between atoms: C_10  and  C_11
REMARK    3  A    between atoms: N_12  and  N_13
REMARK    4  A    between atoms: C_14  and  C_16
REMARK    5  A    between atoms: C_19  and  N_22
REMARK                            x       y       z     vdW  Elec       q    Type
REMARK                         _______ _______ _______ _____ _____    ______ ____
ROOT
ATOM      1  C   UNL     1       4.982   0.092  -0.046  0.00  0.00    +0.142 C 
ATOM      2  N   UNL     1       6.109  -0.555  -0.060  0.00  0.00    -0.187 NA
ENDROOT
BRANCH   1  12
ATOM      3  C   UNL     1      -0.016   1.357   0.009  0.00  0.00    +0.001 A 
ATOM      4  C   UNL     1       1.167   2.091   0.002  0.00  0.00    +0.001 A 
ATOM      5  C   UNL     1       2.379   1.466  -0.013  0.00  0.00    +0.009 A 
ATOM      6  C   UNL     1       2.435   0.067  -0.021  0.00  0.00    -0.006 A 
ATOM      7  C   UNL     1       1.233  -0.683  -0.013  0.00  0.00    -0.017 A 
ATOM      8  C   UNL     1       0.002  -0.004   0.002  0.00  0.00    +0.008 A 
ATOM      9  C   UNL     1       1.291  -2.087  -0.020  0.00  0.00    +0.012 A 
ATOM     10  C   UNL     1       2.487  -2.733  -0.035  0.00  0.00    +0.046 A 
ATOM     11  C   UNL     1       3.696  -2.040  -0.042  0.00  0.00    +0.126 A 
ATOM     12  C   UNL     1       3.711  -0.645  -0.037  0.00  0.00    +0.044 A 
BRANCH  11  13
ATOM     13  O   UNL     1       4.868  -2.727  -0.056  0.00  0.00    -0.506 OA
ATOM     14  H   UNL     1       5.199  -2.922  -0.944  0.00  0.00    +0.292 HD
ENDBRANCH  11  13
ENDBRANCH   1  12
BRANCH   2  15
ATOM     15  N   UNL     1       7.321   0.148  -0.069  0.00  0.00    -0.203 N 
ATOM     16  C   UNL     1       8.490  -0.523  -0.084  0.00  0.00    +0.263 C 
ATOM     17  O   UNL     1       8.492  -1.740  -0.089  0.00  0.00    -0.268 OA
ATOM     18  H   UNL     1       7.319   1.118  -0.065  0.00  0.00    +0.178 HD
BRANCH  16  19
ATOM     19  C   UNL     1       9.765   0.217  -0.093  0.00  0.00    +0.038 A 
ATOM     20  C   UNL     1       9.764   1.615  -0.081  0.00  0.00    +0.015 A 
ATOM     21  C   UNL     1      10.956   2.303  -0.089  0.00  0.00    +0.023 A 
ATOM     22  C   UNL     1      12.162   1.608  -0.110  0.00  0.00    +0.025 A 
ATOM     23  C   UNL     1      12.167   0.216  -0.123  0.00  0.00    +0.023 A 
ATOM     24  C   UNL     1      10.978  -0.478  -0.108  0.00  0.00    +0.015 A 
BRANCH  22  25
ATOM     25  N   UNL     1      13.365   2.306  -0.119  0.00  0.00    -0.358 N 
ATOM     26  H   UNL     1      13.363   3.276  -0.110  0.00  0.00    +0.142 HD
ATOM     27  H   UNL     1      14.206   1.823  -0.133  0.00  0.00    +0.142 HD
ENDBRANCH  22  25
ENDBRANCH  16  19
ENDBRANCH   2  15
TORSDOF 5
