REMARK  Name = ZINC05628452
REMARK  5 active torsions:
REMARK  status: ('A' for Active; 'I' for Inactive)
REMARK    1  A    between atoms: C_1  and  C_2
REMARK    2  A    between atoms: C_15  and  C_17
REMARK    3  A    between atoms: C_17  and  C_19
REMARK    4  A    between atoms: C_17  and  S_20
REMARK    5  A    between atoms: S_20  and  C_21
REMARK                            x       y       z     vdW  Elec       q    Type
REMARK                         _______ _______ _______ _____ _____    ______ ____
ROOT
ATOM      1  C   UNL     1      -0.019   1.526   0.010  0.00  0.00    +0.008 C 
ATOM      2  C   UNL     1       0.002  -0.004   0.002  0.00  0.00    -0.009 C 
ATOM      3  C   UNL     1      -1.433  -0.537   0.021  0.00  0.00    +0.008 C 
ATOM      4  C   UNL     1      -1.430  -2.044  -0.237  0.00  0.00    +0.037 C 
ATOM      5  C   UNL     1      -0.472  -2.712   0.745  0.00  0.00    -0.023 A 
ATOM      6  C   UNL     1       0.476  -1.985   1.383  0.00  0.00    -0.004 A 
ATOM      7  S   UNL     1       1.343  -3.148   2.406  0.00  0.00    -0.073 S 
ATOM      8  C   UNL     1       0.437  -4.601   1.978  0.00  0.00    +0.116 A 
ATOM      9  C   UNL     1      -0.517  -4.131   1.048  0.00  0.00    +0.075 A 
ATOM     10  C   UNL     1      -1.426  -5.099   0.502  0.00  0.00    +0.260 A 
ATOM     11  O   UNL     1      -2.286  -4.796  -0.308  0.00  0.00    -0.267 OA
ATOM     12  N   UNL     1      -1.267  -6.369   0.944  0.00  0.00    -0.309 N 
ATOM     13  H   UNL     1      -1.860  -7.056   0.601  0.00  0.00    +0.170 HD
ATOM     14  C   UNL     1      -0.319  -6.726   1.843  0.00  0.00    +0.124 A 
ATOM     15  N   UNL     1       0.532  -5.869   2.365  0.00  0.00    -0.225 NA
ATOM     16  C   UNL     1       0.737  -0.516   1.249  0.00  0.00    +0.046 C 
ENDROOT
BRANCH  14  17
ATOM     17  C   UNL     1      -0.234  -8.170   2.263  0.00  0.00    +0.117 C 
ATOM     18  C   UNL     1      -1.028  -8.373   3.555  0.00  0.00    +0.027 C 
BRANCH  17  19
ATOM     19  S   UNL     1       1.502  -8.617   2.545  0.00  0.00    -0.077 S 
BRANCH  19  20
ATOM     20  C   UNL     1       1.448 -10.347   2.879  0.00  0.00    +0.168 A 
ATOM     21  N   UNL     1       2.534 -11.127   3.159  0.00  0.00    -0.333 N 
ATOM     22  H   UNL     1       3.457 -10.832   3.209  0.00  0.00    +0.168 HD
ATOM     23  C   UNL     1       2.072 -12.417   3.360  0.00  0.00    +0.067 A 
ATOM     24  C   UNL     1       2.687 -13.621   3.668  0.00  0.00    +0.028 A 
ATOM     25  C   UNL     1       1.927 -14.765   3.804  0.00  0.00    +0.002 A 
ATOM     26  C   UNL     1       0.551 -14.719   3.635  0.00  0.00    +0.002 A 
ATOM     27  C   UNL     1      -0.076 -13.532   3.329  0.00  0.00    +0.030 A 
ATOM     28  C   UNL     1       0.679 -12.365   3.187  0.00  0.00    +0.090 A 
ATOM     29  N   UNL     1       0.359 -11.076   2.901  0.00  0.00    -0.222 NA
ENDBRANCH  19  20
ENDBRANCH  17  19
ENDBRANCH  14  17
TORSDOF 3
