REMARK  Name = ZINC63221895
REMARK  8 active torsions:
REMARK  status: ('A' for Active; 'I' for Inactive)
REMARK    1  A    between atoms: C_1  and  O_2
REMARK    2  A    between atoms: O_2  and  C_3
REMARK    3  A    between atoms: C_6  and  C_9
REMARK    4  A    between atoms: C_9  and  C_11
REMARK    5  A    between atoms: C_9  and  C_28
REMARK    6  A    between atoms: C_11  and  N_12
REMARK    7  A    between atoms: C_16  and  S_19
REMARK    8  A    between atoms: S_19  and  N_22
REMARK                            x       y       z     vdW  Elec       q    Type
REMARK                         _______ _______ _______ _____ _____    ______ ____
ROOT
ATOM      1  C   UNL     1       2.505  -2.503  -4.381  0.00  0.00    +0.064 C 
ENDROOT
BRANCH   1   2
ATOM      2  C   UNL     1       3.645  -3.357  -3.889  0.00  0.00    -0.033 C 
ATOM      3  C   UNL     1       4.952  -3.232  -4.212  0.00  0.00    -0.000 A 
ATOM      4  C   UNL     1       5.677  -2.300  -5.084  0.00  0.00    +0.010 A 
ATOM      5  C   UNL     1       7.017  -2.426  -5.210  0.00  0.00    +0.001 A 
ATOM      6  C   UNL     1       7.731  -3.423  -4.531  0.00  0.00    +0.002 A 
ATOM      7  C   UNL     1       7.135  -4.316  -3.712  0.00  0.00    +0.026 A 
ATOM      8  C   UNL     1       5.729  -4.275  -3.505  0.00  0.00    +0.043 A 
ATOM      9  N   UNL     1       4.932  -5.017  -2.774  0.00  0.00    -0.380 N 
ATOM     10  C   UNL     1       3.560  -4.523  -2.930  0.00  0.00    +0.145 C 
ATOM     11  H   UNL     1       5.205  -5.764  -2.220  0.00  0.00    +0.160 HD
ENDBRANCH   1   2
BRANCH   1  15
ATOM     12  C   UNL     1       0.606  -0.607  -1.056  0.00  0.00    +0.120 A 
ATOM     13  C   UNL     1       1.173   0.161  -2.062  0.00  0.00    +0.046 A 
ATOM     14  C   UNL     1       1.786  -0.455  -3.136  0.00  0.00    +0.008 A 
ATOM     15  C   UNL     1       1.835  -1.835  -3.209  0.00  0.00    -0.038 A 
ATOM     16  C   UNL     1       1.270  -2.602  -2.207  0.00  0.00    +0.008 A 
ATOM     17  C   UNL     1       0.661  -1.992  -1.128  0.00  0.00    +0.046 A 
BRANCH  12  19
ATOM     18  C   UNL     1      -0.017   1.425   0.010  0.00  0.00    +0.277 C 
ATOM     19  O   UNL     1       0.002  -0.004   0.002  0.00  0.00    -0.495 OA
ENDBRANCH  12  19
ENDBRANCH   1  15
BRANCH   1  20
ATOM     20  C   UNL     1       1.490  -3.382  -5.115  0.00  0.00    +0.115 C 
BRANCH  20  21
ATOM     21  N   UNL     1       2.107  -3.938  -6.322  0.00  0.00    -0.328 N 
ATOM     22  C   UNL     1       1.373  -4.773  -7.157  0.00  0.00    +0.119 A 
ATOM     23  C   UNL     1       0.051  -5.073  -6.842  0.00  0.00    +0.045 A 
ATOM     24  C   UNL     1      -0.667  -5.905  -7.681  0.00  0.00    +0.033 A 
ATOM     25  C   UNL     1      -0.037  -6.412  -8.811  0.00  0.00    +0.124 A 
ATOM     26  C   UNL     1       1.277  -6.073  -9.061  0.00  0.00    +0.141 A 
ATOM     27  N   UNL     1       1.937  -5.272  -8.246  0.00  0.00    -0.239 NA
ATOM     28  H   UNL     1       3.027  -3.722  -6.539  0.00  0.00    +0.147 HD
BRANCH  25  29
ATOM     29  S   UNL     1      -0.907  -7.478  -9.912  0.00  0.00    +0.062 S 
ATOM     30  O   UNL     1       0.075  -8.246 -10.594  0.00  0.00    -0.153 OA
ATOM     31  O   UNL     1      -1.953  -8.075  -9.158  0.00  0.00    -0.153 OA
BRANCH  29  32
ATOM     32  N   UNL     1      -1.631  -6.519 -11.051  0.00  0.00    -0.177 NA
ATOM     33  C   UNL     1      -2.986  -5.993 -10.834  0.00  0.00    +0.109 C 
ATOM     34  C   UNL     1      -2.959  -4.472 -11.012  0.00  0.00    +0.017 C 
ATOM     35  C   UNL     1      -2.365  -4.133 -12.381  0.00  0.00    +0.003 C 
ATOM     36  C   UNL     1      -0.928  -4.654 -12.459  0.00  0.00    +0.017 C 
ATOM     37  C   UNL     1      -0.930  -6.172 -12.294  0.00  0.00    +0.109 C 
ENDBRANCH  29  32
ENDBRANCH  25  29
ENDBRANCH  20  21
ENDBRANCH   1  20
TORSDOF 7
