REMARK  Name = ZINC41004926
REMARK  12 active torsions:
REMARK  status: ('A' for Active; 'I' for Inactive)
REMARK    1  A    between atoms: C_1  and  C_2
REMARK    2  A    between atoms: C_2  and  O_3
REMARK    3  A    between atoms: O_3  and  C_4
REMARK    4  A    between atoms: C_6  and  C_14
REMARK    5  A    between atoms: C_9  and  O_10
REMARK    6  A    between atoms: O_10  and  C_11
REMARK    7  A    between atoms: C_11  and  C_12
REMARK    8  A    between atoms: C_16  and  C_28
REMARK    9  A    between atoms: C_17  and  C_27
REMARK   10  A    between atoms: C_22  and  S_24
REMARK   11  A    between atoms: S_24  and  C_25
REMARK   12  A    between atoms: C_25  and  C_26
REMARK                            x       y       z     vdW  Elec       q    Type
REMARK                         _______ _______ _______ _____ _____    ______ ____
ROOT
ATOM      1  C   UNL     1      -0.198  -4.948  -0.445  0.00  0.00    +0.177 C 
ATOM      2  C   UNL     1       0.970  -5.751  -0.953  0.00  0.00    +0.060 C 
ATOM      3  C   UNL     1       1.081  -7.075  -0.776  0.00  0.00    +0.018 C 
ATOM      4  N   UNL     1       0.122  -7.808  -0.121  0.00  0.00    -0.287 N 
ATOM      5  C   UNL     1      -1.096  -7.191   0.126  0.00  0.00    +0.219 A 
ATOM      6  N   UNL     1      -1.264  -5.854  -0.025  0.00  0.00    -0.220 N 
ATOM      7  N   UNL     1      -2.592  -5.578   0.296  0.00  0.00    -0.141 NA
ATOM      8  C   UNL     1      -3.149  -6.725   0.621  0.00  0.00    +0.210 A 
ATOM      9  N   UNL     1      -2.233  -7.700   0.517  0.00  0.00    -0.187 NA
ATOM     10  C   UNL     1       2.298  -7.783  -1.313  0.00  0.00    +0.061 C 
ATOM     11  H   UNL     1       0.289  -8.722   0.157  0.00  0.00    +0.155 HD
ENDROOT
BRANCH   1  14
ATOM     12  C   UNL     1       0.540  -1.960   1.746  0.00  0.00    +0.163 A 
ATOM     13  C   UNL     1       0.137  -2.733   0.669  0.00  0.00    +0.055 A 
ATOM     14  C   UNL     1       0.241  -4.110   0.728  0.00  0.00    -0.014 A 
ATOM     15  C   UNL     1       0.747  -4.720   1.861  0.00  0.00    +0.025 A 
ATOM     16  C   UNL     1       1.150  -3.955   2.941  0.00  0.00    +0.063 A 
ATOM     17  C   UNL     1       1.054  -2.573   2.885  0.00  0.00    +0.176 A 
ATOM     18 BR   UNL     1       1.839  -4.793   4.489  0.00  0.00    -0.046 Br
BRANCH  12  19
ATOM     19  O   UNL     1       0.438  -0.605   1.689  0.00  0.00    -0.489 OA
BRANCH  19  21
ATOM     20  C   UNL     1      -0.137   1.480   0.611  0.00  0.00    +0.048 C 
ATOM     21  C   UNL     1      -0.100  -0.045   0.489  0.00  0.00    +0.226 C 
ENDBRANCH  19  21
ENDBRANCH  12  19
BRANCH  17  22
ATOM     22  O   UNL     1       1.456  -1.818   3.943  0.00  0.00    -0.487 OA
BRANCH  22  23
ATOM     23  C   UNL     1       0.475  -1.526   4.940  0.00  0.00    +0.226 C 
ATOM     24  C   UNL     1       1.107  -0.674   6.043  0.00  0.00    +0.048 C 
ENDBRANCH  22  23
ENDBRANCH  17  22
ENDBRANCH   1  14
BRANCH   2  25
ATOM     25  C   UNL     1       2.000  -5.075  -1.650  0.00  0.00    +0.241 C 
ATOM     26  O   UNL     1       1.814  -4.695  -2.792  0.00  0.00    -0.271 OA
ATOM     27  N   UNL     1       3.186  -4.853  -1.051  0.00  0.00    -0.325 N 
ATOM     28  H   UNL     1       3.334  -5.156  -0.141  0.00  0.00    +0.145 HD
ATOM     29  H   UNL     1       3.892  -4.390  -1.529  0.00  0.00    +0.145 HD
ENDBRANCH   2  25
BRANCH   8  30
ATOM     30  S   UNL     1      -4.826  -6.946   1.114  0.00  0.00    -0.085 S 
BRANCH  30  31
ATOM     31  C   UNL     1      -4.963  -8.728   1.420  0.00  0.00    +0.074 C 
ATOM     32  C   UNL     1      -6.389  -9.062   1.861  0.00  0.00    +0.016 C 
ENDBRANCH  30  31
ENDBRANCH   8  30
TORSDOF 8
