REMARK  Name = ZINC06300199
REMARK  8 active torsions:
REMARK  status: ('A' for Active; 'I' for Inactive)
REMARK    1  A    between atoms: C_1  and  C_2
REMARK    2  A    between atoms: C_9  and  N_31
REMARK    3  A    between atoms: C_10  and  C_29
REMARK    4  A    between atoms: C_11  and  C_13
REMARK    5  A    between atoms: C_15  and  C_19
REMARK    6  A    between atoms: C_16  and  C_18
REMARK    7  A    between atoms: C_19  and  O_20
REMARK    8  A    between atoms: O_20  and  C_21
REMARK                            x       y       z     vdW  Elec       q    Type
REMARK                         _______ _______ _______ _____ _____    ______ ____
ROOT
ATOM      1  C   UNL     1      -0.018   1.503   0.010  0.00  0.00    +0.065 C 
ATOM      2  C   UNL     1       0.002  -0.004   0.002  0.00  0.00    +0.041 A 
ATOM      3  C   UNL     1       0.008  -0.790  -1.085  0.00  0.00    +0.049 A 
ATOM      4  C   UNL     1       0.030  -2.135  -0.654  0.00  0.00    +0.245 A 
ATOM      5  N   UNL     1       0.036  -2.141   0.647  0.00  0.00    -0.135 NA
ATOM      6  N   UNL     1       0.024  -0.809   1.090  0.00  0.00    -0.278 N 
ATOM      7  H   UNL     1       0.028  -0.516   2.015  0.00  0.00    +0.189 HD
ATOM      8  O   UNL     1       0.045  -3.173  -1.533  0.00  0.00    -0.421 OA
ATOM      9  C   UNL     1       0.309  -2.890  -2.824  0.00  0.00    +0.201 C 
ATOM     10  C   UNL     1       0.305  -1.648  -3.351  0.00  0.00    +0.099 C 
ATOM     11  C   UNL     1      -0.006  -0.413  -2.545  0.00  0.00    +0.108 C 
ENDROOT
BRANCH  11  12
ATOM     12  C   UNL     1      -1.368   0.111  -2.922  0.00  0.00    +0.003 A 
ATOM     13  C   UNL     1      -1.707   1.325  -3.419  0.00  0.00    +0.019 A 
ATOM     14  C   UNL     1      -3.036   1.589  -3.696  0.00  0.00    -0.000 A 
ATOM     15  C   UNL     1      -3.960   0.625  -3.461  0.00  0.00    -0.007 A 
ATOM     16  S   UNL     1      -2.951  -0.709  -2.837  0.00  0.00    -0.097 S 
ATOM     17  C   UNL     1      -5.450   0.667  -3.677  0.00  0.00    +0.052 C 
BRANCH  14  18
ATOM     18  C   UNL     1      -3.451   2.928  -4.249  0.00  0.00    +0.265 C 
BRANCH  18  19
ATOM     19  O   UNL     1      -2.297   3.758  -4.403  0.00  0.00    -0.486 OA
BRANCH  19  20
ATOM     20  C   UNL     1      -2.499   5.009  -4.895  0.00  0.00    +0.139 A 
ATOM     21  C   UNL     1      -3.780   5.431  -5.217  0.00  0.00    +0.050 A 
ATOM     22  C   UNL     1      -3.984   6.702  -5.716  0.00  0.00    +0.042 A 
ATOM     23  C   UNL     1      -2.909   7.557  -5.896  0.00  0.00    +0.125 A 
ATOM     24  C   UNL     1      -1.629   7.139  -5.575  0.00  0.00    +0.062 A 
ATOM     25  C   UNL     1      -1.423   5.868  -5.070  0.00  0.00    +0.085 A 
ATOM     26 CL   UNL     1       0.181   5.346  -4.662  0.00  0.00    -0.080 Cl
ATOM     27  F   UNL     1      -3.110   8.800  -6.385  0.00  0.00    -0.205 F 
ENDBRANCH  19  20
ENDBRANCH  18  19
ENDBRANCH  14  18
ENDBRANCH  11  12
BRANCH   9  28
ATOM     28  N   UNL     1       0.604  -3.938  -3.660  0.00  0.00    -0.328 N 
ATOM     29  H   UNL     1       0.617  -4.845  -3.315  0.00  0.00    +0.145 HD
ATOM     30  H   UNL     1       0.800  -3.772  -4.595  0.00  0.00    +0.145 HD
ENDBRANCH   9  28
BRANCH  10  31
ATOM     31  C   UNL     1       0.611  -1.496  -4.742  0.00  0.00    +0.101 C 
ATOM     32  N   UNL     1       0.853  -1.376  -5.846  0.00  0.00    -0.191 NA
ENDBRANCH  10  31
TORSDOF 6
