REMARK  Name = ZINC10212232
REMARK  8 active torsions:
REMARK  status: ('A' for Active; 'I' for Inactive)
REMARK    1  A    between atoms: C_1  and  C_2
REMARK    2  A    between atoms: C_5  and  N_9
REMARK    3  A    between atoms: C_7  and  C_8
REMARK    4  A    between atoms: C_13  and  S_15
REMARK    5  A    between atoms: S_15  and  C_16
REMARK    6  A    between atoms: C_16  and  C_17
REMARK    7  A    between atoms: N_19  and  C_20
REMARK    8  A    between atoms: C_21  and  C_25
REMARK                            x       y       z     vdW  Elec       q    Type
REMARK                         _______ _______ _______ _____ _____    ______ ____
ROOT
ATOM      1  S   UNL     1      -7.872   1.806  -0.388  0.00  0.00    -0.088 S 
ENDROOT
BRANCH   1   6
ATOM      2  N   UNL     1      -2.454   3.823   0.045  0.00  0.00    -0.292 N 
ATOM      3  C   UNL     1      -3.648   3.118  -0.051  0.00  0.00    +0.187 A 
ATOM      4  N   UNL     1      -3.850   1.815  -0.081  0.00  0.00    -0.125 NA
ATOM      5  N   UNL     1      -5.131   1.323  -0.178  0.00  0.00    -0.133 NA
ATOM      6  C   UNL     1      -6.151   2.157  -0.252  0.00  0.00    +0.160 A 
ATOM      7  S   UNL     1      -5.320   3.736  -0.177  0.00  0.00    -0.024 S 
ATOM      8  H   UNL     1      -2.466   4.788   0.141  0.00  0.00    +0.154 HD
BRANCH   2  13
ATOM      9  C   UNL     1       2.493   1.054  -0.116  0.00  0.00    +0.044 C 
ATOM     10  C   UNL     1       1.178   1.790  -0.073  0.00  0.00    -0.047 A 
ATOM     11  C   UNL     1       1.096   3.019   0.555  0.00  0.00    +0.005 A 
ATOM     12  C   UNL     1      -0.108   3.693   0.601  0.00  0.00    +0.023 A 
ATOM     13  C   UNL     1      -1.235   3.141   0.006  0.00  0.00    +0.033 A 
ATOM     14  C   UNL     1      -1.149   1.905  -0.624  0.00  0.00    +0.027 A 
ATOM     15  C   UNL     1       0.057   1.234  -0.661  0.00  0.00    -0.046 A 
ATOM     16  C   UNL     1       0.152  -0.106  -1.344  0.00  0.00    +0.044 C 
ENDBRANCH   2  13
ENDBRANCH   1   6
BRANCH   1  17
ATOM     17  C   UNL     1      -7.951  -0.006  -0.406  0.00  0.00    +0.172 C 
BRANCH  17  18
ATOM     18  C   UNL     1      -9.388  -0.446  -0.520  0.00  0.00    +0.228 C 
ATOM     19  O   UNL     1     -10.272   0.382  -0.584  0.00  0.00    -0.275 OA
ATOM     20  N   UNL     1      -9.691  -1.758  -0.552  0.00  0.00    -0.279 N 
ATOM     21  H   UNL     1      -8.984  -2.421  -0.501  0.00  0.00    +0.155 HD
BRANCH  20  22
ATOM     22  C   UNL     1     -11.013  -2.163  -0.658  0.00  0.00    +0.084 A 
ATOM     23  C   UNL     1     -11.519  -3.456  -0.711  0.00  0.00    +0.065 A 
ATOM     24  C   UNL     1     -12.952  -3.589  -0.818  0.00  0.00    +0.022 A 
ATOM     25  C   UNL     1     -13.672  -2.454  -0.868  0.00  0.00    +0.048 A 
ATOM     26  S   UNL     1     -12.434  -1.178  -0.763  0.00  0.00    -0.081 S 
BRANCH  23  27
ATOM     27  C   UNL     1     -10.639  -4.629  -0.656  0.00  0.00    +0.244 C 
ATOM     28  O   UNL     1      -9.435  -4.482  -0.562  0.00  0.00    -0.270 OA
ATOM     29  N   UNL     1     -11.165  -5.868  -0.710  0.00  0.00    -0.325 N 
ATOM     30  H   UNL     1     -12.126  -5.985  -0.785  0.00  0.00    +0.145 HD
ATOM     31  H   UNL     1     -10.584  -6.644  -0.674  0.00  0.00    +0.145 HD
ENDBRANCH  23  27
ENDBRANCH  20  22
ENDBRANCH  17  18
ENDBRANCH   1  17
TORSDOF 6
