REMARK  Name = ZINC61882331
REMARK  7 active torsions:
REMARK  status: ('A' for Active; 'I' for Inactive)
REMARK    1  A    between atoms: C_1  and  C_2
REMARK    2  A    between atoms: C_2  and  C_4
REMARK    3  A    between atoms: C_2  and  N_10
REMARK    4  A    between atoms: C_4  and  N_5
REMARK    5  A    between atoms: N_10  and  S_11
REMARK    6  A    between atoms: S_11  and  C_14
REMARK    7  A    between atoms: C_18  and  N_21
REMARK                            x       y       z     vdW  Elec       q    Type
REMARK                         _______ _______ _______ _____ _____    ______ ____
ROOT
ATOM      1  S   UNL     1       2.241  -0.509  -0.797  0.00  0.00    +0.060 S 
ATOM      2  O   UNL     1       2.457  -1.459   0.237  0.00  0.00    -0.153 OA
ATOM      3  O   UNL     1       2.691  -0.717  -2.129  0.00  0.00    -0.153 OA
ENDROOT
BRANCH   1   4
ATOM      4  C   UNL     1       2.965   1.002  -0.252  0.00  0.00    +0.122 A 
ATOM      5  C   UNL     1       3.617   1.055   0.967  0.00  0.00    +0.049 A 
ATOM      6  C   UNL     1       4.187   2.240   1.399  0.00  0.00    +0.045 A 
ATOM      7  C   UNL     1       4.107   3.374   0.612  0.00  0.00    +0.044 A 
ATOM      8  C   UNL     1       3.454   3.324  -0.612  0.00  0.00    +0.042 A 
ATOM      9  C   UNL     1       2.886   2.131  -1.045  0.00  0.00    +0.065 A 
ATOM     10 BR   UNL     1       2.002   2.054  -2.714  0.00  0.00    -0.046 Br
ATOM     11 CL   UNL     1       5.003   2.301   2.930  0.00  0.00    -0.083 Cl
BRANCH   8  12
ATOM     12  N   UNL     1       3.370   4.468  -1.409  0.00  0.00    -0.357 N 
ATOM     13  H   UNL     1       3.769   5.299  -1.107  0.00  0.00    +0.142 HD
ATOM     14  H   UNL     1       2.914   4.432  -2.263  0.00  0.00    +0.142 HD
ENDBRANCH   8  12
ENDBRANCH   1   4
BRANCH   1  15
ATOM     15  N   UNL     1       0.606  -0.265  -0.883  0.00  0.00    -0.189 NA
ATOM     16  H   UNL     1       0.153  -0.307  -1.740  0.00  0.00    +0.148 HD
BRANCH  15  18
ATOM     17  C   UNL     1      -0.336   1.525   0.491  0.00  0.00    +0.024 C 
ATOM     18  C   UNL     1      -0.158   0.013   0.336  0.00  0.00    +0.057 C 
BRANCH  18  19
ATOM     19  C   UNL     1      -1.531  -0.655   0.241  0.00  0.00    -0.059 C 
BRANCH  19  20
ATOM     20  N   UNL     1      -1.360  -2.096   0.011  0.00  0.00    +0.381 N 
ATOM     21  C   UNL     1      -0.798  -2.745   1.223  0.00  0.00    -0.079 C 
ATOM     22  C   UNL     1      -1.201  -4.231   1.048  0.00  0.00    -0.020 C 
ATOM     23  C   UNL     1      -2.611  -4.135   0.422  0.00  0.00    -0.020 C 
ATOM     24  C   UNL     1      -2.673  -2.736  -0.218  0.00  0.00    -0.079 C 
ATOM     25  H   UNL     1      -0.754  -2.252  -0.781  0.00  0.00    -0.082 HD
ENDBRANCH  19  20
ENDBRANCH  18  19
ENDBRANCH  15  18
ENDBRANCH   1  15
TORSDOF 6
