REMARK  Name = ZINC21581422
REMARK  5 active torsions:
REMARK  status: ('A' for Active; 'I' for Inactive)
REMARK    1  A    between atoms: C_5  and  S_6
REMARK    2  A    between atoms: S_6  and  N_9
REMARK    3  A    between atoms: C_15  and  C_17
REMARK    4  A    between atoms: C_17  and  N_18
REMARK    5  A    between atoms: C_24  and  C_26
REMARK                            x       y       z     vdW  Elec       q    Type
REMARK                         _______ _______ _______ _____ _____    ______ ____
ROOT
ATOM      1  N   UNL     1       4.483  -0.617  -1.627  0.00  0.00    -0.173 NA
ATOM      2  C   UNL     1       4.297  -1.885  -2.346  0.00  0.00    +0.128 C 
ATOM      3  C   UNL     1       3.467  -1.609  -3.611  0.00  0.00    +0.125 C 
ATOM      4  N   UNL     1       4.065  -0.472  -4.324  0.00  0.00    -0.300 N 
ATOM      5  C   UNL     1       4.256   0.794  -3.604  0.00  0.00    +0.125 C 
ATOM      6  C   UNL     1       5.081   0.520  -2.341  0.00  0.00    +0.128 C 
ATOM      7  C   UNL     1       4.431  -0.589  -5.616  0.00  0.00    +0.199 C 
ATOM      8  O   UNL     1       4.923   0.356  -6.195  0.00  0.00    -0.278 OA
ENDROOT
BRANCH   1   9
ATOM      9  S   UNL     1       4.034  -0.473  -0.040  0.00  0.00    +0.067 S 
ATOM     10  O   UNL     1       4.814   0.580   0.509  0.00  0.00    -0.152 OA
ATOM     11  O   UNL     1       4.036  -1.786   0.503  0.00  0.00    -0.152 OA
BRANCH   9  16
ATOM     12  C   UNL     1       1.221  -0.657  -0.013  0.00  0.00    +0.038 A 
ATOM     13  C   UNL     1       0.002  -0.004   0.002  0.00  0.00    +0.030 A 
ATOM     14  C   UNL     1      -0.016   1.352   0.009  0.00  0.00    +0.080 A 
ATOM     15  S   UNL     1       1.725   1.745  -0.005  0.00  0.00    -0.057 S 
ATOM     16  C   UNL     1       2.360   0.077  -0.020  0.00  0.00    +0.144 A 
ATOM     17 CL   UNL     1      -1.379   2.427   0.022  0.00  0.00    -0.076 Cl
ENDBRANCH   9  16
ENDBRANCH   1   9
BRANCH   7  18
ATOM     18  C   UNL     1       4.228  -1.895  -6.342  0.00  0.00    +0.019 C 
BRANCH  18  19
ATOM     19  N   UNL     1       4.704  -1.765  -7.725  0.00  0.00    +0.387 N 
ATOM     20  C   UNL     1       3.881  -0.808  -8.477  0.00  0.00    -0.059 C 
ATOM     21  C   UNL     1       4.514  -0.564  -9.851  0.00  0.00    +0.089 C 
ATOM     22  N   UNL     1       4.715  -1.864 -10.510  0.00  0.00    -0.303 N 
ATOM     23  C   UNL     1       5.412  -2.922  -9.764  0.00  0.00    +0.089 C 
ATOM     24  C   UNL     1       4.744  -3.072  -8.393  0.00  0.00    -0.059 C 
ATOM     25  C   UNL     1       4.271  -2.079 -11.765  0.00  0.00    +0.244 C 
ATOM     26  O   UNL     1       4.446  -3.157 -12.293  0.00  0.00    -0.273 OA
ATOM     27  H   UNL     1       5.731  -1.372  -7.696  0.00  0.00    -0.081 HD
BRANCH  25  28
ATOM     28  C   UNL     1       3.559  -0.981 -12.511  0.00  0.00    +0.204 C 
ATOM     29  C   UNL     1       2.221  -0.656 -11.813  0.00  0.00    +0.043 C 
ATOM     30  C   UNL     1       1.270  -0.419 -13.018  0.00  0.00    +0.031 C 
ATOM     31  C   UNL     1       1.836  -1.432 -14.043  0.00  0.00    +0.161 C 
ATOM     32  O   UNL     1       3.258  -1.415 -13.843  0.00  0.00    -0.367 OA
ENDBRANCH  25  28
ENDBRANCH  18  19
ENDBRANCH   7  18
TORSDOF 5
