REMARK  Name = ZINC37691047
REMARK  3 active torsions:
REMARK  status: ('A' for Active; 'I' for Inactive)
REMARK    1  A    between atoms: C_3  and  N_9
REMARK    2  A    between atoms: N_9  and  C_10
REMARK    3  A    between atoms: C_16  and  O_18
REMARK                            x       y       z     vdW  Elec       q    Type
REMARK                         _______ _______ _______ _____ _____    ______ ____
ROOT
ATOM      1  N   UNL     1       3.583   2.126  -0.021  0.00  0.00    -0.337 N 
ATOM      2  H   UNL     1       4.429   1.652  -0.032  0.00  0.00    +0.146 HD
ENDROOT
BRANCH   1   5
ATOM      3  C   UNL     1      -0.017   1.379   0.010  0.00  0.00    +0.022 A 
ATOM      4  C   UNL     1       1.169   2.088   0.002  0.00  0.00    +0.026 A 
ATOM      5  C   UNL     1       2.381   1.411  -0.013  0.00  0.00    +0.046 A 
ATOM      6  C   UNL     1       2.398   0.021  -0.021  0.00  0.00    +0.063 A 
ATOM      7  C   UNL     1       1.208  -0.682  -0.013  0.00  0.00    +0.041 A 
ATOM      8  C   UNL     1       0.002  -0.004   0.002  0.00  0.00    +0.042 A 
ATOM      9 CL   UNL     1      -1.490  -0.891   0.012  0.00  0.00    -0.083 Cl
ATOM     10 CL   UNL     1       3.911  -0.830  -0.040  0.00  0.00    -0.082 Cl
ENDBRANCH   1   5
BRANCH   1  11
ATOM     11  C   UNL     1       3.564   3.591  -0.014  0.00  0.00    +0.099 C 
ATOM     12  C   UNL     1       3.417   4.106  -1.447  0.00  0.00    +0.025 C 
ATOM     13  C   UNL     1       3.398   5.636  -1.439  0.00  0.00    +0.002 C 
ATOM     14  C   UNL     1       4.704   6.160  -0.839  0.00  0.00    +0.003 C 
ATOM     15  C   UNL     1       4.850   5.644   0.594  0.00  0.00    +0.033 C 
ATOM     16  C   UNL     1       4.870   4.114   0.586  0.00  0.00    +0.135 C 
BRANCH  16  17
ATOM     17  O   UNL     1       5.007   3.633   1.924  0.00  0.00    -0.390 OA
ATOM     18  H   UNL     1       5.815   3.927   2.368  0.00  0.00    +0.210 HD
ENDBRANCH  16  17
ENDBRANCH   1  11
TORSDOF 3
