REMARK  Name = ZINC40838833
REMARK  7 active torsions:
REMARK  status: ('A' for Active; 'I' for Inactive)
REMARK    1  A    between atoms: C_1  and  C_2
REMARK    2  A    between atoms: C_2  and  C_4
REMARK    3  A    between atoms: C_2  and  C_16
REMARK    4  A    between atoms: N_18  and  C_19
REMARK    5  A    between atoms: C_24  and  C_25
REMARK    6  A    between atoms: C_25  and  C_26
REMARK    7  A    between atoms: C_25  and  C_27
REMARK                            x       y       z     vdW  Elec       q    Type
REMARK                         _______ _______ _______ _____ _____    ______ ____
ROOT
ATOM      1  C   UNL     1      -0.021   1.542   0.031  0.00  0.00    +0.019 C 
ATOM      2  C   UNL     1      -0.002   0.012   0.010  0.00  0.00    +0.094 C 
ENDROOT
BRANCH   2   3
ATOM      3  C   UNL     1      -1.438  -0.516   0.021  0.00  0.00    +0.149 C 
ATOM      4  C   UNL     1      -2.169  -0.015  -1.195  0.00  0.00    +0.231 C 
ATOM      5  O   UNL     1      -2.830   0.997  -1.089  0.00  0.00    -0.274 OA
ATOM      6  N   UNL     1      -2.130  -0.619  -2.379  0.00  0.00    -0.284 N 
ATOM      7  C   UNL     1      -1.421  -1.776  -2.691  0.00  0.00    +0.047 A 
ATOM      8  C   UNL     1      -1.099  -2.045  -4.017  0.00  0.00    +0.024 A 
ATOM      9  C   UNL     1      -0.401  -3.191  -4.345  0.00  0.00    +0.002 A 
ATOM     10  C   UNL     1      -0.014  -4.082  -3.360  0.00  0.00    +0.001 A 
ATOM     11  C   UNL     1      -0.326  -3.826  -2.037  0.00  0.00    +0.016 A 
ATOM     12  C   UNL     1      -1.024  -2.678  -1.703  0.00  0.00    +0.030 A 
ATOM     13  S   UNL     1      -1.419  -2.334  -0.013  0.00  0.00    -0.110 S 
ATOM     14  H   UNL     1      -2.646  -0.215  -3.095  0.00  0.00    +0.155 HD
ENDBRANCH   2   3
BRANCH   2  15
ATOM     15  C   UNL     1       0.730  -0.498   1.224  0.00  0.00    +0.222 C 
ATOM     16  O   UNL     1       0.160  -1.214   2.020  0.00  0.00    -0.275 OA
ATOM     17  N   UNL     1       2.019  -0.159   1.426  0.00  0.00    -0.285 N 
ATOM     18  H   UNL     1       2.499   0.346   0.752  0.00  0.00    +0.155 HD
BRANCH  17  19
ATOM     19  C   UNL     1       2.664  -0.536   2.609  0.00  0.00    +0.037 A 
ATOM     20  C   UNL     1       1.924  -0.777   3.760  0.00  0.00    +0.023 A 
ATOM     21  C   UNL     1       2.564  -1.149   4.925  0.00  0.00    +0.002 A 
ATOM     22  C   UNL     1       3.941  -1.280   4.949  0.00  0.00    +0.000 A 
ATOM     23  C   UNL     1       4.681  -1.040   3.805  0.00  0.00    +0.006 A 
ATOM     24  C   UNL     1       4.046  -0.674   2.634  0.00  0.00    -0.024 A 
BRANCH  24  25
ATOM     25  C   UNL     1       4.852  -0.420   1.387  0.00  0.00    +0.015 C 
ATOM     26  C   UNL     1       5.928   0.628   1.680  0.00  0.00    +0.012 C 
ATOM     27  C   UNL     1       5.518  -1.721   0.936  0.00  0.00    +0.012 C 
ENDBRANCH  24  25
ENDBRANCH  17  19
ENDBRANCH   2  15
TORSDOF 4
