REMARK  Name = ZINC49956993
REMARK  2 active torsions:
REMARK  status: ('A' for Active; 'I' for Inactive)
REMARK    1  A    between atoms: C_6  and  C_7
REMARK    2  A    between atoms: N_9  and  C_10
REMARK                            x       y       z     vdW  Elec       q    Type
REMARK                         _______ _______ _______ _____ _____    ______ ____
ROOT
ATOM      1  C   UNL     1      -0.017   1.393   0.010  0.00  0.00    +0.027 A 
ATOM      2  C   UNL     1       1.191   2.081   0.002  0.00  0.00    -0.025 A 
ATOM      3  C   UNL     1       2.374   1.374  -0.010  0.00  0.00    +0.047 A 
ATOM      4  N   UNL     1       2.364   0.046  -0.022  0.00  0.00    -0.236 NA
ATOM      5  C   UNL     1       1.247  -0.656  -0.017  0.00  0.00    +0.137 A 
ATOM      6  C   UNL     1       0.002  -0.004   0.002  0.00  0.00    +0.092 A 
ATOM      7  N   UNL     1       1.302  -2.039  -0.029  0.00  0.00    -0.325 N 
ATOM      8  C   UNL     1       3.718   2.056  -0.000  0.00  0.00    +0.056 C 
ATOM      9  C   UNL     1       3.583   3.517  -0.423  0.00  0.00    +0.006 C 
ATOM     10  C   UNL     1       2.486   4.168   0.427  0.00  0.00    +0.005 C 
ATOM     11  C   UNL     1       1.139   3.585   0.003  0.00  0.00    +0.037 C 
ATOM     12  H   UNL     1       0.482  -2.557  -0.026  0.00  0.00    +0.148 HD
ENDROOT
BRANCH   7  13
ATOM     13  C   UNL     1       2.599  -2.721  -0.049  0.00  0.00    +0.072 C 
ATOM     14  C   UNL     1       3.077  -2.906  -1.504  0.00  0.00    +0.022 C 
ATOM     15  C   UNL     1       3.766  -4.293  -1.504  0.00  0.00    +0.002 C 
ATOM     16  C   UNL     1       2.861  -5.124  -0.560  0.00  0.00    +0.002 C 
ATOM     17  C   UNL     1       2.462  -4.131   0.551  0.00  0.00    +0.022 C 
ENDBRANCH   7  13
BRANCH   6  18
ATOM     18  C   UNL     1      -1.218  -0.754   0.013  0.00  0.00    +0.103 C 
ATOM     19  N   UNL     1      -2.186  -1.348   0.022  0.00  0.00    -0.191 NA
ENDBRANCH   6  18
TORSDOF 2
