REMARK  Name = ZINC19357709
REMARK  5 active torsions:
REMARK  status: ('A' for Active; 'I' for Inactive)
REMARK    1  A    between atoms: C_1  and  O_2
REMARK    2  A    between atoms: O_2  and  C_3
REMARK    3  A    between atoms: C_6  and  C_13
REMARK    4  A    between atoms: C_8  and  O_9
REMARK    5  A    between atoms: O_9  and  C_10
REMARK                            x       y       z     vdW  Elec       q    Type
REMARK                         _______ _______ _______ _____ _____    ______ ____
ROOT
ATOM      1  C   UNL     1       2.542  -2.800  -0.038  0.00  0.00    +0.218 C 
ATOM      2  N   UNL     1       2.453  -4.014   0.794  0.00  0.00    -0.337 N 
ATOM      3  C   UNL     1       1.911  -5.160   0.276  0.00  0.00    +0.159 C 
ATOM      4  N   UNL     1       1.987  -5.438  -1.014  0.00  0.00    -0.259 N 
ATOM      5  C   UNL     1       2.554  -4.524  -1.837  0.00  0.00    +0.205 A 
ATOM      6  N   UNL     1       2.850  -3.247  -1.401  0.00  0.00    -0.286 N 
ATOM      7  C   UNL     1       3.433  -2.572  -2.448  0.00  0.00    +0.076 A 
ATOM      8  C   UNL     1       3.936  -1.288  -2.614  0.00  0.00    +0.077 A 
ATOM      9  C   UNL     1       4.468  -0.909  -3.832  0.00  0.00    +0.164 A 
ATOM     10  C   UNL     1       4.506  -1.806  -4.895  0.00  0.00    +0.164 A 
ATOM     11  C   UNL     1       4.012  -3.086  -4.748  0.00  0.00    +0.079 A 
ATOM     12  C   UNL     1       3.469  -3.482  -3.522  0.00  0.00    +0.095 A 
ATOM     13  N   UNL     1       2.917  -4.648  -3.087  0.00  0.00    -0.214 NA
ATOM     14  O   UNL     1       5.036  -1.411  -6.090  0.00  0.00    -0.488 OA
ATOM     15  C   UNL     1       6.445  -1.174  -6.102  0.00  0.00    +0.232 C 
ATOM     16  C   UNL     1       6.759   0.236  -5.626  0.00  0.00    +0.082 C 
ATOM     17  C   UNL     1       6.376   0.455  -4.171  0.00  0.00    +0.232 C 
ATOM     18  O   UNL     1       4.961   0.354  -3.998  0.00  0.00    -0.488 OA
ATOM     19  N   UNL     1       1.275  -6.037   1.113  0.00  0.00    -0.332 N 
ATOM     20  H   UNL     1       0.836  -6.961   0.710  0.00  0.00    +0.145 HD
ATOM     21  H   UNL     1       1.595  -6.393  -1.394  0.00  0.00    +0.158 HD
ATOM     22  H   UNL     1       1.205  -5.817   2.189  0.00  0.00    +0.145 HD
ATOM     23  H   UNL     1       2.821  -3.999   1.831  0.00  0.00    +0.164 HD
ENDROOT
BRANCH   1  27
ATOM     24  C   UNL     1      -1.192  -0.718   0.010  0.00  0.00    +0.162 A 
ATOM     25  C   UNL     1      -1.168  -2.103   0.002  0.00  0.00    +0.050 A 
ATOM     26  C   UNL     1       0.041  -2.773  -0.013  0.00  0.00    +0.011 A 
ATOM     27  C   UNL     1       1.227  -2.064  -0.021  0.00  0.00    -0.001 A 
ATOM     28  C   UNL     1       1.210  -0.682  -0.019  0.00  0.00    +0.057 A 
ATOM     29  C   UNL     1       0.002  -0.004   0.002  0.00  0.00    +0.169 A 
BRANCH  24  31
ATOM     30  C   UNL     1      -3.567  -0.854   0.031  0.00  0.00    +0.277 C 
ATOM     31  O   UNL     1      -2.381  -0.057   0.024  0.00  0.00    -0.491 OA
ENDBRANCH  24  31
BRANCH  29  32
ATOM     32  O   UNL     1      -0.016   1.356   0.009  0.00  0.00    -0.431 OA
BRANCH  32  33
ATOM     33  C   UNL     1       1.248   2.022   0.001  0.00  0.00    +0.541 C 
ATOM     34  F   UNL     1       1.979   1.649   1.134  0.00  0.00    -0.166 F 
ATOM     35  F   UNL     1       1.957   1.662  -1.150  0.00  0.00    -0.166 F 
ENDBRANCH  32  33
ENDBRANCH  29  32
ENDBRANCH   1  27
TORSDOF 4
