REMARK  Name = ZINC40826449
REMARK  8 active torsions:
REMARK  status: ('A' for Active; 'I' for Inactive)
REMARK    1  A    between atoms: C_1  and  C_2
REMARK    2  A    between atoms: C_6  and  C_7
REMARK    3  A    between atoms: N_9  and  N_10
REMARK    4  A    between atoms: N_10  and  C_11
REMARK    5  A    between atoms: N_10  and  C_17
REMARK    6  A    between atoms: N_27  and  N_28
REMARK    7  A    between atoms: C_29  and  C_31
REMARK    8  A    between atoms: C_36  and  O_37
REMARK                            x       y       z     vdW  Elec       q    Type
REMARK                         _______ _______ _______ _____ _____    ______ ____
ROOT
ATOM      1  C   UNL     1      -1.194   2.301   0.687  0.00  0.00    +0.048 C 
ATOM      2  C   UNL     1      -0.889   0.864   0.349  0.00  0.00    +0.009 A 
ATOM      3  C   UNL     1      -0.893   0.281  -0.925  0.00  0.00    +0.042 A 
ATOM      4  C   UNL     1      -0.561  -1.044  -0.773  0.00  0.00    +0.115 A 
ATOM      5  O   UNL     1      -0.359  -1.272   0.523  0.00  0.00    -0.454 OA
ATOM      6  C   UNL     1      -0.548  -0.130   1.223  0.00  0.00    +0.194 A 
ATOM      7  C   UNL     1      -0.468  -2.004  -1.931  0.00  0.00    +0.075 C 
ATOM      8  C   UNL     1      -1.263  -1.450  -3.117  0.00  0.00    +0.014 C 
ATOM      9  C   UNL     1      -0.824  -0.018  -3.439  0.00  0.00    +0.058 C 
ATOM     10  C   UNL     1      -1.179   0.868  -2.253  0.00  0.00    +0.070 C 
ATOM     11  N   UNL     1      -1.694   2.050  -2.396  0.00  0.00    -0.184 NA
ENDROOT
BRANCH   6  12
ATOM     12  C   UNL     1      -0.412   0.017   2.676  0.00  0.00    +0.296 C 
ATOM     13  O   UNL     1      -0.610   1.097   3.200  0.00  0.00    -0.265 OA
ATOM     14  N   UNL     1      -0.068  -1.046   3.431  0.00  0.00    -0.223 N 
ATOM     15  H   UNL     1       0.090  -1.907   3.014  0.00  0.00    +0.174 HD
BRANCH  14  16
ATOM     16  N   UNL     1       0.061  -0.906   4.819  0.00  0.00    -0.219 N 
BRANCH  16  17
ATOM     17  C   UNL     1      -0.928  -1.411   5.668  0.00  0.00    +0.053 A 
ATOM     18  C   UNL     1      -2.270  -1.243   5.350  0.00  0.00    +0.025 A 
ATOM     19  C   UNL     1      -3.244  -1.743   6.190  0.00  0.00    +0.002 A 
ATOM     20  C   UNL     1      -2.886  -2.411   7.347  0.00  0.00    +0.000 A 
ATOM     21  C   UNL     1      -1.551  -2.580   7.666  0.00  0.00    +0.002 A 
ATOM     22  C   UNL     1      -0.571  -2.086   6.828  0.00  0.00    +0.025 A 
ENDBRANCH  16  17
BRANCH  16  23
ATOM     23  C   UNL     1       1.179  -0.262   5.356  0.00  0.00    +0.053 A 
ATOM     24  C   UNL     1       2.451  -0.575   4.893  0.00  0.00    +0.025 A 
ATOM     25  C   UNL     1       3.554   0.065   5.425  0.00  0.00    +0.002 A 
ATOM     26  C   UNL     1       3.393   1.014   6.416  0.00  0.00    +0.000 A 
ATOM     27  C   UNL     1       2.128   1.328   6.879  0.00  0.00    +0.002 A 
ATOM     28  C   UNL     1       1.021   0.697   6.348  0.00  0.00    +0.025 A 
ENDBRANCH  16  23
ENDBRANCH  14  16
ENDBRANCH   6  12
BRANCH  11  29
ATOM     29  N   UNL     1      -1.943   2.555  -3.679  0.00  0.00    -0.203 N 
ATOM     30  C   UNL     1      -2.478   3.783  -3.828  0.00  0.00    +0.267 C 
ATOM     31  O   UNL     1      -2.744   4.453  -2.848  0.00  0.00    -0.268 OA
ATOM     32  H   UNL     1      -1.730   2.020  -4.460  0.00  0.00    +0.178 HD
BRANCH  30  33
ATOM     33  C   UNL     1      -2.740   4.314  -5.178  0.00  0.00    +0.080 A 
ATOM     34  C   UNL     1      -2.441   3.546  -6.306  0.00  0.00    +0.017 A 
ATOM     35  C   UNL     1      -2.689   4.048  -7.565  0.00  0.00    +0.001 A 
ATOM     36  C   UNL     1      -3.234   5.312  -7.719  0.00  0.00    +0.004 A 
ATOM     37  C   UNL     1      -3.534   6.083  -6.613  0.00  0.00    +0.046 A 
ATOM     38  C   UNL     1      -3.297   5.591  -5.338  0.00  0.00    +0.129 A 
BRANCH  38  39
ATOM     39  O   UNL     1      -3.596   6.344  -4.250  0.00  0.00    -0.506 OA
ATOM     40  H   UNL     1      -2.872   6.913  -3.954  0.00  0.00    +0.292 HD
ENDBRANCH  38  39
ENDBRANCH  30  33
ENDBRANCH  11  29
TORSDOF 7
