REMARK  Name = ZINC05395357
REMARK  6 active torsions:
REMARK  status: ('A' for Active; 'I' for Inactive)
REMARK    1  A    between atoms: C_1  and  C_2
REMARK    2  A    between atoms: N_14  and  N_15
REMARK    3  A    between atoms: N_15  and  C_16
REMARK    4  A    between atoms: C_16  and  N_18
REMARK    5  A    between atoms: C_22  and  C_29
REMARK    6  A    between atoms: C_25  and  S_28
REMARK                            x       y       z     vdW  Elec       q    Type
REMARK                         _______ _______ _______ _____ _____    ______ ____
ROOT
ATOM      1  C   UNL     1      -3.096  -2.364  -6.108  0.00  0.00    +0.018 C 
ATOM      2  C   UNL     1      -4.141  -2.502  -5.000  0.00  0.00    +0.011 C 
ATOM      3  C   UNL     1      -4.894  -1.210  -4.806  0.00  0.00    +0.013 C 
ATOM      4  C   UNL     1      -4.229  -0.345  -3.725  0.00  0.00    +0.005 C 
ATOM      5  C   UNL     1      -2.740  -0.644  -3.629  0.00  0.00    +0.003 C 
ATOM      6  C   UNL     1      -2.536  -2.066  -3.083  0.00  0.00    +0.001 C 
ATOM      7  C   UNL     1      -3.536  -3.007  -3.675  0.00  0.00    +0.005 C 
ATOM      8  C   UNL     1      -3.040  -4.405  -4.077  0.00  0.00    +0.010 C 
ATOM      9  C   UNL     1      -4.175  -4.910  -5.011  0.00  0.00    +0.053 C 
ATOM     10  C   UNL     1      -5.013  -3.690  -5.377  0.00  0.00    +0.043 C 
ATOM     11  N   UNL     1      -6.179  -3.655  -5.883  0.00  0.00    -0.189 NA
ATOM     12  C   UNL     1      -1.075  -2.442  -3.334  0.00  0.00    +0.031 C 
ATOM     13  C   UNL     1      -0.228  -1.414  -2.626  0.00  0.00    -0.027 C 
ATOM     14  C   UNL     1      -0.646  -0.220  -2.336  0.00  0.00    -0.066 C 
ATOM     15  C   UNL     1      -1.989   0.337  -2.743  0.00  0.00    -0.008 C 
ATOM     16  C   UNL     1      -2.768   0.710  -1.488  0.00  0.00    +0.012 C 
ATOM     17  C   UNL     1      -1.893   0.533  -0.249  0.00  0.00    +0.015 C 
ATOM     18  C   UNL     1      -0.562   1.266  -0.372  0.00  0.00    +0.047 C 
ATOM     19  C   UNL     1       0.257   0.707  -1.540  0.00  0.00    +0.045 C 
ATOM     20  C   UNL     1      -1.749   1.610  -3.563  0.00  0.00    +0.016 C 
ENDROOT
BRANCH  11  21
ATOM     21  N   UNL     1      -6.853  -4.848  -6.175  0.00  0.00    -0.219 N 
ATOM     22  H   UNL     1      -6.430  -5.701  -5.991  0.00  0.00    +0.176 HD
BRANCH  21  23
ATOM     23  C   UNL     1      -8.089  -4.810  -6.711  0.00  0.00    +0.147 C 
ATOM     24  S   UNL     1      -8.912  -6.269  -7.068  0.00  0.00    -0.017 S 
BRANCH  23  25
ATOM     25  N   UNL     1      -8.677  -3.625  -6.967  0.00  0.00    -0.339 N 
ATOM     26  H   UNL     1      -8.210  -2.799  -6.765  0.00  0.00    +0.144 HD
ATOM     27  H   UNL     1      -9.566  -3.598  -7.353  0.00  0.00    +0.144 HD
ENDBRANCH  23  25
ENDBRANCH  21  23
ENDBRANCH  11  21
BRANCH  18  28
ATOM     28  S   UNL     1      -0.856   3.039  -0.621  0.00  0.00    -0.175 S 
ATOM     29  H   UNL     1       0.379   3.570  -0.670  0.00  0.00    +0.102 HD
ENDBRANCH  18  28
TORSDOF 4
