REMARK  Name = ZINC39934941
REMARK  12 active torsions:
REMARK  status: ('A' for Active; 'I' for Inactive)
REMARK    1  A    between atoms: C_1  and  O_2
REMARK    2  A    between atoms: O_2  and  C_3
REMARK    3  A    between atoms: C_8  and  C_13
REMARK    4  A    between atoms: C_13  and  C_30
REMARK    5  A    between atoms: C_14  and  C_15
REMARK    6  A    between atoms: C_17  and  O_28
REMARK    7  A    between atoms: C_18  and  O_22
REMARK    8  A    between atoms: O_22  and  C_23
REMARK    9  A    between atoms: C_23  and  C_24
REMARK   10  A    between atoms: C_24  and  O_26
REMARK   11  A    between atoms: O_26  and  C_27
REMARK   12  A    between atoms: O_28  and  C_29
REMARK                            x       y       z     vdW  Elec       q    Type
REMARK                         _______ _______ _______ _____ _____    ______ ____
ROOT
ATOM      1  C   UNL     1      -4.365  -5.163   1.190  0.00  0.00    +0.072 C 
ATOM      2  C   UNL     1      -5.500  -5.892   1.156  0.00  0.00    +0.027 C 
ENDROOT
BRANCH   1   8
ATOM      3  C   UNL     1       0.038  -2.152  -0.513  0.00  0.00    +0.122 A 
ATOM      4  C   UNL     1      -0.678  -1.078   0.163  0.00  0.00    +0.048 A 
ATOM      5  C   UNL     1      -1.960  -1.211   0.550  0.00  0.00    +0.031 A 
ATOM      6  C   UNL     1      -2.674  -2.470   0.291  0.00  0.00    +0.061 A 
ATOM      7  N   UNL     1      -3.889  -2.858   0.553  0.00  0.00    -0.359 N 
ATOM      8  C   UNL     1      -4.033  -4.230   0.053  0.00  0.00    +0.216 C 
ATOM      9  N   UNL     1      -2.740  -4.594  -0.538  0.00  0.00    -0.359 N 
ATOM     10  C   UNL     1      -1.945  -3.568  -0.400  0.00  0.00    +0.064 A 
ATOM     11  C   UNL     1      -0.553  -3.339  -0.792  0.00  0.00    +0.073 A 
ATOM     12  H   UNL     1      -4.574  -2.335   0.999  0.00  0.00    +0.162 HD
ATOM     13  H   UNL     1      -2.517  -5.441  -0.954  0.00  0.00    +0.162 HD
BRANCH   3  15
ATOM     14  C   UNL     1       1.908  -0.688  -0.561  0.00  0.00    +0.277 C 
ATOM     15  O   UNL     1       1.330  -1.956  -0.878  0.00  0.00    -0.495 OA
ENDBRANCH   3  15
ENDBRANCH   1   8
BRANCH   2  16
ATOM     16  C   UNL     1      -5.899  -6.686   2.326  0.00  0.00    -0.006 A 
ATOM     17  C   UNL     1      -5.603  -6.232   3.617  0.00  0.00    +0.058 A 
ATOM     18  C   UNL     1      -5.980  -6.983   4.713  0.00  0.00    +0.162 A 
ATOM     19  C   UNL     1      -6.654  -8.191   4.533  0.00  0.00    +0.164 A 
ATOM     20  C   UNL     1      -6.948  -8.643   3.255  0.00  0.00    +0.065 A 
ATOM     21  C   UNL     1      -6.581  -7.896   2.154  0.00  0.00    +0.029 A 
ATOM     22 BR   UNL     1      -6.991  -8.512   0.414  0.00  0.00    -0.050 Br
BRANCH  18  23
ATOM     23  O   UNL     1      -5.694  -6.545   5.968  0.00  0.00    -0.491 OA
ATOM     24  C   UNL     1      -5.001  -5.299   6.078  0.00  0.00    +0.277 C 
ENDBRANCH  18  23
BRANCH  19  25
ATOM     25  O   UNL     1      -7.023  -8.927   5.613  0.00  0.00    -0.477 OA
BRANCH  25  26
ATOM     26  C   UNL     1      -7.710 -10.154   5.358  0.00  0.00    +0.349 C 
BRANCH  26  27
ATOM     27  C   UNL     1      -8.037 -10.828   6.666  0.00  0.00    +0.345 C 
ATOM     28  O   UNL     1      -7.715 -10.311   7.709  0.00  0.00    -0.247 OA
BRANCH  27  29
ATOM     29  O   UNL     1      -8.686 -12.003   6.671  0.00  0.00    -0.466 OA
ATOM     30  C   UNL     1      -8.963 -12.585   7.946  0.00  0.00    +0.280 C 
ENDBRANCH  27  29
ENDBRANCH  26  27
ENDBRANCH  25  26
ENDBRANCH  19  25
ENDBRANCH   2  16
BRANCH   1  31
ATOM     31  C   UNL     1      -3.475  -5.276   2.306  0.00  0.00    +0.099 C 
ATOM     32  N   UNL     1      -2.769  -5.365   3.191  0.00  0.00    -0.191 NA
ENDBRANCH   1  31
TORSDOF 9
